data_image0
_chemical_formula_structural       FeS2FeS2FeCFeS3FeS2FeCFeHFeS3CHFeSHFeS2FeS2FeSFeS3C11H3CH2C6H4C6H4C7H4C6H4C2H2SC2H2C9PCPH2CHC4HC7H6C2H3C2HC3HC7PC10HC7H12C2H3CH2C5H6C2SHCH3CSH2SH2CHCH2C2HCH3CHCH2C2HCH4C3H2C3SCH2CHCHC2HC2HCHC5HC2H3CHC2HCH3PCHC3HCHCH4CHCHCH3CP2H5CH2CHC4H3CH2C5HC2HCHC3HC4HCHC2HC3H2C2HC2HCHCH4CHC2FeS2FeS2FeCFeS3FeS2FeSCFeSFeS4H2SFeS2FeS2FeSFeS3C2H2C6H5C8H2C7H4C6H4C6H6CH4C2H3C2H2CHCH3C6PC4H2C2H3C7H5CH2C2HC2H6C3HC2PHC8HC2SCHCHCHC5H3C2H4CH4CH2CPH4CH2C3H3C4H2CHPH4CH2C2H2C2HC3HC3HC4HCHCH2C2HCH4C6FeCPH2CH3C2HCH2C2HC6H2C2SHC4H2C2HCHPC7H2C2H2C3HC9H3CHC12H2PH3CH3C3HCHC2H4CHCH2C2FeHCSHCHFeH2FeS2HC2FeS2FeS2FeSFeS3FeS2CHCH2C7H4FeC7H3FeH2CHC6H2C3H4C6H4SHC3SHC2HCHSCH3CHCH2CH2SCHC3H2C5SH2C3H2C8PC3H3CHC7H5SH3CH3CHSHCH3CHCHCHCHSH2C2H3CFeC2HCHCHC3HC2HCH6FeC7HCSCH3C2H2C2PC5HC7SH3CH2CH5CH7CH2C2HCSH4CSC3PC18H9CSHPC6SHFeH7CHFeSCFeCSPSH2FeSCH2CFeS2FeS2FeSFeS3HCH2C2H2FeS2C5H3C6H4C6H3CHC3H3C3H3C2HC7H4C2HCSC4H6C6PC4H9C4PC18H15CH2CSCSHC2HCHCHC2H3C6PC3HC5SC5HCH6CH5CH3CHCSCH2C2HCPCH2CHCSCH2CH3C2SHC2HCH5FeCHCSFeCHC2H5C3H2CH2C2HFeHCHCH3CHSCHC8H2CHCH2CHC2H2PCHC5HCSHCHCHFeHCHC9HCH3FeSHFeS2Fe2SHSFeSCFeSCFeSFeS2FeCFeS2FeSFeCS2HSH2FeS2H2SC4HC7H5C6H4C6H4CH2SC4HCH2C2HPH3CHC2HC2H2CH2C8H3C3HCHCH2CH2C2HC4HC4HC2SC3HCH2CHCH3C2HC2HC2HCHCHCHCH3C2H2C2PC3HC3HC2SH4C4HPH2SCHCHCSHC2HC2HCHCH2C2HC2H2PHCSCSC2HCPC3H7C2H2CHCHC2H2CHCHCH2C2H2C2HCFeC2HC4H2CHPHCH2CH3FeC2HCH2CHC4HCHC2H2CH2C2HC5H2CH3C4HC2HC3H2C2HCSH3C3SCHCHCHCHFe2S2FeHSFeCFeS3FeS2FeSHFeCFeS3FeSFeS2FeSFeS3CS2HFeSH2CH2C3HC6H5C6H4C6H4CHC2HCHCH4C5HC2H3C7HCH4CH4CH3CHCH2C4H3C5H3CSHCHC2HPC2H2C3PCHC2H3C3H2CHC3HCH2SFeH4CH3CH2CHC3H2CHC2HC3HC3HC2H2C6H2CH4C2HSHCHC2HCHC3PC2H2C2HC2H2C2HSC2HPCHC2HCHPC4HC2HSHCHC2H2C2SC2H2CHCH2C2H2CFeS2FeS2FeSFeS3FeHSFeS2C3HCHC6H5C6H4CHFeH2C8H4C3HC4H5C6PC16HCH11CH4CHSHCHCHSHCHC13H6CH4PH2CPHCH2C8H2CSHC3H2C2FeC4HSH2SH2C2H2CH2CH4CPC5H6C5HCH5C3FeH4CSHCHCHCH4C3HC2H3C2SC6H2CSHCHCHCHC2SH2C3HC2H2CHCFeS2FeS2FeSFeS3CHC2FeHSFeS2H2CHCHC5HCHC8H4C6H5PH3FeHC7H3C8H4CHCHC2HC5PC15H10CHCHCH3CH2C2H2CH2PHCH2CHC2SC3SHC3H2C2HCH2CHC2H3CHC2PC5PC2H2C3HCHC2H2CHCHC3SH2C3HC3H2CH3C2H3CH2CHCH2C2H2CHCHCHC4H2C2PSHC4HC2HCH2CHCHC2HC2HC3HCSH2C2HC3H4C2HC4H3C4HC2H2C2HC2H3C4HCFe2SFe2SHCHSH2C2HCH4SHC5HC2HC4HCHC3SH3CH2CHC2HC2H3CPC3H2C3HC3HCH2C2PCH2SC2H2CH2CH2C2HC5HC2H2CHC5HCH3CH2CH2SC2H2C2HFeCHCH2C2HCHCH2CH2C9PH2CHCH3CHSCH2C4SCHC2H4SCH3CHCHSHCH3FeHC2H2SHC5HFeHC2HCSCPH2CSH5FeS4HCHCFeSCH3CH4CHC3H2CH5CH5CHSCH2C3H2C3H2CH2C2H2CFeC7PC7SCH3C2H2C3SH3C4HC2H2CHCH2CHCHC2HC2HCH2C5HCHC3H2C4H2C6PC2HCHSHSC2H2CHC3HC2H5C3PHC3HC2HFeHCH5SH2CFeC5SH2C2HCH4CH2CHC3HCHC3HC2HCH2PCHSC2SCFeSFeS2FeCFeS3FeSFeS2FeS2FeS2FeSFeS3HC2H2C6H4C2H2C7H4C6H3C6H4C7H4CH2CH4C5H3C4HC2H2C4HFeC2HCH2C4H2C2H7CH3C3H2CH2C4PC2HCHCHC7HCHSCH2CHC6HCH2C6H3CH2C3HCH4CH2C2PSH2C8PC3HC4H2C6H5CH2CHC2H4CPC8H8SFeH2CPC9H2C8H7C4H4CH2CHCHC4PC3HC8H5FeCH5C3H2CH3C2HCHCH2CH2CHCHCH3CH6C4H3C2SC3SCSCHSHC2HCH2CHPHCH2C3HSHC2SC2FeS2FeS2FeSFeS3FeSCFeS2FeSFeS2FeS2FeSCH2CH2C2SCSC6H4CSC2HC6H4C6H4C6H4C6H4C2HCHC2HCHCPHCHC6PC9HC3HC2HC2H14C2H2CHCHPC6HCH3C2H4FeH2FeHC2HC2H2C2H3CH2C3H4CH2C7H4C2H2C2HC2HCH2CH3C2HC10PC16SH17FeH3CH5CHCHC2HCH2C5H5CHSH2C2HC6HC3H3C5HCH2CHCHPSC4HPCSC2H2C3HCSC2HC3FeHSC2HSH2FeCSC2SCFeS2FeS2FeSFeS3FeS2FeSFeSFeCS2H3S3C3H5C6H4CHC8H2FeH2C4H4C6H4C6H4CH2C2HPC6PC18H7SCH11C6HC2H8C6PC6SC2HFeCHCH3FeH3C2H2SHCHSCHC2HC4PC19H19C3FeCHC2H2C4H3SC2H2CPC3HCHCH2C2H4C2H2C2HC5H2CH2SHC2HC2HC2H4CHC2H3CH2SC4HCHFeH4SCH2SC2H3CFeSCSFeS2FeS2FeS2FeSFeS3CFe2S2FeSFeCS2FeSCS2HC14H5CH2C6H5C5HCHC6H4C6H6CHC8PC17H17C4H5C6HC3HPCH3CH3CSPCSHC2HCPHC2H2CH4CHC3HC4HC2HSH3C2H3CSHCH2CHCH2C2H2CH4C4HCHC2HCH2C6HC2HC3HCHCH3CSHCH2CFeC9HC2PCH3C3H2C2H2C2HC2H3CH3CH2CH3C3HC4HCH4CH4C2H2C3HC2HFeSC2HCHC2HC2FeSHCHSHFeSCFeS2C2HCH2PHC2H2CHCPC7HSH2CHCH2CHC2HC2HC6H5CHCH3CHPH2CHFeCH3C4H3C3SC4SCHCHC2H2C2HCH5CHCH2CH2C2HC3HFeC2H3CHCHC4FeHC3H2C3H3CSC3H3C2HC7HSHCSHC2HCHCH2C2HCHCHC2HC3H2CHCHC2PC2H3CHC5HCHC3FeH5C3HC3H3CSHCHSC2H2SH4SHC3HC5HCHCH4CSHP2C3H2CHFeSCHCHSHCH2SFeCSHCHCHC2FeC2HCPHSCH2C2HCH3CHC2HC7H2PC2HC2HCHC2SHCH3C4HSHCHFeHCH8CHC6H2CH2C2H2CHCPHC5HCH2C3H2C2PCHSC2HC8SC2H2C3HC3H3CHCH2C4HCH3CHC9HC2HC3H2C4H2CH3CHCH3CHCH4PC2HCHSC2H3C2HC4HCH2FeH3C2FeSFeS2FeS2FeSFeS3C2SHCFeHFeS2C3HC4HCHC8H4C6H6C2HC6H5C5H3C2HC3HCPCH2C8HC3HSCH3C6HC2H2C3PC18FeC3H13C2HFeHC4H2CH2PHCH2SHPCHCSHFeHC3H3C3HCHC2H3C2HCHSCHCH2C4HCHSHCPC10HC2H3CHC2H7CH2C2HCHC2H4CH2C3H3CH2PCH3C3H3C5HC2HC5H3C2HCH3CHCSH2PHCH2C2HC3SFeS2FeS2FeSFeS3FeSHSFeS2HCHC3HPCHC6H5SC6H4CHC7H4CHC5H4CH2C3HC2H2CH2C2H4CH2PHC3H2CH4CHCH2C8PHC2H3C2HC2HCH5C4H2CHCHC13HC3SH2C2H2C2H3CH3CHC5H4C2HC2SPC2H7CHSCHC2HC4H2SCH2C2H5C6PC4HC2H2C5HC3H3FeH2C2HCHC3FeH2FeH2C2H4C5H3CH2CSC2H2C2H2CHCH6CFeS2FeSFeHFeCS2FeS2FeS2FeHFeS3FeSFeS2FeSFeS5CHFeSH2C2HC7H5CHC6H6CH2C7H4C3HC7PC18H21C4HCHCH2C2HCSHCHCHCH3C3HC2H2C3HC11H2C4HC2HCHPH3C3FeHC7PHCH2C4HCHSH3C5HPHCHCH5C4HC7H2C2HC2HCH3C2H3C2HCHC2HC2H2C2HCHCH5C3HCSCHCH3CHCH2CH3C5H2CHC2FeSCFeS2FeSFeS2FeS2FeS2FeSFeS3FeCSCH3FeS2FeSCFeSFeS3HC8H5CPC8H4CH2C6H4C3HC2H3C2HCH2CSHCHCH2SH3C3HCH3C7PC18H17CH3CH3CH2C2HCHC7PC17H8CH4CH3CHCH2CHC2HCSC2H2C2H3C5HC4HCHCH2SC2H8CH2C2HCHCHC2H2C2FeCH2CH3CHC2H2CPHC2PHC3HCHCSHFeSHFeSHCPHFeSCFeS2FeS2FeSFeS3FeS2C2HSH2CH2C3HC8H4C6H7C6H3C7H4CH2CH2SC3H3C2H4C3HCH2C3HCH2CH2CHC3H9CHC2HCH3CH2CH4C2H2C3HC6HCH3C2H2SH5CHCH3C4PHC4H2C3HC6HC2HC2HCFeSH2PC2HC2HC2H4C7PC11HC3H12C2H2C6PC18H3CHCH3C4HCSH2C2HCHCHC2HC5PC5HC7SC2H2CH5C3HCHCH3CH3CH2CHCH2C2HCH2C2H2C2HSH2C2HSC2HC2HC2HCHCHCFeHCHCPHC2HCHSCFeH3CHCH2FeS2H2FeSFeS2FeS2FeSFeS3CFeS2PC2HC6H5C6H5CHC6H2C6H6CHCHC3SC2HCH4FeCHCHC4HC5HC2H2C2HC4HC2H2C2H2C4H2C2H2CHCHC4SFeH2CHCH4CHC2H2PC3HSH2C4H2CHC4H2P2HC6HC2H3C3H3CSC2H4C3HC3H2CHC5H4C7H3C2H6C4HC3SH3C2HCH3P2H3C5HSCPH2C2H3C4HCHCHC2H2CHCHC3HC3S2C8HC2H3CHCPH4C2HCHC2H2CH3CHC2HCHCSH2CHC3HC4HC2PH2CHC3FeC3H6C3HC4H2C2HC4HCHPC5HFeS2FeSCFeSFeS3FeS2FeSFeSFeS3HCHSH3SFeS2FeS2FeSFeS3CH2C7H4C6H3CHC6H4C11H4C6H6CH2CHC2HC4HCHC2SC2HCH2CH2C3H2C7HCH2CH2CHCH2C5FeH4C2H2C2H2CH2CHCHC3H2CH4CHCFeH2CPC2H3C4HCHC6H4CH2CH4CHCH5SCH3C4HCHC4HCHC2HC3HPCHCH2CFeC6PC16HCH16C6PC18H16C2HC4HSC3H2C2H2C2PCH4C2H3C2FeS2FeSHFeSFeS3FeS2FeSFeSFeS3HC2SC2HSFeS2FeS2FeSFeHS2HC8H4C4H2C6H3C2HC2HC6H4C2HC2HC6H4C6H4CH2CH3PH2C3HC2H3CHC3SHC13H5C2HCHCH5C6PC18H21C3HC3HCH2C3HCH3CHC2H4C5FeH2CHC2H2C2HC5HCHCHCSC6PC7HC3H13CH4C2H2C2PC3H2CHC4HC3HC2H3C4H4C2HCFeH2C2HCPCPCHC2HCH2CHCH2PH2C4H2CH2C3HCH2SHCHSH2CH4CHC5H2CSC4HCH3CH2C
_chemical_formula_sum              "Fe272 S544 C4080 H3264 P136"
_cell_length_a       61.5813
_cell_length_b       61.1677
_cell_length_c       94.2843
_cell_angle_alpha    91.7317
_cell_angle_beta     91.3862
_cell_angle_gamma    117.952

_space_group_name_H-M_alt    "P 1"
_space_group_IT_number       1

loop_
  _space_group_symop_operation_xyz
  'x, y, z'

loop_
  _atom_site_type_symbol
  _atom_site_label
  _atom_site_symmetry_multiplicity
  _atom_site_fract_x
  _atom_site_fract_y
  _atom_site_fract_z
  _atom_site_occupancy
  Fe  Fe1       1.0  0.25559  0.30340  0.02922  1.0000
  S   S1        1.0  0.28678  0.30865  0.04423  1.0000
  S   S2        1.0  0.24963  0.29317  0.00504  1.0000
  Fe  Fe2       1.0  0.22541  0.30779  0.05390  1.0000
  S   S3        1.0  0.25505  0.31310  0.07051  1.0000
  S   S4        1.0  0.18778  0.30216  0.06154  1.0000
  Fe  Fe3       1.0  0.28205  0.33936  0.05546  1.0000
  C   C1        1.0  0.09207  0.01969  0.21374  1.0000
  Fe  Fe4       1.0  0.25799  0.28236  0.05848  1.0000
  S   S5        1.0  0.26599  0.25246  0.06791  1.0000
  S   S6        1.0  0.25227  0.33580  0.03944  1.0000
  S   S7        1.0  0.22707  0.27534  0.04287  1.0000
  Fe  Fe5       1.0  0.06499  0.31983  0.04426  1.0000
  S   S8        1.0  0.05259  0.34827  0.03869  1.0000
  S   S9        1.0  0.10287  0.32563  0.03694  1.0000
  Fe  Fe6       1.0  0.01676  0.28772  0.05907  1.0000
  C   C2        1.0  0.20068  0.03212  0.04794  1.0000
  Fe  Fe7       1.0  0.01570  0.31539  0.03241  1.0000
  H   H1        1.0  0.30219  0.10638  0.02248  1.0000
  Fe  Fe8       1.0  0.03913  0.34508  0.06098  1.0000
  S   S10       1.0  0.04498  0.37530  0.07834  1.0000
  S   S11       1.0  0.02877  0.28727  0.03661  1.0000
  S   S12       1.0  0.05379  0.31864  0.06683  1.0000
  C   C3        1.0  0.02079  0.20898  0.17407  1.0000
  H   H2        1.0  0.15099  0.28968  0.02322  1.0000
  Fe  Fe9       1.0  0.01021  0.01844  0.15289  1.0000
  S   S13       1.0  0.04455  0.04711  0.14258  1.0000
  H   H3        1.0  0.00204  0.47716  0.07835  1.0000
  Fe  Fe10      1.0  0.22845  0.09271  0.11074  1.0000
  S   S14       1.0  0.21697  0.07604  0.13186  1.0000
  S   S15       1.0  0.24631  0.07912  0.09404  1.0000
  Fe  Fe11      1.0  0.21427  0.13329  0.11753  1.0000
  S   S16       1.0  0.20144  0.11909  0.13932  1.0000
  S   S17       1.0  0.20725  0.16468  0.10963  1.0000
  Fe  Fe12      1.0  0.23592  0.11496  0.14146  1.0000
  S   S18       1.0  0.25370  0.11787  0.16365  1.0000
  Fe  Fe13      1.0  0.18335  0.08115  0.12852  1.0000
  S   S19       1.0  0.14757  0.04791  0.13456  1.0000
  S   S20       1.0  0.25005  0.13176  0.12042  1.0000
  S   S21       1.0  0.19360  0.09525  0.10660  1.0000
  C   C4        1.0  0.28211  0.13814  0.17286  1.0000
  C   C5        1.0  0.23880  0.03674  0.03827  1.0000
  C   C6        1.0  0.17853  0.35321  0.00021  1.0000
  C   C7        1.0  0.29228  0.02670  0.02704  1.0000
  C   C8        1.0  0.03747  0.46030  0.21898  1.0000
  C   C9        1.0  0.07284  0.04657  0.14036  1.0000
  C   C10       1.0  0.09217  0.06683  0.13426  1.0000
  C   C11       1.0  0.11526  0.06775  0.13266  1.0000
  C   C12       1.0  0.11915  0.04812  0.13690  1.0000
  C   C13       1.0  0.09977  0.02772  0.14290  1.0000
  C   C14       1.0  0.07673  0.02694  0.14469  1.0000
  H   H4        1.0  0.08925  0.08193  0.13074  1.0000
  H   H5        1.0  0.12996  0.08350  0.12796  1.0000
  H   H6        1.0  0.10267  0.01251  0.14622  1.0000
  C   C15       1.0  0.21811  0.36445  0.01935  1.0000
  H   H7        1.0  0.26068  0.10363  0.99734  1.0000
  H   H8        1.0  0.00875  0.28830  0.99521  1.0000
  C   C16       1.0  0.00191  0.18821  0.16683  1.0000
  C   C17       1.0  0.24089  0.01476  0.07672  1.0000
  C   C18       1.0  0.24979  0.03963  0.08154  1.0000
  C   C19       1.0  0.23458  0.04736  0.08867  1.0000
  C   C20       1.0  0.21044  0.02981  0.09114  1.0000
  C   C21       1.0  0.20172  0.00479  0.08666  1.0000
  H   H9        1.0  0.25277  0.00916  0.07117  1.0000
  H   H10       1.0  0.26870  0.05287  0.07993  1.0000
  H   H11       1.0  0.19850  0.03550  0.09656  1.0000
  H   H12       1.0  0.27861  0.18131  0.07170  1.0000
  C   C22       1.0  0.04661  0.40514  0.08139  1.0000
  C   C23       1.0  0.04945  0.41491  0.09546  1.0000
  C   C24       1.0  0.05091  0.43839  0.09850  1.0000
  C   C25       1.0  0.04963  0.45262  0.08747  1.0000
  C   C26       1.0  0.04672  0.44285  0.07339  1.0000
  C   C27       1.0  0.04516  0.41931  0.07036  1.0000
  H   H13       1.0  0.05062  0.40423  0.10410  1.0000
  H   H14       1.0  0.05310  0.44549  0.10938  1.0000
  H   H15       1.0  0.04575  0.45360  0.06474  1.0000
  H   H16       1.0  0.04307  0.41224  0.05949  1.0000
  C   C28       1.0  0.24330  0.04895  0.99056  1.0000
  C   C29       1.0  0.16475  0.30985  0.05502  1.0000
  C   C30       1.0  0.14129  0.29880  0.06082  1.0000
  C   C31       1.0  0.12237  0.30393  0.05577  1.0000
  C   C32       1.0  0.12660  0.32014  0.04476  1.0000
  C   C33       1.0  0.15025  0.33160  0.03920  1.0000
  C   C34       1.0  0.16918  0.32662  0.04435  1.0000
  H   H17       1.0  0.13764  0.28601  0.06921  1.0000
  H   H18       1.0  0.10444  0.29509  0.06029  1.0000
  H   H19       1.0  0.15404  0.34454  0.03089  1.0000
  H   H20       1.0  0.18722  0.33572  0.04010  1.0000
  C   C35       1.0  0.24927  0.22838  0.07961  1.0000
  C   C36       1.0  0.22603  0.22335  0.08421  1.0000
  C   C37       1.0  0.21357  0.20389  0.09342  1.0000
  C   C38       1.0  0.22403  0.18907  0.09807  1.0000
  C   C39       1.0  0.24731  0.19415  0.09348  1.0000
  C   C40       1.0  0.25987  0.21380  0.08441  1.0000
  H   H21       1.0  0.21765  0.23443  0.08067  1.0000
  H   H22       1.0  0.19562  0.20022  0.09691  1.0000
  H   H23       1.0  0.25568  0.18306  0.09701  1.0000
  H   H24       1.0  0.27803  0.21795  0.08115  1.0000
  C   C41       1.0  0.26472  0.04044  0.13302  1.0000
  C   C42       1.0  0.99071  0.11891  0.14976  1.0000
  H   H25       1.0  0.01191  0.06815  0.14810  1.0000
  H   H26       1.0  0.15344  0.26019  0.03956  1.0000
  S   S22       1.0  0.99882  0.02935  0.17333  1.0000
  C   C43       1.0  0.27725  0.08953  0.05476  1.0000
  C   C44       1.0  0.04962  0.19373  0.16858  1.0000
  H   H27       1.0  0.25319  0.13251  0.06112  1.0000
  H   H28       1.0  0.23639  0.08779  0.01873  1.0000
  C   C45       1.0  0.01567  0.00024  0.11361  1.0000
  C   C46       1.0  0.26779  0.29066  0.99110  1.0000
  C   C47       1.0  0.24138  0.20901  0.01376  1.0000
  C   C48       1.0  0.22606  0.33150  0.09971  1.0000
  C   C49       1.0  0.22902  0.34749  0.08879  1.0000
  C   C50       1.0  0.25253  0.36589  0.08582  1.0000
  C   C51       1.0  0.27303  0.36842  0.09385  1.0000
  C   C52       1.0  0.27017  0.35307  0.10517  1.0000
  C   C53       1.0  0.24657  0.33411  0.10781  1.0000
  P   P1        1.0  0.29698  0.35485  0.11444  1.0000
  C   C54       1.0  0.29115  0.34588  0.13254  1.0000
  P   P2        1.0  0.16865  0.30419  0.99504  1.0000
  H   H29       1.0  0.09038  0.30414  0.00606  1.0000
  H   H30       1.0  0.06726  0.05979  0.21641  1.0000
  C   C55       1.0  0.28221  0.08667  0.04055  1.0000
  H   H31       1.0  0.31099  0.07676  0.21403  1.0000
  C   C56       1.0  0.99217  0.08348  0.15974  1.0000
  C   C57       1.0  0.27455  0.35072  0.14025  1.0000
  C   C58       1.0  0.27090  0.34473  0.15450  1.0000
  C   C59       1.0  0.20799  0.01213  0.12381  1.0000
  H   H32       1.0  0.17483  0.01559  0.12161  1.0000
  C   C60       1.0  0.29799  0.10780  0.03341  1.0000
  C   C61       1.0  0.98844  0.17659  0.12955  1.0000
  C   C62       1.0  0.08540  0.27840  0.98855  1.0000
  C   C63       1.0  0.28840  0.04217  0.03684  1.0000
  C   C64       1.0  0.24808  0.12405  0.02853  1.0000
  C   C65       1.0  0.27148  0.05805  0.12255  1.0000
  C   C66       1.0  0.09919  0.29637  0.99918  1.0000
  H   H33       1.0  0.20790  0.31657  0.10151  1.0000
  H   H34       1.0  0.21319  0.34502  0.08227  1.0000
  H   H35       1.0  0.25495  0.37760  0.07697  1.0000
  H   H36       1.0  0.29118  0.38187  0.09096  1.0000
  H   H37       1.0  0.24403  0.32090  0.11581  1.0000
  H   H38       1.0  0.27865  0.30114  0.11434  1.0000
  C   C67       1.0  0.27267  0.01848  0.22976  1.0000
  C   C68       1.0  0.29388  0.04083  0.23313  1.0000
  H   H39       1.0  0.02341  0.09863  0.12934  1.0000
  H   H40       1.0  0.26455  0.35929  0.13530  1.0000
  H   H41       1.0  0.25789  0.34829  0.16038  1.0000
  C   C69       1.0  0.03078  0.17293  0.16133  1.0000
  C   C70       1.0  0.03546  0.48213  0.21939  1.0000
  H   H42       1.0  0.17324  0.23471  0.03226  1.0000
  C   C71       1.0  0.17010  0.28177  0.00651  1.0000
  C   C72       1.0  0.02464  0.23060  0.02141  1.0000
  C   C73       1.0  0.21118  0.38257  0.01627  1.0000
  H   H43       1.0  0.30136  0.30294  0.00371  1.0000
  C   C74       1.0  0.30096  0.32976  0.15361  1.0000
  C   C75       1.0  0.16508  0.06316  0.17063  1.0000
  C   C76       1.0  0.18998  0.07904  0.17384  1.0000
  C   C77       1.0  0.19727  0.10250  0.18017  1.0000
  C   C78       1.0  0.17975  0.11023  0.18314  1.0000
  C   C79       1.0  0.15459  0.09423  0.18017  1.0000
  C   C80       1.0  0.14743  0.07072  0.17372  1.0000
  P   P3        1.0  0.13235  0.10538  0.18249  1.0000
  C   C81       1.0  0.14388  0.13027  0.19599  1.0000
  C   C82       1.0  0.12805  0.11665  0.16569  1.0000
  C   C83       1.0  0.10568  0.11645  0.16210  1.0000
  C   C84       1.0  0.10247  0.12529  0.14912  1.0000
  C   C85       1.0  0.12159  0.13452  0.13968  1.0000
  C   C86       1.0  0.14395  0.13493  0.14321  1.0000
  C   C87       1.0  0.14721  0.12609  0.15617  1.0000
  C   C88       1.0  0.14156  0.15176  0.19403  1.0000
  C   C89       1.0  0.15065  0.17097  0.20452  1.0000
  C   C90       1.0  0.16205  0.16884  0.21702  1.0000
  H   H44       1.0  0.05495  0.02167  0.11249  1.0000
  C   C91       1.0  0.15524  0.12822  0.20862  1.0000
  C   C92       1.0  0.10336  0.08064  0.18779  1.0000
  C   C93       1.0  0.09603  0.07930  0.20190  1.0000
  C   C94       1.0  0.07299  0.06070  0.20557  1.0000
  C   C95       1.0  0.05718  0.04326  0.19524  1.0000
  C   C96       1.0  0.06442  0.04432  0.18125  1.0000
  C   C97       1.0  0.08735  0.06295  0.17756  1.0000
  H   H45       1.0  0.15954  0.04536  0.16519  1.0000
  H   H46       1.0  0.20377  0.07357  0.17101  1.0000
  H   H47       1.0  0.21667  0.11506  0.18230  1.0000
  H   H48       1.0  0.18610  0.12901  0.18730  1.0000
  H   H49       1.0  0.12844  0.05850  0.17053  1.0000
  H   H50       1.0  0.09058  0.10922  0.16922  1.0000
  H   H51       1.0  0.08495  0.12447  0.14626  1.0000
  H   H52       1.0  0.11901  0.14103  0.12953  1.0000
  H   H53       1.0  0.15872  0.14185  0.13582  1.0000
  H   H54       1.0  0.16466  0.12651  0.15861  1.0000
  H   H55       1.0  0.13285  0.15382  0.18442  1.0000
  H   H56       1.0  0.14892  0.18757  0.20291  1.0000
  C   C98       1.0  0.18254  0.00286  0.12196  1.0000
  C   C99       1.0  0.00504  0.11789  0.13862  1.0000
  H   H57       1.0  0.15713  0.11175  0.21036  1.0000
  H   H58       1.0  0.10772  0.09266  0.21008  1.0000
  H   H59       1.0  0.16918  0.18380  0.22510  1.0000
  C   C100      1.0  0.31328  0.30142  0.08679  1.0000
  H   H60       1.0  0.05205  0.03101  0.17317  1.0000
  H   H61       1.0  0.09246  0.06393  0.16663  1.0000
  C   C101      1.0  0.20504  0.15563  0.06645  1.0000
  C   C102      1.0  0.22236  0.16583  0.05603  1.0000
  C   C103      1.0  0.25401  0.23344  0.01929  1.0000
  C   C104      1.0  0.26929  0.23905  0.03150  1.0000
  C   C105      1.0  0.27214  0.22038  0.03816  1.0000
  H   H62       1.0  0.30905  0.00319  0.02339  1.0000
  H   H63       1.0  0.12955  0.04662  0.21923  1.0000
  H   H64       1.0  0.22262  0.18089  0.05018  1.0000
  H   H65       1.0  0.25176  0.24803  0.01426  1.0000
  H   H66       1.0  0.27861  0.25786  0.03601  1.0000
  H   H67       1.0  0.28359  0.22516  0.04783  1.0000
  C   C106      1.0  0.19193  0.00656  0.04831  1.0000
  C   C107      1.0  0.21828  0.99596  0.12429  1.0000
  S   S23       1.0  0.99021  0.31521  0.01386  1.0000
  H   H68       1.0  0.28796  0.11015  0.14355  1.0000
  C   C108      1.0  0.29257  0.29663  0.99325  1.0000
  H   H69       1.0  0.00574  0.17969  0.01643  1.0000
  H   H70       1.0  0.06589  0.27246  0.98701  1.0000
  H   H71       1.0  0.17325  0.14585  0.22874  1.0000
  C   C109      1.0  0.06542  0.00383  0.23347  1.0000
  S   S24       1.0  0.05167  0.48263  0.09052  1.0000
  H   H72       1.0  0.21058  0.32670  0.01564  1.0000
  H   H73       1.0  0.03486  0.49071  0.20960  1.0000
  S   S25       1.0  0.99931  0.25303  0.07234  1.0000
  H   H74       1.0  0.00595  0.36103  0.10994  1.0000
  H   H75       1.0  0.22116  0.40095  0.02132  1.0000
  C   C110      1.0  0.04464  0.21174  0.17495  1.0000
  H   H76       1.0  0.99286  0.20171  0.11300  1.0000
  C   C111      1.0  0.16432  0.14747  0.21907  1.0000
  H   H77       1.0  0.30047  0.40928  0.06888  1.0000
  H   H78       1.0  0.13443  0.31763  0.00971  1.0000
  C   C112      1.0  0.29169  0.01861  0.11142  1.0000
  C   C113      1.0  0.00674  0.16999  0.16044  1.0000
  H   H79       1.0  0.23351  0.36884  0.02673  1.0000
  C   C114      1.0  0.03619  0.32737  0.10516  1.0000
  H   H80       1.0  0.05355  0.99299  0.21153  1.0000
  H   H81       1.0  0.01694  0.22298  0.17894  1.0000
  H   H82       1.0  0.23709  0.11649  0.03760  1.0000
  C   C115      1.0  0.24452  0.04855  0.00539  1.0000
  H   H83       1.0  0.19230  0.16285  0.06852  1.0000
  C   C116      1.0  0.11164  0.03467  0.22323  1.0000
  H   H84       1.0  0.26511  0.07367  0.06053  1.0000
  H   H85       1.0  0.99500  0.14743  0.99736  1.0000
  C   C117      1.0  0.30469  0.33419  0.10433  1.0000
  C   C118      1.0  0.00985  0.22010  0.03298  1.0000
  H   H86       1.0  0.03910  0.43194  0.23125  1.0000
  C   C119      1.0  0.28404  0.33418  0.16117  1.0000
  H   H87       1.0  0.28665  0.27252  0.09896  1.0000
  H   H88       1.0  0.27571  0.07948  0.16212  1.0000
  H   H89       1.0  0.23021  0.06686  0.04246  1.0000
  H   H90       1.0  0.05399  0.32843  0.10743  1.0000
  C   C120      1.0  0.20497  0.34054  0.01308  1.0000
  C   C121      1.0  0.27463  0.99815  0.22406  1.0000
  C   C122      1.0  0.29319  0.18580  0.05060  1.0000
  H   H91       1.0  0.28478  0.09649  0.11817  1.0000
  H   H92       1.0  0.01048  0.13125  0.13041  1.0000
  C   C123      1.0  0.99064  0.32540  0.09833  1.0000
  C   C124      1.0  0.26636  0.04830  0.14735  1.0000
  C   C125      1.0  0.28015  0.08312  0.12635  1.0000
  S   S26       1.0  0.00155  0.31372  0.05456  1.0000
  C   C126      1.0  0.22951  0.01095  0.03826  1.0000
  H   H93       1.0  0.01230  0.01570  0.11140  1.0000
  H   H94       1.0  0.05928  0.22787  0.18053  1.0000
  C   C127      1.0  0.30868  0.13122  0.04042  1.0000
  H   H95       1.0  0.28112  0.32946  0.17220  1.0000
  C   C128      1.0  0.98732  0.17093  0.01160  1.0000
  H   H96       1.0  0.18889  0.26857  0.99209  1.0000
  C   C129      1.0  0.12439  0.30425  0.00112  1.0000
  C   C130      1.0  0.00874  0.34550  0.10660  1.0000
  H   H97       1.0  0.31250  0.15173  0.06014  1.0000
  C   C131      1.0  0.27543  0.15853  0.01495  1.0000
  C   C132      1.0  0.29083  0.99536  0.08996  1.0000
  H   H98       1.0  0.18312  0.99130  0.08881  1.0000
  C   C133      1.0  0.28187  0.09080  0.14062  1.0000
  H   H99       1.0  0.29997  0.15943  0.15499  1.0000
  C   C134      1.0  0.22384  0.04714  0.04270  1.0000
  C   C135      1.0  0.00620  0.08242  0.14859  1.0000
  C   C136      1.0  0.27495  0.14195  0.00424  1.0000
  C   C137      1.0  0.06894  0.00430  0.21887  1.0000
  C   C138      1.0  0.13621  0.29471  0.99220  1.0000
  H   H100      1.0  0.03867  0.45215  0.20885  1.0000
  C   C139      1.0  0.26109  0.11646  0.00567  1.0000
  C   C140      1.0  0.29782  0.00019  0.22169  1.0000
  H   H101      1.0  0.06128  0.25441  0.01471  1.0000
  H   H102      1.0  0.08008  0.26429  0.03906  1.0000
  H   H103      1.0  0.28567  0.17821  0.01340  1.0000
  C   C141      1.0  0.01842  0.30750  0.09680  1.0000
  H   H104      1.0  0.23391  0.17135  0.01611  1.0000
  C   C142      1.0  0.17193  0.24742  0.02496  1.0000
  C   C143      1.0  0.06061  0.25159  0.03736  1.0000
  H   H105      1.0  0.23798  0.99892  0.98651  1.0000
  C   C144      1.0  0.26237  0.14977  0.02734  1.0000
  H   H106      1.0  0.19191  0.12975  0.08309  1.0000
  H   H107      1.0  0.24033  0.00234  0.03456  1.0000
  H   H108      1.0  0.00958  0.21900  0.05594  1.0000
  P   P4        1.0  0.25099  0.00784  0.12781  1.0000
  C   C145      1.0  0.04595  0.24154  0.04894  1.0000
  H   H109      1.0  0.22757  0.04101  0.01099  1.0000
  C   C146      1.0  0.04996  0.24605  0.02360  1.0000
  C   C147      1.0  0.19146  0.37698  0.00666  1.0000
  C   C148      1.0  0.24749  0.10754  0.01774  1.0000
  H   H110      1.0  0.04556  0.36233  0.11595  1.0000
  C   C149      1.0  0.30184  0.15677  0.16615  1.0000
  H   H111      1.0  0.09470  0.02026  0.20240  1.0000
  C   C150      1.0  0.21684  0.99711  0.07941  1.0000
  H   H112      1.0  0.18968  0.04031  0.05197  1.0000
  H   H113      1.0  0.03511  0.15930  0.15644  1.0000
  H   H114      1.0  0.31119  0.32165  0.15879  1.0000
  H   H115      1.0  0.28371  0.02262  0.01646  1.0000
  C   C151      1.0  0.31726  0.04300  0.23084  1.0000
  H   H116      1.0  0.29538  0.05682  0.05865  1.0000
  C   C152      1.0  0.29869  0.04575  0.05072  1.0000
  H   H117      1.0  0.06813  0.19590  0.16922  1.0000
  C   C153      1.0  0.29489  0.18805  0.06553  1.0000
  H   H118      1.0  0.29880  0.40386  0.11622  1.0000
  H   H119      1.0  0.13492  0.48305  0.08664  1.0000
  H   H120      1.0  0.03923  0.02905  0.19805  1.0000
  C   C154      1.0  0.20617  0.99598  0.04327  1.0000
  P   P5        1.0  0.26910  0.05599  0.03191  1.0000
  P   P6        1.0  0.26346  0.17167  0.04113  1.0000
  H   H121      1.0  0.06199  0.01119  0.14935  1.0000
  H   H122      1.0  0.98697  0.07002  0.16788  1.0000
  H   H123      1.0  0.30902  0.14770  0.20637  1.0000
  H   H124      1.0  0.30023  0.99198  0.08124  1.0000
  H   H125      1.0  0.26944  0.05237  0.11140  1.0000
  C   C155      1.0  0.26736  0.05724  0.01277  1.0000
  H   H126      1.0  0.30219  0.03326  0.11935  1.0000
  H   H127      1.0  0.99641  0.37580  0.05271  1.0000
  C   C156      1.0  0.03766  0.44892  0.23159  1.0000
  H   H128      1.0  0.31588  0.28865  0.07969  1.0000
  C   C157      1.0  0.18477  0.33463  0.00368  1.0000
  C   C158      1.0  0.18207  0.25008  0.01162  1.0000
  C   C159      1.0  0.30667  0.01553  0.03095  1.0000
  C   C160      1.0  0.30386  0.13371  0.05462  1.0000
  H   H129      1.0  0.05403  0.24656  0.05965  1.0000
  H   H130      1.0  0.16361  0.34934  0.99257  1.0000
  H   H131      1.0  0.26988  0.12062  0.19271  1.0000
  C   C161      1.0  0.20489  0.13700  0.07473  1.0000
  H   H132      1.0  0.19134  0.23949  0.00857  1.0000
  H   H133      1.0  0.10513  0.47493  0.10553  1.0000
  C   C162      1.0  0.28498  0.13497  0.18740  1.0000
  C   C163      1.0  0.30464  0.33573  0.13936  1.0000
  C   C164      1.0  0.15973  0.27874  0.01986  1.0000
  C   C165      1.0  0.29681  0.29234  0.09770  1.0000
  C   C166      1.0  0.29234  0.30863  0.10638  1.0000
  H   H134      1.0  0.26061  0.03517  0.15564  1.0000
  C   C167      1.0  0.16077  0.26176  0.02907  1.0000
  C   C168      1.0  0.25983  0.19587  0.03256  1.0000
  H   H135      1.0  0.28515  0.14890  0.99475  1.0000
  C   C169      1.0  0.22211  0.12852  0.07263  1.0000
  H   H136      1.0  0.22239  0.11451  0.07930  1.0000
  C   C170      1.0  0.03973  0.00358  0.11422  1.0000
  C   C171      1.0  0.02067  0.22585  0.04678  1.0000
  C   C172      1.0  0.28755  0.06617  0.99022  1.0000
  H   H137      1.0  0.21955  0.03193  0.12470  1.0000
  C   C173      1.0  0.23961  0.15726  0.05374  1.0000
  C   C174      1.0  0.23946  0.13868  0.06224  1.0000
  C   C175      1.0  0.24413  0.19023  0.02040  1.0000
  C   C176      1.0  0.31303  0.03447  0.05461  1.0000
  H   H138      1.0  0.01652  0.22725  0.01073  1.0000
  C   C177      1.0  0.03136  0.34638  0.11004  1.0000
  H   H139      1.0  0.28412  0.11467  0.07279  1.0000
  C   C178      1.0  0.99403  0.28964  0.98948  1.0000
  C   C179      1.0  0.99590  0.30670  0.09318  1.0000
  H   H140      1.0  0.99879  0.19151  0.13732  1.0000
  C   C180      1.0  0.01261  0.09960  0.13801  1.0000
  C   C181      1.0  0.28802  0.11288  0.06176  1.0000
  C   C182      1.0  0.31497  0.19582  0.04311  1.0000
  H   H141      1.0  0.02240  0.29305  0.09279  1.0000
  H   H142      1.0  0.31439  0.19522  0.03166  1.0000
  C   C183      1.0  0.30717  0.15031  0.19520  1.0000
  C   C184      1.0  0.28886  0.06597  0.00505  1.0000
  H   H143      1.0  0.18616  0.39107  0.00421  1.0000
  C   C185      1.0  0.27497  0.07341  0.15111  1.0000
  C   C186      1.0  0.30390  0.01448  0.10015  1.0000
  H   H144      1.0  0.22930  0.20470  0.00439  1.0000
  C   C187      1.0  0.26622  0.00361  0.11257  1.0000
  H   H145      1.0  0.30661  0.07203  0.01047  1.0000
  C   C188      1.0  0.18097  0.26701  0.00235  1.0000
  H   H146      1.0  0.17428  0.99491  0.05271  1.0000
  H   H147      1.0  0.98820  0.17094  0.04905  1.0000
  H   H148      1.0  0.99356  0.36700  0.07810  1.0000
  H   H149      1.0  0.25471  0.01695  0.23161  1.0000
  C   C189      1.0  0.31710  0.01945  0.04472  1.0000
  H   H150      1.0  0.21863  0.31294  0.98993  1.0000
  C   C190      1.0  0.31744  0.40645  0.11678  1.0000
  C   C191      1.0  0.98513  0.18249  0.11572  1.0000
  Fe  Fe14      1.0  0.01646  0.31103  0.43453  1.0000
  S   S27       1.0  0.01403  0.28122  0.41876  1.0000
  S   S28       1.0  0.01185  0.30366  0.45856  1.0000
  Fe  Fe15      1.0  0.03462  0.35081  0.41160  1.0000
  S   S29       1.0  0.03354  0.32345  0.39474  1.0000
  S   S30       1.0  0.05025  0.39290  0.40882  1.0000
  Fe  Fe16      1.0  0.99712  0.29686  0.40338  1.0000
  C   C192      1.0  0.12957  0.18486  0.38569  1.0000
  Fe  Fe17      1.0  0.05087  0.30972  0.41133  1.0000
  S   S31       1.0  0.08048  0.29944  0.40370  1.0000
  S   S32       1.0  0.99715  0.32510  0.41955  1.0000
  S   S33       1.0  0.05433  0.33875  0.42775  1.0000
  Fe  Fe18      1.0  0.26700  0.31376  0.43188  1.0000
  S   S34       1.0  0.23006  0.28469  0.42256  1.0000
  S   S35       1.0  0.28735  0.30752  0.45117  1.0000
  Fe  Fe19      1.0  0.27359  0.34942  0.40744  1.0000
  S   S36       1.0  0.23662  0.32255  0.39713  1.0000
  C   C193      1.0  0.29830  0.20101  0.33079  1.0000
  Fe  Fe20      1.0  0.22163  0.31640  0.41900  1.0000
  S   S37       1.0  0.18658  0.31646  0.42726  1.0000
  Fe  Fe21      1.0  0.24754  0.29269  0.40135  1.0000
  S   S38       1.0  0.24098  0.26475  0.38272  1.0000
  S   S39       1.0  0.25790  0.34514  0.42931  1.0000
  S   S40       1.0  0.28517  0.31987  0.41057  1.0000
  S   S41       1.0  0.04193  0.46229  0.36118  1.0000
  H   H151      1.0  0.07039  0.26883  0.43043  1.0000
  H   H152      1.0  0.15746  0.23323  0.43302  1.0000
  S   S42       1.0  0.00050  0.02740  0.30055  1.0000
  Fe  Fe22      1.0  0.22761  0.12919  0.36116  1.0000
  S   S43       1.0  0.22428  0.13187  0.33757  1.0000
  S   S44       1.0  0.23770  0.15849  0.37943  1.0000
  Fe  Fe23      1.0  0.21439  0.07373  0.35826  1.0000
  S   S45       1.0  0.20959  0.07233  0.33430  1.0000
  S   S46       1.0  0.20440  0.04123  0.37282  1.0000
  Fe  Fe24      1.0  0.24432  0.10928  0.33542  1.0000
  S   S47       1.0  0.27786  0.11752  0.32208  1.0000
  Fe  Fe25      1.0  0.18969  0.09489  0.33791  1.0000
  S   S48       1.0  0.15555  0.09242  0.32599  1.0000
  S   S49       1.0  0.25013  0.10902  0.35922  1.0000
  S   S50       1.0  0.19200  0.09380  0.36162  1.0000
  C   C194      1.0  0.27552  0.14311  0.29848  1.0000
  C   C195      1.0  0.28926  0.13480  0.30660  1.0000
  H   H153      1.0  0.25578  0.26267  0.43781  1.0000
  H   H154      1.0  0.25729  0.13899  0.30159  1.0000
  C   C196      1.0  0.07660  0.02736  0.31942  1.0000
  C   C197      1.0  0.08163  0.05170  0.31695  1.0000
  C   C198      1.0  0.10583  0.07134  0.31909  1.0000
  C   C199      1.0  0.12519  0.06705  0.32407  1.0000
  C   C200      1.0  0.12003  0.04278  0.32686  1.0000
  C   C201      1.0  0.09593  0.02309  0.32445  1.0000
  H   H155      1.0  0.06692  0.05533  0.31329  1.0000
  H   H156      1.0  0.10956  0.09002  0.31691  1.0000
  H   H157      1.0  0.13468  0.03913  0.33067  1.0000
  H   H158      1.0  0.99756  0.21018  0.42032  1.0000
  H   H159      1.0  0.11268  0.17686  0.35671  1.0000
  C   C202      1.0  0.04704  0.03810  0.25465  1.0000
  C   C203      1.0  0.20418  0.38134  0.41657  1.0000
  C   C204      1.0  0.18066  0.47684  0.43513  1.0000
  C   C205      1.0  0.21149  0.00689  0.38779  1.0000
  C   C206      1.0  0.22149  0.02581  0.37804  1.0000
  C   C207      1.0  0.24469  0.03200  0.37289  1.0000
  C   C208      1.0  0.25754  0.01925  0.37733  1.0000
  C   C209      1.0  0.20599  0.27043  0.45524  1.0000
  H   H160      1.0  0.04442  0.02920  0.24425  1.0000
  H   H161      1.0  0.25267  0.04652  0.36543  1.0000
  C   C210      1.0  0.26750  0.22406  0.48507  1.0000
  C   C211      1.0  0.24002  0.23515  0.38212  1.0000
  C   C212      1.0  0.24174  0.22365  0.39438  1.0000
  C   C213      1.0  0.24076  0.20013  0.39332  1.0000
  C   C214      1.0  0.23786  0.18769  0.38005  1.0000
  C   C215      1.0  0.23546  0.19887  0.36781  1.0000
  C   C216      1.0  0.23670  0.22251  0.36887  1.0000
  H   H162      1.0  0.24379  0.23288  0.40465  1.0000
  H   H163      1.0  0.24225  0.19145  0.40285  1.0000
  H   H164      1.0  0.23281  0.18941  0.35754  1.0000
  H   H165      1.0  0.23503  0.23107  0.35935  1.0000
  C   C217      1.0  0.04577  0.41167  0.39597  1.0000
  C   C218      1.0  0.05873  0.43768  0.39798  1.0000
  C   C219      1.0  0.05792  0.45346  0.38754  1.0000
  C   C220      1.0  0.04367  0.44346  0.37493  1.0000
  C   C221      1.0  0.03019  0.41743  0.37305  1.0000
  C   C222      1.0  0.03118  0.40166  0.38346  1.0000
  H   H166      1.0  0.06953  0.44574  0.40771  1.0000
  H   H167      1.0  0.06824  0.47336  0.38928  1.0000
  H   H168      1.0  0.01898  0.40939  0.36341  1.0000
  H   H169      1.0  0.02084  0.38178  0.38172  1.0000
  C   C223      1.0  0.11028  0.30514  0.41036  1.0000
  C   C224      1.0  0.12553  0.30011  0.40135  1.0000
  C   C225      1.0  0.14902  0.30380  0.40617  1.0000
  C   C226      1.0  0.15743  0.31207  0.42023  1.0000
  C   C227      1.0  0.14212  0.31696  0.42923  1.0000
  C   C228      1.0  0.11888  0.31380  0.42433  1.0000
  H   H170      1.0  0.11914  0.29333  0.39053  1.0000
  H   H171      1.0  0.16046  0.29992  0.39908  1.0000
  H   H172      1.0  0.14830  0.32317  0.44013  1.0000
  H   H173      1.0  0.10744  0.31765  0.43143  1.0000
  H   H174      1.0  0.99672  0.27457  0.33934  1.0000
  H   H175      1.0  0.04733  0.99191  0.23727  1.0000
  C   C229      1.0  0.26811  0.24842  0.32603  1.0000
  H   H176      1.0  0.21127  0.16354  0.28133  1.0000
  H   H177      1.0  0.01301  0.25486  0.45926  1.0000
  H   H178      1.0  0.19611  0.23211  0.39870  1.0000
  H   H179      1.0  0.25579  0.31473  0.47192  1.0000
  C   C230      1.0  0.27963  0.21745  0.42491  1.0000
  C   C231      1.0  0.29981  0.25244  0.34324  1.0000
  H   H180      1.0  0.09476  0.45739  0.36581  1.0000
  H   H181      1.0  0.16759  0.43573  0.40718  1.0000
  H   H182      1.0  0.06174  0.34404  0.35708  1.0000
  C   C232      1.0  0.17458  0.42909  0.42879  1.0000
  C   C233      1.0  0.28917  0.17762  0.35223  1.0000
  H   H183      1.0  0.18285  0.42895  0.45126  1.0000
  H   H184      1.0  0.05171  0.36847  0.37474  1.0000
  C   C234      1.0  0.21828  0.42499  0.41330  1.0000
  H   H185      1.0  0.27921  0.17197  0.36189  1.0000
  C   C235      1.0  0.18338  0.38068  0.44874  1.0000
  H   H186      1.0  0.07540  0.04558  0.28728  1.0000
  H   H187      1.0  0.27430  0.16248  0.27993  1.0000
  H   H188      1.0  0.27067  0.11900  0.40113  1.0000
  C   C236      1.0  0.17459  0.11901  0.38839  1.0000
  C   C237      1.0  0.15437  0.10084  0.39495  1.0000
  C   C238      1.0  0.13143  0.10017  0.39348  1.0000
  C   C239      1.0  0.12866  0.11744  0.38526  1.0000
  C   C240      1.0  0.14870  0.13507  0.37813  1.0000
  C   C241      1.0  0.17179  0.13609  0.38000  1.0000
  P   P7        1.0  0.14519  0.15773  0.36792  1.0000
  C   C242      1.0  0.11597  0.14324  0.35804  1.0000
  C   C243      1.0  0.14959  0.18243  0.38055  1.0000
  C   C244      1.0  0.07518  0.36296  0.36004  1.0000
  C   C245      1.0  0.17436  0.23947  0.43938  1.0000
  H   H189      1.0  0.25597  0.04393  0.40580  1.0000
  H   H190      1.0  0.11088  0.17156  0.38246  1.0000
  C   C246      1.0  0.12820  0.48847  0.40475  1.0000
  C   C247      1.0  0.03497  0.23829  0.42426  1.0000
  H   H191      1.0  0.11637  0.47955  0.42611  1.0000
  H   H192      1.0  0.08811  0.37341  0.40370  1.0000
  H   H193      1.0  0.05610  0.27898  0.45290  1.0000
  C   C248      1.0  0.10584  0.11829  0.35318  1.0000
  C   C249      1.0  0.16726  0.16907  0.35419  1.0000
  C   C250      1.0  0.17106  0.15224  0.34551  1.0000
  C   C251      1.0  0.18637  0.16052  0.33401  1.0000
  C   C252      1.0  0.19826  0.18567  0.33119  1.0000
  C   C253      1.0  0.19440  0.20251  0.33970  1.0000
  C   C254      1.0  0.17876  0.19425  0.35106  1.0000
  H   H194      1.0  0.19247  0.11974  0.38966  1.0000
  H   H195      1.0  0.15656  0.08730  0.40114  1.0000
  H   H196      1.0  0.11576  0.08615  0.39862  1.0000
  H   H197      1.0  0.11083  0.11686  0.38432  1.0000
  H   H198      1.0  0.18762  0.14995  0.37492  1.0000
  C   C255      1.0  0.11856  0.43918  0.40128  1.0000
  H   H199      1.0  0.22533  0.03792  0.42639  1.0000
  H   H200      1.0  0.25030  0.18981  0.43625  1.0000
  C   C256      1.0  0.30873  0.16130  0.28170  1.0000
  C   C257      1.0  0.01901  0.24945  0.44969  1.0000
  H   H201      1.0  0.02561  0.07204  0.27320  1.0000
  C   C258      1.0  0.15375  0.35531  0.46551  1.0000
  C   C259      1.0  0.03422  0.05138  0.25748  1.0000
  H   H202      1.0  0.11514  0.10743  0.35546  1.0000
  H   H203      1.0  0.16186  0.13261  0.34743  1.0000
  H   H204      1.0  0.18870  0.14727  0.32720  1.0000
  H   H205      1.0  0.21028  0.19205  0.32236  1.0000
  H   H206      1.0  0.20351  0.22202  0.33752  1.0000
  H   H207      1.0  0.17563  0.20760  0.35727  1.0000
  C   C260      1.0  0.05148  0.06069  0.28154  1.0000
  C   C261      1.0  0.03632  0.06256  0.27092  1.0000
  C   C262      1.0  0.30799  0.02580  0.43796  1.0000
  H   H208      1.0  0.18911  0.19694  0.38235  1.0000
  C   C263      1.0  0.06241  0.03615  0.26526  1.0000
  C   C264      1.0  0.06425  0.04733  0.27878  1.0000
  P   P8        1.0  0.07938  0.01919  0.26187  1.0000
  H   H209      1.0  0.28981  0.13025  0.42554  1.0000
  C   C265      1.0  0.10782  0.03469  0.27255  1.0000
  C   C266      1.0  0.11528  0.02127  0.28153  1.0000
  C   C267      1.0  0.13574  0.03370  0.29092  1.0000
  C   C268      1.0  0.14893  0.05954  0.29143  1.0000
  C   C269      1.0  0.14182  0.07301  0.28244  1.0000
  C   C270      1.0  0.12139  0.06068  0.27301  1.0000
  C   C271      1.0  0.01038  0.22446  0.42779  1.0000
  C   C272      1.0  0.17512  0.46696  0.42117  1.0000
  H   H210      1.0  0.19253  0.36644  0.46729  1.0000
  C   C273      1.0  0.11492  0.44812  0.41434  1.0000
  C   C274      1.0  0.21020  0.45117  0.38043  1.0000
  S   S51       1.0  0.04674  0.00160  0.31628  1.0000
  C   C275      1.0  0.20029  0.00023  0.43005  1.0000
  H   H211      1.0  0.25716  0.99353  0.44279  1.0000
  C   C276      1.0  0.18043  0.43924  0.44278  1.0000
  H   H212      1.0  0.29191  0.09860  0.44020  1.0000
  C   C277      1.0  0.30025  0.06815  0.48181  1.0000
  H   H213      1.0  0.25381  0.07583  0.39141  1.0000
  C   C278      1.0  0.04354  0.26330  0.44609  1.0000
  C   C279      1.0  0.17195  0.44314  0.41802  1.0000
  C   C280      1.0  0.27461  0.06885  0.42403  1.0000
  C   C281      1.0  0.98840  0.44420  0.29144  1.0000
  C   C282      1.0  0.26240  0.26362  0.33490  1.0000
  H   H214      1.0  0.99567  0.20632  0.46967  1.0000
  H   H215      1.0  0.16429  0.06915  0.29905  1.0000
  H   H216      1.0  0.15178  0.09307  0.28314  1.0000
  C   C283      1.0  0.99375  0.28973  0.48527  1.0000
  C   C284      1.0  0.27518  0.27300  0.34796  1.0000
  H   H217      1.0  0.30340  0.27439  0.36239  1.0000
  H   H218      1.0  0.14097  0.02339  0.29817  1.0000
  H   H219      1.0  0.16305  0.46708  0.34870  1.0000
  H   H220      1.0  0.11564  0.07143  0.26645  1.0000
  C   C285      1.0  0.31748  0.17507  0.33577  1.0000
  H   H221      1.0  0.12347  0.04620  0.24499  1.0000
  H   H222      1.0  0.98576  0.29723  0.35771  1.0000
  H   H223      1.0  0.02182  0.05220  0.24940  1.0000
  H   H224      1.0  0.21488  0.14769  0.30472  1.0000
  C   C286      1.0  0.12488  0.38517  0.41235  1.0000
  H   H225      1.0  0.10764  0.43569  0.42297  1.0000
  H   H226      1.0  0.28618  0.20480  0.42109  1.0000
  C   C287      1.0  0.17749  0.21884  0.39514  1.0000
  P   P9        1.0  0.27495  0.04491  0.43480  1.0000
  H   H227      1.0  0.13302  0.40639  0.35287  1.0000
  H   H228      1.0  0.29208  0.05646  0.23754  1.0000
  H   H229      1.0  0.31418  0.24809  0.34672  1.0000
  H   H230      1.0  0.10500  0.00130  0.28167  1.0000
  C   C288      1.0  0.30169  0.03538  0.41398  1.0000
  H   H231      1.0  0.30406  0.02468  0.44912  1.0000
  H   H232      1.0  0.11611  0.34672  0.46074  1.0000
  C   C289      1.0  0.24020  0.42709  0.40802  1.0000
  C   C290      1.0  0.08229  0.14605  0.34572  1.0000
  C   C291      1.0  0.12834  0.35533  0.39045  1.0000
  H   H233      1.0  0.29209  0.27769  0.42323  1.0000
  H   H234      1.0  0.21580  0.44134  0.41402  1.0000
  H   H235      1.0  0.14954  0.34487  0.47505  1.0000
  C   C292      1.0  0.16452  0.38148  0.44044  1.0000
  C   C293      1.0  0.14026  0.36936  0.44498  1.0000
  C   C294      1.0  0.13494  0.35634  0.45745  1.0000
  C   C295      1.0  0.24152  0.99571  0.43914  1.0000
  H   H236      1.0  0.26110  0.40799  0.40297  1.0000
  H   H237      1.0  0.03548  0.45011  0.25430  1.0000
  C   C296      1.0  0.14810  0.36797  0.40026  1.0000
  H   H238      1.0  0.20675  0.19040  0.42112  1.0000
  P   P10       1.0  0.17152  0.39877  0.42445  1.0000
  H   H239      1.0  0.05278  0.06903  0.29203  1.0000
  H   H240      1.0  0.12529  0.36956  0.43888  1.0000
  H   H241      1.0  0.16412  0.36525  0.39933  1.0000
  H   H242      1.0  0.12924  0.34296  0.38229  1.0000
  C   C297      1.0  0.18332  0.46299  0.44593  1.0000
  H   H243      1.0  0.10244  0.36321  0.34607  1.0000
  H   H244      1.0  0.19046  0.36350  0.41987  1.0000
  C   C298      1.0  0.29147  0.24218  0.42118  1.0000
  C   C299      1.0  0.28572  0.19387  0.34347  1.0000
  H   H245      1.0  0.31217  0.06549  0.28358  1.0000
  H   H246      1.0  0.17507  0.27368  0.44646  1.0000
  C   C300      1.0  0.26249  0.08081  0.40200  1.0000
  C   C301      1.0  0.30858  0.07288  0.45679  1.0000
  H   H247      1.0  0.25774  0.24109  0.31607  1.0000
  C   C302      1.0  0.12674  0.45465  0.38980  1.0000
  C   C303      1.0  0.18959  0.42787  0.38080  1.0000
  C   C304      1.0  0.25914  0.20898  0.43338  1.0000
  H   H248      1.0  0.27062  0.22026  0.46270  1.0000
  C   C305      1.0  0.28267  0.11141  0.42125  1.0000
  C   C306      1.0  0.29645  0.29254  0.47714  1.0000
  C   C307      1.0  0.25020  0.22519  0.43805  1.0000
  H   H249      1.0  0.12304  0.39642  0.42085  1.0000
  C   C308      1.0  0.14654  0.38302  0.41132  1.0000
  C   C309      1.0  0.11973  0.47278  0.41608  1.0000
  C   C310      1.0  0.10809  0.03441  0.23786  1.0000
  C   C311      1.0  0.19810  0.17652  0.42892  1.0000
  H   H250      1.0  0.98970  0.44207  0.30275  1.0000
  C   C312      1.0  0.17795  0.36748  0.46115  1.0000
  H   H251      1.0  0.04106  0.23471  0.41417  1.0000
  C   C313      1.0  0.98860  0.29495  0.47149  1.0000
  H   H252      1.0  0.17858  0.20763  0.43366  1.0000
  H   H253      1.0  0.21381  0.28825  0.46098  1.0000
  C   C314      1.0  0.28907  0.00202  0.48232  1.0000
  C   C315      1.0  0.12966  0.46107  0.35897  1.0000
  H   H254      1.0  0.02295  0.47687  0.29174  1.0000
  C   C316      1.0  0.26620  0.30708  0.47732  1.0000
  H   H255      1.0  0.19190  0.41176  0.38300  1.0000
  H   H256      1.0  0.16088  0.23771  0.40658  1.0000
  H   H257      1.0  0.17309  0.47769  0.41278  1.0000
  H   H258      1.0  0.27540  0.02412  0.37321  1.0000
  C   C317      1.0  0.17516  0.14028  0.44866  1.0000
  C   C318      1.0  0.17019  0.13413  0.43411  1.0000
  C   C319      1.0  0.18161  0.15229  0.42426  1.0000
  C   C320      1.0  0.20327  0.18283  0.44352  1.0000
  C   C321      1.0  0.19159  0.16460  0.45338  1.0000
  C   C322      1.0  0.20855  0.23322  0.44796  1.0000
  Fe  Fe26      1.0  0.00971  0.99804  0.30807  1.0000
  C   C323      1.0  0.28520  0.15628  0.28614  1.0000
  P   P11       1.0  0.22409  0.21444  0.44924  1.0000
  H   H259      1.0  0.29272  0.04140  0.40622  1.0000
  H   H260      1.0  0.23521  0.26283  0.46194  1.0000
  C   C324      1.0  0.26222  0.24990  0.43428  1.0000
  H   H261      1.0  0.16628  0.12620  0.45630  1.0000
  H   H262      1.0  0.15748  0.11531  0.43046  1.0000
  H   H263      1.0  0.19516  0.16903  0.46467  1.0000
  C   C325      1.0  0.20009  0.40204  0.41767  1.0000
  C   C326      1.0  0.22870  0.16583  0.30178  1.0000
  H   H264      1.0  0.09225  0.00438  0.32648  1.0000
  C   C327      1.0  0.22375  0.02057  0.42985  1.0000
  H   H265      1.0  0.17776  0.14769  0.41299  1.0000
  H   H266      1.0  0.20203  0.21540  0.47626  1.0000
  C   C328      1.0  0.10443  0.15724  0.35387  1.0000
  C   C329      1.0  0.22670  0.17475  0.28861  1.0000
  H   H267      1.0  0.30528  0.01905  0.48018  1.0000
  C   C330      1.0  0.23493  0.21693  0.46755  1.0000
  C   C331      1.0  0.24887  0.18004  0.31107  1.0000
  C   C332      1.0  0.20721  0.47203  0.37793  1.0000
  C   C333      1.0  0.24464  0.01837  0.43417  1.0000
  C   C334      1.0  0.26761  0.04488  0.46409  1.0000
  C   C335      1.0  0.26385  0.06278  0.41019  1.0000
  H   H268      1.0  0.15027  0.40727  0.37923  1.0000
  H   H269      1.0  0.11454  0.42007  0.40006  1.0000
  C   C336      1.0  0.24474  0.19800  0.28480  1.0000
  C   C337      1.0  0.16289  0.44611  0.37539  1.0000
  S   S52       1.0  0.29389  0.38805  0.39781  1.0000
  H   H270      1.0  0.24331  0.20485  0.27454  1.0000
  C   C338      1.0  0.07190  0.12100  0.34135  1.0000
  C   C339      1.0  0.28678  0.24257  0.33019  1.0000
  C   C340      1.0  0.11547  0.39813  0.35787  1.0000
  C   C341      1.0  0.10506  0.37224  0.40262  1.0000
  H   H271      1.0  0.25436  0.44481  0.40480  1.0000
  H   H272      1.0  0.27290  0.20046  0.34653  1.0000
  C   C342      1.0  0.28394  0.09336  0.42952  1.0000
  C   C343      1.0  0.13364  0.20473  0.39508  1.0000
  H   H273      1.0  0.05481  0.11235  0.33498  1.0000
  C   C344      1.0  0.26727  0.20317  0.30725  1.0000
  H   H274      1.0  0.11822  0.20699  0.39874  1.0000
  P   P12       1.0  0.13247  0.44330  0.37315  1.0000
  C   C345      1.0  0.15762  0.22192  0.39963  1.0000
  C   C346      1.0  0.28406  0.05548  0.45319  1.0000
  C   C347      1.0  0.29646  0.03478  0.42842  1.0000
  C   C348      1.0  0.18413  0.26219  0.44707  1.0000
  C   C349      1.0  0.26488  0.21226  0.29412  1.0000
  C   C350      1.0  0.18651  0.22504  0.43977  1.0000
  C   C351      1.0  0.12431  0.48873  0.33724  1.0000
  H   H275      1.0  0.08191  0.41155  0.38138  1.0000
  H   H276      1.0  0.27028  0.28420  0.35504  1.0000
  C   C352      1.0  0.28286  0.25842  0.42596  1.0000
  C   C353      1.0  0.06952  0.37667  0.37002  1.0000
  H   H277      1.0  0.09106  0.34646  0.38455  1.0000
  H   H278      1.0  0.07614  0.08795  0.34125  1.0000
  C   C354      1.0  0.08381  0.10721  0.34497  1.0000
  C   C355      1.0  0.05155  0.25764  0.43342  1.0000
  C   C356      1.0  0.00233  0.22965  0.44067  1.0000
  H   H279      1.0  0.27872  0.23022  0.29101  1.0000
  C   C357      1.0  0.27577  0.05112  0.47833  1.0000
  C   C358      1.0  0.10679  0.35733  0.39170  1.0000
  C   C359      1.0  0.25863  0.22012  0.47092  1.0000
  C   C360      1.0  0.16600  0.42536  0.37843  1.0000
  C   C361      1.0  0.09812  0.37374  0.35391  1.0000
  C   C362      1.0  0.21814  0.25604  0.45568  1.0000
  C   C363      1.0  0.28270  0.30197  0.46973  1.0000
  C   C364      1.0  0.03369  0.48125  0.24512  1.0000
  C   C365      1.0  0.18363  0.46957  0.37557  1.0000
  H   H280      1.0  0.22912  0.36742  0.41054  1.0000
  H   H281      1.0  0.07330  0.15685  0.34263  1.0000
  H   H282      1.0  0.04928  0.99851  0.28633  1.0000
  C   C366      1.0  0.11014  0.41174  0.36821  1.0000
  H   H283      1.0  0.18773  0.47070  0.45675  1.0000
  C   C367      1.0  0.24741  0.00011  0.38692  1.0000
  C   C368      1.0  0.10894  0.46495  0.35811  1.0000
  C   C369      1.0  0.14732  0.47048  0.34858  1.0000
  C   C370      1.0  0.22434  0.99410  0.39222  1.0000
  C   C371      1.0  0.24407  0.40635  0.40700  1.0000
  C   C372      1.0  0.08682  0.40104  0.37395  1.0000
  C   C373      1.0  0.14474  0.48451  0.33784  1.0000
  C   C374      1.0  0.22605  0.38349  0.41126  1.0000
  C   C375      1.0  0.27192  0.10513  0.40751  1.0000
  C   C376      1.0  0.29387  0.26743  0.35212  1.0000
  C   C377      1.0  0.30496  0.16815  0.34835  1.0000
  C   C378      1.0  0.17349  0.19903  0.38576  1.0000
  H   H284      1.0  0.20230  0.39007  0.44565  1.0000
  H   H285      1.0  0.25033  0.17273  0.32111  1.0000
  P   P13       1.0  0.29320  0.22153  0.31934  1.0000
  H   H286      1.0  0.24781  0.26789  0.33178  1.0000
  H   H287      1.0  0.18437  0.00192  0.42637  1.0000
  H   H288      1.0  0.22849  0.45308  0.38217  1.0000
  C   C379      1.0  0.31289  0.14007  0.30226  1.0000
  H   H289      1.0  0.24868  0.03121  0.46174  1.0000
  H   H290      1.0  0.30696  0.15486  0.35488  1.0000
  H   H291      1.0  0.31046  0.20758  0.29362  1.0000
  C   C380      1.0  0.08486  0.01907  0.24309  1.0000
  C   C381      1.0  0.00729  0.46424  0.28509  1.0000
  C   C382      1.0  0.13186  0.47952  0.39168  1.0000
  H   H292      1.0  0.31048  0.43464  0.38445  1.0000
  C   C383      1.0  0.03566  0.45928  0.24461  1.0000
  H   H293      1.0  0.99321  0.17996  0.44157  1.0000
  C   C384      1.0  0.22022  0.21746  0.47859  1.0000
  C   C385      1.0  0.00553  0.46779  0.27052  1.0000
  H   H294      1.0  0.30934  0.28857  0.47146  1.0000
  H   H295      1.0  0.30721  0.24876  0.41454  1.0000
  H   H296      1.0  0.18159  0.48598  0.37386  1.0000
  H   H297      1.0  0.22320  0.49015  0.37781  1.0000
  C   C386      1.0  0.31409  0.19130  0.32697  1.0000
  H   H298      1.0  0.09044  0.48194  0.34685  1.0000
  C   C387      1.0  0.10636  0.47881  0.34732  1.0000
  H   H299      1.0  0.19363  0.00202  0.39190  1.0000
  H   H300      1.0  0.31673  0.04835  0.26048  1.0000
  C   C388      1.0  0.31660  0.07922  0.47105  1.0000
  C   C389      1.0  0.98451  0.45073  0.26247  1.0000
  Fe  Fe27      1.0  0.26261  0.01131  0.56127  1.0000
  H   H301      1.0  0.21825  0.22300  0.50114  1.0000
  C   C390      1.0  0.13884  0.22920  0.70308  1.0000
  S   S53       1.0  0.26534  0.03772  0.54422  1.0000
  H   H302      1.0  0.02868  0.16168  0.66199  1.0000
  C   C391      1.0  0.28284  0.30431  0.59724  1.0000
  H   H303      1.0  0.15332  0.22626  0.69855  1.0000
  Fe  Fe28      1.0  0.28575  0.27114  0.53559  1.0000
  H   H304      1.0  0.13795  0.34580  0.61381  1.0000
  H   H305      1.0  0.04425  0.18718  0.58729  1.0000
  Fe  Fe29      1.0  0.26573  0.24470  0.56337  1.0000
  S   S54       1.0  0.23582  0.22509  0.57934  1.0000
  S   S55       1.0  0.26185  0.23120  0.54051  1.0000
  H   H306      1.0  0.21723  0.03585  0.58276  1.0000
  C   C392      1.0  0.09390  0.01487  0.60819  1.0000
  C   C393      1.0  0.26792  0.42430  0.70191  1.0000
  Fe  Fe30      1.0  0.06697  0.22035  0.62075  1.0000
  S   S56       1.0  0.06580  0.20512  0.64236  1.0000
  S   S57       1.0  0.03205  0.22297  0.61474  1.0000
  Fe  Fe31      1.0  0.12000  0.23003  0.61709  1.0000
  S   S58       1.0  0.12272  0.21612  0.63860  1.0000
  S   S59       1.0  0.15014  0.24771  0.60094  1.0000
  Fe  Fe32      1.0  0.08464  0.18483  0.63298  1.0000
  S   S60       1.0  0.07844  0.14647  0.63916  1.0000
  Fe  Fe33      1.0  0.10354  0.23728  0.64674  1.0000
  S   S61       1.0  0.10737  0.25396  0.66928  1.0000
  S   S62       1.0  0.08309  0.19739  0.61085  1.0000
  S   S63       1.0  0.10355  0.25382  0.62578  1.0000
  Fe  Fe34      1.0  0.18257  0.38206  0.71664  1.0000
  S   S64       1.0  0.18323  0.36083  0.69631  1.0000
  S   S65       1.0  0.19208  0.42233  0.71512  1.0000
  C   C394      1.0  0.29371  0.28818  0.49183  1.0000
  H   H307      1.0  0.26018  0.22900  0.50684  1.0000
  C   C395      1.0  0.05954  0.16364  0.67414  1.0000
  H   H308      1.0  0.26383  0.36730  0.69665  1.0000
  H   H309      1.0  0.10995  0.02111  0.60183  1.0000
  C   C396      1.0  0.03125  0.15037  0.57788  1.0000
  C   C397      1.0  0.12826  0.28405  0.67639  1.0000
  C   C398      1.0  0.14892  0.30009  0.66919  1.0000
  C   C399      1.0  0.16542  0.32355  0.67542  1.0000
  C   C400      1.0  0.16131  0.33139  0.68882  1.0000
  C   C401      1.0  0.14041  0.31552  0.69592  1.0000
  C   C402      1.0  0.12410  0.29191  0.68978  1.0000
  H   H310      1.0  0.15229  0.29423  0.65891  1.0000
  H   H311      1.0  0.18152  0.33571  0.66986  1.0000
  H   H312      1.0  0.13694  0.32140  0.70616  1.0000
  H   H313      1.0  0.10808  0.27975  0.69539  1.0000
  Fe  Fe35      1.0  0.29715  0.22936  0.54466  1.0000
  C   C403      1.0  0.00794  0.07490  0.64821  1.0000
  C   C404      1.0  0.00641  0.09629  0.64455  1.0000
  C   C405      1.0  0.02769  0.11834  0.64167  1.0000
  C   C406      1.0  0.05085  0.11931  0.64264  1.0000
  C   C407      1.0  0.05237  0.09799  0.64648  1.0000
  C   C408      1.0  0.03107  0.07587  0.64920  1.0000
  C   C409      1.0  0.03044  0.04318  0.70181  1.0000
  H   H314      1.0  0.02621  0.13454  0.63868  1.0000
  H   H315      1.0  0.07018  0.09853  0.64723  1.0000
  H   H316      1.0  0.03252  0.05956  0.65196  1.0000
  Fe  Fe36      1.0  0.22086  0.42989  0.73266  1.0000
  H   H317      1.0  0.99186  0.45531  0.54222  1.0000
  H   H318      1.0  0.29440  0.14928  0.52386  1.0000
  C   C410      1.0  0.03189  0.05552  0.68937  1.0000
  H   H319      1.0  0.30675  0.28797  0.59377  1.0000
  C   C411      1.0  0.13147  0.48987  0.72139  1.0000
  C   C412      1.0  0.02052  0.22917  0.59872  1.0000
  C   C413      1.0  0.03298  0.23336  0.58608  1.0000
  C   C414      1.0  0.02300  0.23825  0.57368  1.0000
  C   C415      1.0  0.24629  0.27988  0.61016  1.0000
  C   C416      1.0  0.29614  0.40189  0.69319  1.0000
  H   H320      1.0  0.05033  0.23294  0.58584  1.0000
  H   H321      1.0  0.98796  0.41791  0.52922  1.0000
  C   C417      1.0  0.27716  0.29326  0.49939  1.0000
  C   C418      1.0  0.10923  0.36940  0.60611  1.0000
  C   C419      1.0  0.98975  0.13737  0.59420  1.0000
  H   H322      1.0  0.23907  0.15882  0.61327  1.0000
  H   H323      1.0  0.07302  0.17744  0.66762  1.0000
  H   H324      1.0  0.08662  0.13647  0.72569  1.0000
  H   H325      1.0  0.05604  0.12808  0.70185  1.0000
  C   C420      1.0  0.21157  0.23108  0.58489  1.0000
  C   C421      1.0  0.19675  0.21750  0.59589  1.0000
  C   C422      1.0  0.17770  0.22205  0.60086  1.0000
  C   C423      1.0  0.17313  0.24018  0.59479  1.0000
  C   C424      1.0  0.18780  0.25355  0.58369  1.0000
  C   C425      1.0  0.20687  0.24904  0.57877  1.0000
  H   H326      1.0  0.20014  0.20346  0.60066  1.0000
  H   H327      1.0  0.16661  0.21160  0.60939  1.0000
  H   H328      1.0  0.18439  0.26750  0.57883  1.0000
  H   H329      1.0  0.21782  0.25927  0.57017  1.0000
  S   S66       1.0  0.25979  0.46283  0.73066  1.0000
  H   H330      1.0  0.10011  0.32569  0.73382  1.0000
  C   C426      1.0  0.08724  0.03229  0.61373  1.0000
  C   C427      1.0  0.99912  0.11186  0.71745  1.0000
  C   C428      1.0  0.08439  0.17045  0.72837  1.0000
  S   S67       1.0  0.98936  0.24637  0.55798  1.0000
  H   H331      1.0  0.24202  0.24469  0.61668  1.0000
  C   C429      1.0  0.29065  0.46748  0.73323  1.0000
  C   C430      1.0  0.26349  0.30276  0.49199  1.0000
  H   H332      1.0  0.16606  0.00651  0.57846  1.0000
  C   C431      1.0  0.09390  0.46525  0.73316  1.0000
  H   H333      1.0  0.30667  0.40909  0.58500  1.0000
  S   S68       1.0  0.28740  0.28499  0.55848  1.0000
  C   C432      1.0  0.99128  0.11960  0.58507  1.0000
  H   H334      1.0  0.31023  0.21679  0.59236  1.0000
  H   H335      1.0  0.99113  0.20998  0.49550  1.0000
  H   H336      1.0  0.99526  0.47496  0.68710  1.0000
  C   C433      1.0  0.27884  0.35459  0.60174  1.0000
  H   H337      1.0  0.03670  0.99365  0.63130  1.0000
  C   C434      1.0  0.25293  0.22505  0.49594  1.0000
  H   H338      1.0  0.25707  0.43296  0.70555  1.0000
  H   H339      1.0  0.08055  0.20272  0.73421  1.0000
  C   C435      1.0  0.02454  0.12637  0.69019  1.0000
  H   H340      1.0  0.12836  0.40719  0.59979  1.0000
  H   H341      1.0  0.14541  0.00109  0.55481  1.0000
  S   S69       1.0  0.28717  0.99860  0.55011  1.0000
  C   C436      1.0  0.29732  0.35944  0.61224  1.0000
  H   H342      1.0  0.26402  0.11224  0.57508  1.0000
  C   C437      1.0  0.11649  0.22116  0.69545  1.0000
  C   C438      1.0  0.09811  0.22573  0.70100  1.0000
  C   C439      1.0  0.10212  0.23860  0.71412  1.0000
  H   H343      1.0  0.08669  0.16075  0.68755  1.0000
  H   H344      1.0  0.25608  0.06887  0.57411  1.0000
  C   C440      1.0  0.13451  0.99496  0.56414  1.0000
  C   C441      1.0  0.27989  0.99866  0.49610  1.0000
  C   C442      1.0  0.11790  0.39497  0.60796  1.0000
  C   C443      1.0  0.25763  0.39851  0.70121  1.0000
  C   C444      1.0  0.03430  0.30725  0.60955  1.0000
  S   S70       1.0  0.30605  0.10579  0.56459  1.0000
  H   H345      1.0  0.23872  0.38729  0.70410  1.0000
  H   H346      1.0  0.00458  0.06962  0.72292  1.0000
  C   C445      1.0  0.01231  0.06616  0.71350  1.0000
  C   C446      1.0  0.08247  0.14807  0.73286  1.0000
  C   C447      1.0  0.27179  0.38730  0.69695  1.0000
  H   H347      1.0  0.11377  0.21235  0.68493  1.0000
  H   H348      1.0  0.08126  0.22043  0.69472  1.0000
  C   C448      1.0  0.29803  0.14998  0.53520  1.0000
  C   C449      1.0  0.06663  0.02469  0.62203  1.0000
  C   C450      1.0  0.05508  0.26932  0.64435  1.0000
  C   C451      1.0  0.07187  0.28030  0.65587  1.0000
  C   C452      1.0  0.09205  0.30371  0.65479  1.0000
  C   C453      1.0  0.09544  0.31616  0.64218  1.0000
  C   C454      1.0  0.07822  0.30556  0.63070  1.0000
  C   C455      1.0  0.05827  0.28187  0.63179  1.0000
  P   P14       1.0  0.08394  0.32050  0.61401  1.0000
  C   C456      1.0  0.05595  0.31039  0.60324  1.0000
  C   C457      1.0  0.09577  0.35351  0.61669  1.0000
  C   C458      1.0  0.09026  0.36342  0.62888  1.0000
  H   H349      1.0  0.02949  0.14902  0.71640  1.0000
  H   H350      1.0  0.09804  0.05171  0.61161  1.0000
  H   H351      1.0  0.20971  0.16638  0.62722  1.0000
  C   C459      1.0  0.04981  0.13567  0.69340  1.0000
  H   H352      1.0  0.02438  0.08220  0.67911  1.0000
  C   C460      1.0  0.10566  0.31264  0.60577  1.0000
  C   C461      1.0  0.09736  0.28946  0.59864  1.0000
  C   C462      1.0  0.11421  0.28263  0.59297  1.0000
  C   C463      1.0  0.13945  0.29869  0.59461  1.0000
  C   C464      1.0  0.14789  0.32152  0.60203  1.0000
  C   C465      1.0  0.13108  0.32844  0.60768  1.0000
  C   C466      1.0  0.29891  0.12967  0.54145  1.0000
  H   H353      1.0  0.06966  0.27039  0.66552  1.0000
  H   H354      1.0  0.10540  0.31190  0.66362  1.0000
  H   H355      1.0  0.11166  0.33388  0.64135  1.0000
  H   H356      1.0  0.04547  0.27277  0.62285  1.0000
  H   H357      1.0  0.07906  0.35147  0.63693  1.0000
  S   S71       1.0  0.00344  0.99854  0.66562  1.0000
  H   H358      1.0  0.01178  0.33785  0.57046  1.0000
  H   H359      1.0  0.29595  0.11356  0.53493  1.0000
  H   H360      1.0  0.16089  0.29450  0.71615  1.0000
  C   C467      1.0  0.13911  0.47157  0.72332  1.0000
  H   H361      1.0  0.07790  0.27637  0.59781  1.0000
  H   H362      1.0  0.10777  0.26451  0.58772  1.0000
  H   H363      1.0  0.15243  0.29305  0.59047  1.0000
  C   C468      1.0  0.01207  0.12607  0.57703  1.0000
  H   H364      1.0  0.22889  0.27663  0.61435  1.0000
  S   S72       1.0  0.29400  0.04077  0.57481  1.0000
  H   H365      1.0  0.11956  0.42458  0.62172  1.0000
  C   C469      1.0  0.09900  0.38900  0.63071  1.0000
  H   H366      1.0  0.30951  0.18788  0.56457  1.0000
  H   H367      1.0  0.16748  0.33357  0.60368  1.0000
  H   H368      1.0  0.03632  0.02902  0.70200  1.0000
  C   C470      1.0  0.25376  0.26168  0.61161  1.0000
  H   H369      1.0  0.25076  0.30698  0.49768  1.0000
  C   C471      1.0  0.27558  0.26465  0.60578  1.0000
  H   H370      1.0  0.31120  0.15536  0.61272  1.0000
  C   C472      1.0  0.14288  0.24195  0.71624  1.0000
  H   H371      1.0  0.00809  0.17586  0.60155  1.0000
  C   C473      1.0  0.00037  0.23878  0.57373  1.0000
  H   H372      1.0  0.16734  0.15296  0.61749  1.0000
  S   S73       1.0  0.27323  0.28891  0.51809  1.0000
  H   H373      1.0  0.98920  0.18900  0.65572  1.0000
  H   H374      1.0  0.15423  0.13147  0.59373  1.0000
  C   C474      1.0  0.22927  0.22167  0.49270  1.0000
  C   C475      1.0  0.30397  0.13044  0.55605  1.0000
  H   H375      1.0  0.01912  0.03846  0.72338  1.0000
  H   H376      1.0  0.07242  0.30997  0.58322  1.0000
  H   H377      1.0  0.09484  0.39657  0.64019  1.0000
  C   C476      1.0  0.05590  0.30713  0.58842  1.0000
  Fe  Fe37      1.0  0.29149  0.02646  0.53380  1.0000
  C   C477      1.0  0.14616  0.99818  0.57750  1.0000
  C   C478      1.0  0.02357  0.07318  0.68896  1.0000
  H   H378      1.0  0.20136  0.33155  0.71675  1.0000
  C   C479      1.0  0.01265  0.29620  0.58654  1.0000
  H   H379      1.0  0.08794  0.24270  0.71792  1.0000
  C   C480      1.0  0.99793  0.22974  0.59877  1.0000
  H   H380      1.0  0.03047  0.36028  0.54885  1.0000
  C   C481      1.0  0.29015  0.28599  0.59862  1.0000
  C   C482      1.0  0.30178  0.16274  0.60612  1.0000
  C   C483      1.0  0.03427  0.29991  0.58014  1.0000
  H   H381      1.0  0.03901  0.05106  0.67993  1.0000
  C   C484      1.0  0.00899  0.16173  0.59487  1.0000
  C   C485      1.0  0.01466  0.13626  0.72260  1.0000
  H   H382      1.0  0.28598  0.22708  0.48761  1.0000
  C   C486      1.0  0.26078  0.30140  0.60297  1.0000
  H   H383      1.0  0.01327  0.11226  0.57010  1.0000
  H   H384      1.0  0.25988  0.30745  0.57306  1.0000
  H   H385      1.0  0.31194  0.15259  0.57558  1.0000
  H   H386      1.0  0.11286  0.36200  0.59640  1.0000
  H   H387      1.0  0.03996  0.25076  0.64494  1.0000
  H   H388      1.0  0.29983  0.45888  0.69928  1.0000
  Fe  Fe38      1.0  0.29807  0.06646  0.55708  1.0000
  C   C487      1.0  0.06722  0.15419  0.68538  1.0000
  C   C488      1.0  0.30125  0.19732  0.59462  1.0000
  C   C489      1.0  0.02070  0.04852  0.71386  1.0000
  C   C490      1.0  0.01155  0.35531  0.55097  1.0000
  C   C491      1.0  0.02959  0.16822  0.58672  1.0000
  C   C492      1.0  0.11289  0.40478  0.62029  1.0000
  C   C493      1.0  0.99767  0.36161  0.54156  1.0000
  H   H389      1.0  0.30453  0.28105  0.49730  1.0000
  C   C494      1.0  0.00107  0.34273  0.56316  1.0000
  S   S74       1.0  0.30082  0.19637  0.53496  1.0000
  C   C495      1.0  0.31344  0.18782  0.60311  1.0000
  H   H390      1.0  0.23997  0.30126  0.54934  1.0000
  H   H391      1.0  0.06141  0.03814  0.62631  1.0000
  H   H392      1.0  0.03291  0.24176  0.56399  1.0000
  C   C496      1.0  0.12453  0.24672  0.72189  1.0000
  C   C497      1.0  0.12429  0.44994  0.73029  1.0000
  H   H393      1.0  0.00633  0.37201  0.53241  1.0000
  H   H394      1.0  0.29506  0.34561  0.61982  1.0000
  C   C498      1.0  0.19386  0.32271  0.72656  1.0000
  C   C499      1.0  0.03445  0.15468  0.67096  1.0000
  P   P15       1.0  0.25129  0.32503  0.60074  1.0000
  C   C500      1.0  0.23035  0.32397  0.61420  1.0000
  C   C501      1.0  0.23647  0.32024  0.58327  1.0000
  C   C502      1.0  0.21698  0.32581  0.58097  1.0000
  C   C503      1.0  0.20561  0.32209  0.56745  1.0000
  C   C504      1.0  0.21385  0.31321  0.55607  1.0000
  H   H395      1.0  0.16056  0.24865  0.72186  1.0000
  C   C505      1.0  0.29225  0.43896  0.69818  1.0000
  C   C506      1.0  0.23803  0.34213  0.62536  1.0000
  C   C507      1.0  0.22141  0.34131  0.63549  1.0000
  C   C508      1.0  0.19706  0.32243  0.63455  1.0000
  C   C509      1.0  0.18929  0.30434  0.62349  1.0000
  C   C510      1.0  0.20584  0.30512  0.61338  1.0000
  C   C511      1.0  0.23357  0.30819  0.55818  1.0000
  S   S75       1.0  0.29992  0.24086  0.56767  1.0000
  H   H396      1.0  0.30372  0.41195  0.66539  1.0000
  H   H397      1.0  0.26815  0.36965  0.58394  1.0000
  H   H398      1.0  0.09007  0.17631  0.71774  1.0000
  C   C512      1.0  0.28217  0.37282  0.59208  1.0000
  H   H399      1.0  0.29411  0.32043  0.59136  1.0000
  H   H400      1.0  0.01158  0.29107  0.48778  1.0000
  C   C513      1.0  0.10882  0.48697  0.72628  1.0000
  H   H401      1.0  0.99576  0.28987  0.58010  1.0000
  H   H402      1.0  0.18604  0.04668  0.59247  1.0000
  H   H403      1.0  0.21045  0.33294  0.58959  1.0000
  H   H404      1.0  0.19030  0.32596  0.56579  1.0000
  H   H405      1.0  0.20496  0.31015  0.54560  1.0000
  C   C514      1.0  0.30400  0.39527  0.59267  1.0000
  H   H406      1.0  0.03397  0.29648  0.56876  1.0000
  H   H407      1.0  0.25670  0.35699  0.62628  1.0000
  H   H408      1.0  0.22734  0.35530  0.64410  1.0000
  H   H409      1.0  0.18419  0.32178  0.64239  1.0000
  H   H410      1.0  0.17041  0.28960  0.62275  1.0000
  H   H411      1.0  0.19945  0.29100  0.60487  1.0000
  H   H412      1.0  0.04736  0.15545  0.57167  1.0000
  C   C515      1.0  0.98780  0.23432  0.58635  1.0000
  H   H413      1.0  0.19323  0.08976  0.59303  1.0000
  H   H414      1.0  0.15646  0.47421  0.71936  1.0000
  C   C516      1.0  0.30648  0.17175  0.55809  1.0000
  C   C517      1.0  0.01269  0.29998  0.60123  1.0000
  H   H415      1.0  0.98861  0.09570  0.64387  1.0000
  C   C518      1.0  0.24486  0.31173  0.57170  1.0000
  S   S76       1.0  0.15352  0.37465  0.73265  1.0000
  H   H416      1.0  0.30658  0.07229  0.49289  1.0000
  H   H417      1.0  0.30698  0.39297  0.69007  1.0000
  H   H418      1.0  0.03406  0.31024  0.62091  1.0000
  H   H419      1.0  0.28069  0.24998  0.60634  1.0000
  C   C519      1.0  0.30164  0.17109  0.54347  1.0000
  S   S77       1.0  0.13306  0.42612  0.73334  1.0000
  C   C520      1.0  0.27757  0.18169  0.58889  1.0000
  C   C521      1.0  0.26596  0.15633  0.59155  1.0000
  C   C522      1.0  0.27801  0.14709  0.60051  1.0000
  P   P16       1.0  0.23507  0.13641  0.58449  1.0000
  C   C523      1.0  0.21333  0.14049  0.59538  1.0000
  C   C524      1.0  0.23273  0.14601  0.56679  1.0000
  C   C525      1.0  0.22479  0.16388  0.56484  1.0000
  C   C526      1.0  0.22348  0.17196  0.55131  1.0000
  C   C527      1.0  0.23062  0.16274  0.53960  1.0000
  C   C528      1.0  0.23874  0.14514  0.54142  1.0000
  C   C529      1.0  0.23984  0.13680  0.55493  1.0000
  C   C530      1.0  0.18917  0.13262  0.59005  1.0000
  C   C531      1.0  0.17266  0.13705  0.59803  1.0000
  C   C532      1.0  0.18006  0.14920  0.61142  1.0000
  C   C533      1.0  0.20395  0.15680  0.61688  1.0000
  C   C534      1.0  0.22056  0.15246  0.60892  1.0000
  C   C535      1.0  0.22904  0.10438  0.58383  1.0000
  C   C536      1.0  0.24671  0.09809  0.57867  1.0000
  C   C537      1.0  0.24234  0.07349  0.57822  1.0000
  C   C538      1.0  0.22043  0.05491  0.58309  1.0000
  C   C539      1.0  0.20287  0.06099  0.58847  1.0000
  C   C540      1.0  0.20708  0.08558  0.58879  1.0000
  H   H420      1.0  0.20347  0.48485  0.72781  1.0000
  H   H421      1.0  0.26842  0.18944  0.58233  1.0000
  H   H422      1.0  0.26921  0.12780  0.60312  1.0000
  H   H423      1.0  0.22009  0.17212  0.57379  1.0000
  H   H424      1.0  0.21755  0.18594  0.55003  1.0000
  H   H425      1.0  0.23047  0.16968  0.52919  1.0000
  H   H426      1.0  0.24497  0.13854  0.53239  1.0000
  H   H427      1.0  0.24685  0.12371  0.55601  1.0000
  H   H428      1.0  0.18330  0.12356  0.57958  1.0000
  C   C541      1.0  0.01696  0.13599  0.67887  1.0000
  S   S78       1.0  0.29490  0.02302  0.50954  1.0000
  H   H429      1.0  0.14167  0.99362  0.59986  1.0000
  P   P17       1.0  0.00244  0.10105  0.69996  1.0000
  C   C542      1.0  0.17083  0.30166  0.72628  1.0000
  C   C543      1.0  0.01377  0.07870  0.70103  1.0000
  C   C544      1.0  0.30785  0.15167  0.56429  1.0000
  C   C545      1.0  0.05270  0.99968  0.62485  1.0000
  C   C546      1.0  0.10160  0.44699  0.73515  1.0000
  C   C547      1.0  0.30640  0.42783  0.69346  1.0000
  S   S79       1.0  0.21264  0.39020  0.73323  1.0000
  H   H430      1.0  0.98821  0.22676  0.60851  1.0000
  Fe  Fe39      1.0  0.16494  0.41585  0.73225  1.0000
  H   H431      1.0  0.13074  0.31091  0.73161  1.0000
  H   H432      1.0  0.99586  0.29698  0.60616  1.0000
  H   H433      1.0  0.99770  0.12869  0.67585  1.0000
  H   H434      1.0  0.99082  0.48293  0.64155  1.0000
  H   H435      1.0  0.30892  0.40692  0.63991  1.0000
  H   H436      1.0  0.98476  0.20624  0.63301  1.0000
  H   H437      1.0  0.26335  0.04212  0.48673  1.0000
  C   C548      1.0  0.31043  0.49048  0.73005  1.0000
  H   H438      1.0  0.98539  0.33926  0.49027  1.0000
  Fe  Fe40      1.0  0.26838  0.02727  0.90509  1.0000
  S   S80       1.0  0.29204  0.00916  0.90959  1.0000
  C   C549      1.0  0.00682  0.25947  0.88658  1.0000
  Fe  Fe41      1.0  0.29682  0.02601  0.93191  1.0000
  C   C550      1.0  0.01077  0.14467  0.73580  1.0000
  S   S81       1.0  0.27135  0.04236  0.92763  1.0000
  P   P18       1.0  1.00000  0.36941  0.89923  1.0000
  S   S82       1.0  0.27391  0.24243  0.91945  1.0000
  H   H439      1.0  0.24097  0.33193  0.81076  1.0000
  H   H440      1.0  0.99771  0.04082  0.77174  1.0000
  Fe  Fe42      1.0  0.27428  0.26830  0.90270  1.0000
  S   S83       1.0  0.23862  0.27006  0.89672  1.0000
  C   C551      1.0  0.12862  0.40389  0.76910  1.0000
  H   H441      1.0  0.02503  0.06176  0.79295  1.0000
  H   H442      1.0  0.07385  0.12321  0.74990  1.0000
  C   C552      1.0  0.00250  0.18736  0.87552  1.0000
  Fe  Fe43      1.0  0.08077  0.24709  0.84952  1.0000
  S   S84       1.0  0.06084  0.23401  0.82834  1.0000
  S   S85       1.0  0.06732  0.26140  0.86835  1.0000
  Fe  Fe44      1.0  0.12214  0.23561  0.84071  1.0000
  S   S86       1.0  0.10421  0.22112  0.81876  1.0000
  S   S87       1.0  0.15807  0.23354  0.84485  1.0000
  Fe  Fe45      1.0  0.09781  0.25443  0.81865  1.0000
  S   S88       1.0  0.09815  0.27280  0.79769  1.0000
  Fe  Fe46      1.0  0.06863  0.20168  0.82987  1.0000
  S   S89       1.0  0.03535  0.16507  0.82249  1.0000
  S   S90       1.0  0.11767  0.27020  0.83986  1.0000
  S   S91       1.0  0.08678  0.21364  0.85173  1.0000
  H   H443      1.0  0.29391  0.15324  0.88887  1.0000
  C   C553      1.0  0.25243  0.99437  0.98393  1.0000
  H   H444      1.0  0.00690  0.46995  0.75734  1.0000
  H   H445      1.0  0.19033  0.44759  0.78928  1.0000
  C   C554      1.0  0.00967  0.06069  0.77206  1.0000
  C   C555      1.0  0.16382  0.40988  0.78387  1.0000
  H   H446      1.0  0.11208  0.39175  0.76283  1.0000
  H   H447      1.0  0.01824  0.34721  0.92027  1.0000
  Fe  Fe47      1.0  0.18421  0.38552  0.74924  1.0000
  S   S92       1.0  0.18449  0.36671  0.76997  1.0000
  S   S93       1.0  0.19432  0.42615  0.74980  1.0000
  C   C556      1.0  0.21450  0.27547  0.82784  1.0000
  C   C557      1.0  0.29608  0.44929  0.73841  1.0000
  C   C558      1.0  0.07315  0.29245  0.74298  1.0000
  C   C559      1.0  0.29554  0.33970  0.84619  1.0000
  C   C560      1.0  0.99352  0.23946  0.86322  1.0000
  H   H448      1.0  0.20584  0.33111  0.76226  1.0000
  H   H449      1.0  0.28120  0.43154  0.74095  1.0000
  H   H450      1.0  0.17969  0.30384  0.82037  1.0000
  C   C561      1.0  0.12214  0.29961  0.79048  1.0000
  C   C562      1.0  0.14566  0.31214  0.79699  1.0000
  C   C563      1.0  0.16450  0.33254  0.79056  1.0000
  C   C564      1.0  0.16006  0.34077  0.77755  1.0000
  C   C565      1.0  0.13648  0.32831  0.77105  1.0000
  C   C566      1.0  0.11764  0.30796  0.77752  1.0000
  H   H451      1.0  0.14920  0.30617  0.80703  1.0000
  H   H452      1.0  0.18260  0.34206  0.79574  1.0000
  H   H453      1.0  0.13275  0.33450  0.76110  1.0000
  H   H454      1.0  0.09947  0.29853  0.77241  1.0000
  C   C567      1.0  0.02359  0.08489  0.82228  1.0000
  C   C568      1.0  0.04496  0.10432  0.82887  1.0000
  C   C569      1.0  0.04890  0.12897  0.82903  1.0000
  C   C570      1.0  0.03147  0.13445  0.82257  1.0000
  C   C571      1.0  0.01019  0.11507  0.81588  1.0000
  C   C572      1.0  0.00625  0.09041  0.81570  1.0000
  H   H455      1.0  0.25879  0.01172  0.96366  1.0000
  H   H456      1.0  0.06532  0.14368  0.83425  1.0000
  H   H457      1.0  0.98981  0.07569  0.81052  1.0000
  C   C573      1.0  0.29494  0.32679  0.85830  1.0000
  H   H458      1.0  0.07649  0.46259  0.73703  1.0000
  C   C574      1.0  0.07063  0.41660  0.88936  1.0000
  C   C575      1.0  0.07198  0.17807  0.75141  1.0000
  C   C576      1.0  0.03737  0.17245  0.86803  1.0000
  H   H459      1.0  0.23372  0.30015  0.86382  1.0000
  H   H460      1.0  0.05987  0.29926  0.74410  1.0000
  H   H461      1.0  0.08986  0.43042  0.74053  1.0000
  C   C577      1.0  0.01763  0.24361  0.86067  1.0000
  C   C578      1.0  0.03655  0.25575  0.87104  1.0000
  C   C579      1.0  0.03099  0.26375  0.88398  1.0000
  H   H462      1.0  0.17937  0.31142  0.94307  1.0000
  H   H463      1.0  0.02164  0.23752  0.85065  1.0000
  H   H464      1.0  0.04546  0.27324  0.89208  1.0000
  C   C580      1.0  0.01450  0.16211  0.86072  1.0000
  C   C581      1.0  0.29527  0.28681  0.96800  1.0000
  H   H465      1.0  0.26161  0.27423  0.95543  1.0000
  C   C582      1.0  0.29942  0.15521  0.90002  1.0000
  C   C583      1.0  0.21643  0.25943  0.88217  1.0000
  C   C584      1.0  0.22002  0.24973  0.86932  1.0000
  C   C585      1.0  0.20190  0.24175  0.85813  1.0000
  C   C586      1.0  0.18009  0.24365  0.85948  1.0000
  C   C587      1.0  0.17655  0.25341  0.87230  1.0000
  C   C588      1.0  0.19462  0.26132  0.88352  1.0000
  H   H466      1.0  0.23691  0.24873  0.86792  1.0000
  H   H467      1.0  0.20487  0.23415  0.84831  1.0000
  H   H468      1.0  0.15981  0.25473  0.87363  1.0000
  H   H469      1.0  0.19163  0.26890  0.89334  1.0000
  C   C589      1.0  0.04304  0.19064  0.87886  1.0000
  C   C590      1.0  0.27041  0.28060  0.96588  1.0000
  H   H470      1.0  0.31176  0.32779  0.86285  1.0000
  C   C591      1.0  0.23592  0.34602  0.81402  1.0000
  S   S94       1.0  0.30021  0.06240  0.89807  1.0000
  C   C592      1.0  0.13483  0.22557  0.75163  1.0000
  C   C593      1.0  0.12346  0.25072  0.76689  1.0000
  C   C594      1.0  0.12325  0.23683  0.77842  1.0000
  C   C595      1.0  0.12882  0.21732  0.77661  1.0000
  H   H471      1.0  0.12145  0.46282  0.78380  1.0000
  H   H472      1.0  0.11944  0.26597  0.76861  1.0000
  H   H473      1.0  0.06116  0.19946  0.88412  1.0000
  H   H474      1.0  0.11886  0.24136  0.78881  1.0000
  H   H475      1.0  0.12878  0.20676  0.78565  1.0000
  H   H476      1.0  0.17440  0.40217  0.78909  1.0000
  C   C596      1.0  0.20255  0.34070  0.87689  1.0000
  C   C597      1.0  0.17803  0.32268  0.87773  1.0000
  C   C598      1.0  0.16698  0.30423  0.86694  1.0000
  C   C599      1.0  0.18039  0.30370  0.85529  1.0000
  C   C600      1.0  0.20495  0.32188  0.85428  1.0000
  C   C601      1.0  0.21597  0.34033  0.86521  1.0000
  P   P19       1.0  0.22280  0.32173  0.83936  1.0000
  C   C602      1.0  0.22737  0.34633  0.82768  1.0000
  C   C603      1.0  0.22010  0.36428  0.83141  1.0000
  C   C604      1.0  0.22143  0.38161  0.82164  1.0000
  C   C605      1.0  0.22988  0.38110  0.80807  1.0000
  H   H477      1.0  0.00285  0.26565  0.89659  1.0000
  H   H478      1.0  0.21122  0.35482  0.88535  1.0000
  H   H479      1.0  0.16761  0.32281  0.88681  1.0000
  H   H480      1.0  0.14806  0.29003  0.86772  1.0000
  H   H481      1.0  0.17162  0.28875  0.84732  1.0000
  H   H482      1.0  0.23503  0.35429  0.86474  1.0000
  H   H483      1.0  0.21275  0.36462  0.84166  1.0000
  H   H484      1.0  0.08091  0.42237  0.87980  1.0000
  H   H485      1.0  0.09054  0.47577  0.77640  1.0000
  C   C606      1.0  0.24037  0.18793  0.89052  1.0000
  C   C607      1.0  0.23766  0.17399  0.90244  1.0000
  C   C608      1.0  0.22242  0.17394  0.91328  1.0000
  C   C609      1.0  0.21081  0.18891  0.91230  1.0000
  P   P20       1.0  0.22026  0.15765  0.92924  1.0000
  C   C610      1.0  0.18877  0.13992  0.93416  1.0000
  C   C611      1.0  0.23106  0.13504  0.92670  1.0000
  C   C612      1.0  0.22220  0.11820  0.91489  1.0000
  C   C613      1.0  0.23016  0.10036  0.91289  1.0000
  C   C614      1.0  0.24660  0.09892  0.92280  1.0000
  C   C615      1.0  0.25492  0.11513  0.93479  1.0000
  C   C616      1.0  0.24722  0.13315  0.93676  1.0000
  C   C617      1.0  0.18375  0.12973  0.94758  1.0000
  C   C618      1.0  0.15943  0.11537  0.95141  1.0000
  C   C619      1.0  0.13998  0.11078  0.94179  1.0000
  C   C620      1.0  0.14484  0.12036  0.92828  1.0000
  C   C621      1.0  0.16914  0.13472  0.92442  1.0000
  C   C622      1.0  0.23899  0.18145  0.94248  1.0000
  C   C623      1.0  0.22832  0.18885  0.95338  1.0000
  C   C624      1.0  0.24319  0.20824  0.96309  1.0000
  C   C625      1.0  0.26869  0.22056  0.96185  1.0000
  C   C626      1.0  0.27933  0.21379  0.95079  1.0000
  C   C627      1.0  0.26454  0.19436  0.94111  1.0000
  H   H486      1.0  0.25260  0.18830  0.88234  1.0000
  H   H487      1.0  0.24816  0.16397  0.90330  1.0000
  H   H488      1.0  0.20003  0.19022  0.92087  1.0000
  H   H489      1.0  0.20936  0.11903  0.90714  1.0000
  H   H490      1.0  0.22374  0.08775  0.90360  1.0000
  H   H491      1.0  0.25320  0.08545  0.92112  1.0000
  H   H492      1.0  0.26792  0.11410  0.94234  1.0000
  H   H493      1.0  0.25401  0.14554  0.94609  1.0000
  H   H494      1.0  0.19869  0.13284  0.95505  1.0000
  H   H495      1.0  0.15566  0.10767  0.96181  1.0000
  H   H496      1.0  0.12113  0.09959  0.94473  1.0000
  H   H497      1.0  0.12977  0.11650  0.92073  1.0000
  H   H498      1.0  0.17246  0.14143  0.91378  1.0000
  H   H499      1.0  0.20857  0.18025  0.95418  1.0000
  H   H500      1.0  0.06121  0.02070  0.75695  1.0000
  C   C628      1.0  0.25681  0.28237  0.97736  1.0000
  H   H501      1.0  0.27204  0.30260  0.87402  1.0000
  H   H502      1.0  0.27289  0.18989  0.93226  1.0000
  C   C629      1.0  0.22290  0.31566  0.96745  1.0000
  S   S95       1.0  0.29995  0.26117  0.88908  1.0000
  C   C630      1.0  0.17332  0.30144  0.75197  1.0000
  S   S96       1.0  0.23295  0.01171  0.89109  1.0000
  H   H503      1.0  0.23499  0.21430  0.97134  1.0000
  C   C631      1.0  0.02507  0.07251  0.78402  1.0000
  C   C632      1.0  0.99662  0.16906  0.86461  1.0000
  H   H504      1.0  0.13527  0.37425  0.77607  1.0000
  C   C633      1.0  0.27333  0.99920  0.86643  1.0000
  H   H505      1.0  0.05850  0.10024  0.83397  1.0000
  C   C634      1.0  0.13454  0.21163  0.76321  1.0000
  H   H506      1.0  0.23987  0.99672  0.85721  1.0000
  C   C635      1.0  0.17441  0.30800  0.96561  1.0000
  C   C636      1.0  0.18134  0.25077  0.81063  1.0000
  H   H507      1.0  0.31452  0.19581  0.92845  1.0000
  H   H508      1.0  0.07787  0.42723  0.92522  1.0000
  H   H509      1.0  0.23759  0.27729  0.97555  1.0000
  C   C637      1.0  0.12745  0.15676  0.78931  1.0000
  C   C638      1.0  0.12744  0.16365  0.80359  1.0000
  C   C639      1.0  0.10699  0.16487  0.80879  1.0000
  C   C640      1.0  0.08663  0.15944  0.79972  1.0000
  C   C641      1.0  0.08667  0.15308  0.78528  1.0000
  C   C642      1.0  0.10708  0.15134  0.78020  1.0000
  P   P21       1.0  0.05997  0.14540  0.77370  1.0000
  C   C643      1.0  0.04040  0.11220  0.77304  1.0000
  C   C644      1.0  0.04352  0.16106  0.78067  1.0000
  C   C645      1.0  0.01793  0.14820  0.78205  1.0000
  H   H510      1.0  0.98967  0.19397  0.87843  1.0000
  C   C646      1.0  0.01845  0.18564  0.79171  1.0000
  C   C647      1.0  0.04392  0.19852  0.79047  1.0000
  C   C648      1.0  0.05643  0.18625  0.78510  1.0000
  C   C649      1.0  0.02477  0.10017  0.76105  1.0000
  C   C650      1.0  0.19629  0.48695  0.76348  1.0000
  S   S97       1.0  0.30547  0.30234  0.91376  1.0000
  C   C651      1.0  0.30612  0.29462  0.98180  1.0000
  C   C652      1.0  0.04023  0.09818  0.78460  1.0000
  C   C653      1.0  0.06982  0.15552  0.75602  1.0000
  C   C654      1.0  0.16053  0.29063  0.73898  1.0000
  C   C655      1.0  0.12620  0.47714  0.77621  1.0000
  H   H511      1.0  0.24915  0.99348  0.93700  1.0000
  C   C656      1.0  0.00131  0.34627  0.92395  1.0000
  H   H512      1.0  0.01115  0.14911  0.85183  1.0000
  H   H513      1.0  0.14316  0.15539  0.78537  1.0000
  H   H514      1.0  0.14312  0.16777  0.81071  1.0000
  H   H515      1.0  0.10680  0.16988  0.81991  1.0000
  H   H516      1.0  0.07085  0.16012  0.80408  1.0000
  H   H517      1.0  0.10734  0.14572  0.76926  1.0000
  C   C657      1.0  0.01321  0.33750  0.88424  1.0000
  H   H518      1.0  0.00722  0.18928  0.83780  1.0000
  H   H519      1.0  0.17118  0.23393  0.80409  1.0000
  H   H520      1.0  0.05409  0.21787  0.79410  1.0000
  H   H521      1.0  0.07623  0.19636  0.78461  1.0000
  H   H522      1.0  0.06821  0.19018  0.75831  1.0000
  C   C658      1.0  0.30368  0.17687  0.90792  1.0000
  H   H523      1.0  0.03036  0.21291  0.89058  1.0000
  H   H524      1.0  0.26380  0.05743  0.97147  1.0000
  H   H525      1.0  0.05153  0.10694  0.79416  1.0000
  C   C659      1.0  0.02565  0.19815  0.88255  1.0000
  H   H526      1.0  0.03382  0.39692  0.92362  1.0000
  C   C660      1.0  0.25128  0.32407  0.84661  1.0000
  S   S98       1.0  0.31326  0.28391  0.95408  1.0000
  C   C661      1.0  0.18500  0.30753  0.97890  1.0000
  H   H527      1.0  0.16125  0.46216  0.80510  1.0000
  H   H528      1.0  0.29883  0.11950  0.90016  1.0000
  C   C662      1.0  0.00946  0.07452  0.76058  1.0000
  C   C663      1.0  0.30226  0.13604  0.90638  1.0000
  H   H529      1.0  0.30229  0.08098  0.85559  1.0000
  C   C664      1.0  0.19017  0.48283  0.74889  1.0000
  P   P22       1.0  0.17216  0.47868  0.77592  1.0000
  C   C665      1.0  0.15939  0.44554  0.77680  1.0000
  H   H530      1.0  0.00931  0.21832  0.81972  1.0000
  H   H531      1.0  0.00760  0.12859  0.77926  1.0000
  C   C666      1.0  0.17508  0.48145  0.80558  1.0000
  H   H532      1.0  0.08590  0.25349  0.97208  1.0000
  C   C667      1.0  0.30947  0.13835  0.92076  1.0000
  S   S99       1.0  0.99409  0.99886  0.79371  1.0000
  C   C668      1.0  0.13739  0.42952  0.76925  1.0000
  H   H533      1.0  0.15613  0.30622  0.96468  1.0000
  H   H534      1.0  0.21537  0.39512  0.82447  1.0000
  C   C669      1.0  0.99436  0.34349  0.88733  1.0000
  H   H535      1.0  0.28284  0.01928  0.86700  1.0000
  H   H536      1.0  0.22444  0.34943  0.73976  1.0000
  H   H537      1.0  0.99664  0.11916  0.81083  1.0000
  C   C670      1.0  0.98783  0.45596  0.75577  1.0000
  C   C671      1.0  0.27380  0.33839  0.84034  1.0000
  S   S100      1.0  0.30070  0.20076  0.89911  1.0000
  H   H538      1.0  0.00890  0.19497  0.79632  1.0000
  C   C672      1.0  0.12194  0.27564  0.98208  1.0000
  C   C673      1.0  0.10872  0.48455  0.77216  1.0000
  H   H539      1.0  0.04541  0.99392  0.79906  1.0000
  C   C674      1.0  0.07524  0.14063  0.74661  1.0000
  H   H540      1.0  0.02269  0.31206  0.87299  1.0000
  H   H541      1.0  0.15735  0.26612  0.80486  1.0000
  H   H542      1.0  0.12747  0.43673  0.76295  1.0000
  H   H543      1.0  0.13895  0.19654  0.76181  1.0000
  H   H544      1.0  0.02434  0.11057  0.75208  1.0000
  Fe  Fe48      1.0  0.30626  0.27592  0.92981  1.0000
  C   C675      1.0  0.14177  0.39406  0.77645  1.0000
  H   H545      1.0  0.17116  0.47488  0.74515  1.0000
  C   C676      1.0  0.31092  0.17918  0.92229  1.0000
  S   S101      1.0  0.29738  0.00295  0.95071  1.0000
  Fe  Fe49      1.0  0.30185  0.23749  0.90655  1.0000
  C   C677      1.0  0.00548  0.16049  0.78755  1.0000
  H   H546      1.0  0.03161  0.34837  0.88887  1.0000
  C   C678      1.0  0.98787  0.24718  0.87622  1.0000
  C   C679      1.0  0.20961  0.31209  0.97974  1.0000
  H   H547      1.0  0.31292  0.35075  0.84135  1.0000
  H   H548      1.0  0.29894  0.22431  0.94941  1.0000
  H   H549      1.0  0.22220  0.31764  0.94470  1.0000
  H   H550      1.0  0.28016  0.23593  0.96918  1.0000
  H   H551      1.0  0.06437  0.02894  0.78310  1.0000
  C   C680      1.0  0.08228  0.42657  0.90263  1.0000
  C   C681      1.0  0.21351  0.20279  0.90034  1.0000
  C   C682      1.0  0.22822  0.20221  0.88944  1.0000
  H   H552      1.0  0.27471  0.34859  0.83102  1.0000
  H   H553      1.0  0.13031  0.26681  0.97573  1.0000
  C   C683      1.0  0.04568  0.39921  0.88838  1.0000
  H   H554      1.0  0.17676  0.48403  0.82846  1.0000
  H   H555      1.0  0.03678  0.39181  0.87801  1.0000
  C   C684      1.0  0.12921  0.24525  0.75337  1.0000
  C   C685      1.0  0.18607  0.29010  0.81995  1.0000
  H   H556      1.0  0.20481  0.21460  0.89966  1.0000
  Fe  Fe50      1.0  0.30497  0.07606  0.92086  1.0000
  H   H557      1.0  0.23006  0.27747  0.83438  1.0000
  C   C686      1.0  0.20655  0.29354  0.82845  1.0000
  H   H558      1.0  0.24332  0.36275  0.79367  1.0000
  C   C687      1.0  0.21188  0.31502  0.95422  1.0000
  H   H559      1.0  0.23074  0.21335  0.88034  1.0000
  H   H560      1.0  0.20763  0.23991  0.81885  1.0000
  H   H561      1.0  0.24183  0.31901  0.96824  1.0000
  C   C688      1.0  0.25088  0.31125  0.85879  1.0000
  H   H562      1.0  0.10162  0.44003  0.90338  1.0000
  S   S102      1.0  0.01962  0.05419  0.82243  1.0000
  C   C689      1.0  0.03229  0.39141  0.90071  1.0000
  H   H563      1.0  0.05100  0.16695  0.86494  1.0000
  C   C690      1.0  0.17273  0.43554  0.78397  1.0000
  C   C691      1.0  0.09671  0.26782  0.98011  1.0000
  C   C692      1.0  0.04395  0.40193  0.91399  1.0000
  C   C693      1.0  0.00825  0.31688  0.87528  1.0000
  C   C694      1.0  0.23721  0.36336  0.80429  1.0000
  C   C695      1.0  0.18771  0.31138  0.95331  1.0000
  C   C696      1.0  0.06892  0.41932  0.91494  1.0000
  C   C697      1.0  0.20190  0.25416  0.81894  1.0000
  H   H564      1.0  0.16534  0.29426  0.76198  1.0000
  H   H565      1.0  0.02254  0.16360  0.73964  1.0000
  C   C698      1.0  0.27259  0.31259  0.86460  1.0000
  H   H566      1.0  0.30333  0.99654  0.87655  1.0000
  C   C699      1.0  0.17347  0.26879  0.81111  1.0000
  H   H567      1.0  0.23028  0.39409  0.80037  1.0000
  H   H568      1.0  0.05022  0.25745  0.75199  1.0000
  C   C700      1.0  0.19640  0.32240  0.75219  1.0000
  H   H569      1.0  0.98699  0.40520  0.91265  1.0000
  C   C701      1.0  0.08504  0.26027  0.74612  1.0000
  C   C702      1.0  0.10811  0.27539  0.74062  1.0000
  H   H570      1.0  0.08055  0.24199  0.74961  1.0000
  H   H571      1.0  0.00112  0.32607  0.94241  1.0000
  P   P23       1.0  0.13030  0.26409  0.73866  1.0000
  C   C703      1.0  0.28267  0.99553  0.96731  1.0000
  H   H572      1.0  0.98847  0.13538  0.75415  1.0000
  C   C704      1.0  0.98696  0.27945  0.97539  1.0000
  C   C705      1.0  0.31373  0.16000  0.92866  1.0000
  C   C706      1.0  0.26422  0.00166  0.97094  1.0000
  C   C707      1.0  0.14950  0.48793  0.77035  1.0000
  C   C708      1.0  0.07906  0.18536  0.73764  1.0000
  H   H573      1.0  0.30411  0.07228  0.98429  1.0000
  C   C709      1.0  0.06773  0.26888  0.74740  1.0000
  S   S103      1.0  0.31324  0.11481  0.92946  1.0000
  H   H574      1.0  0.99293  0.42882  0.76733  1.0000
  C   C710      1.0  0.20677  0.33289  0.73950  1.0000
  H   H575      1.0  0.21718  0.99556  0.92125  1.0000
  C   C711      1.0  0.05487  0.01009  0.77865  1.0000
  H   H576      1.0  0.99649  0.27044  0.97042  1.0000
  Fe  Fe51      1.0  0.98772  0.01915  0.81224  1.0000
  H   H577      1.0  0.13950  0.22091  0.74142  1.0000
  C   C712      1.0  0.20843  0.48838  0.73906  1.0000
  H   H578      1.0  0.99729  0.06521  0.75140  1.0000
  C   C713      1.0  0.99150  0.12879  0.74396  1.0000
  C   C714      1.0  0.99075  0.19056  0.83486  1.0000
  C   C715      1.0  0.99198  0.20695  0.82450  1.0000
  C   C716      1.0  0.98859  0.35608  0.91600  1.0000
  C   C717      1.0  0.05304  0.00542  0.76394  1.0000
  C   C718      1.0  0.26479  0.05774  0.98298  1.0000
  C   C719      1.0  0.09584  0.30736  0.73721  1.0000
  C   C720      1.0  0.99171  0.33428  0.93646  1.0000
  C   C721      1.0  0.98525  0.38667  0.89240  1.0000
  H   H579      1.0  0.98588  0.15037  0.78904  1.0000
  C   C722      1.0  0.11323  0.29888  0.73599  1.0000
  H   H580      1.0  0.22561  0.04179  0.98490  1.0000
  H   H581      1.0  0.31575  0.12592  0.85389  1.0000
  H   H582      1.0  0.19126  0.99095  0.87132  1.0000
  Fe  Fe52      1.0  0.01455  0.71015  0.03534  1.0000
  S   S104      1.0  0.02488  0.74294  0.05097  1.0000
  H   H583      1.0  0.03135  0.52895  0.99322  1.0000
  Fe  Fe53      1.0  0.02705  0.68141  0.05790  1.0000
  S   S105      1.0  0.03813  0.71240  0.07429  1.0000
  S   S106      1.0  0.02334  0.64294  0.06265  1.0000
  Fe  Fe54      1.0  0.00417  0.71466  0.06697  1.0000
  Fe  Fe55      1.0  0.05820  0.73864  0.05712  1.0000
  S   S107      1.0  0.09540  0.77170  0.06494  1.0000
  H   H584      1.0  0.26439  0.59632  0.13516  1.0000
  S   S108      1.0  0.04918  0.70720  0.04086  1.0000
  Fe  Fe56      1.0  0.24371  0.95162  0.02966  1.0000
  S   S109      1.0  0.20604  0.93179  0.03859  1.0000
  C   C723      1.0  0.06991  0.58245  0.05664  1.0000
  Fe  Fe57      1.0  0.26698  0.93800  0.05540  1.0000
  S   S110      1.0  0.23036  0.91743  0.06564  1.0000
  C   C724      1.0  0.27767  0.97523  0.99004  1.0000
  Fe  Fe58      1.0  0.21488  0.90118  0.04368  1.0000
  S   S111      1.0  0.18622  0.86144  0.03652  1.0000
  Fe  Fe59      1.0  0.22408  0.94958  0.05976  1.0000
  S   S112      1.0  0.25202  0.91996  0.03347  1.0000
  S   S113      1.0  0.26111  0.97110  0.05079  1.0000
  Fe  Fe60      1.0  0.05604  0.50843  0.11001  1.0000
  C   C725      1.0  0.16716  0.97734  0.12033  1.0000
  Fe  Fe61      1.0  0.06136  0.56109  0.11686  1.0000
  S   S114      1.0  0.06483  0.55735  0.14054  1.0000
  S   S115      1.0  0.06813  0.59956  0.10977  1.0000
  Fe  Fe62      1.0  0.09020  0.54145  0.13495  1.0000
  S   S116      1.0  0.12590  0.54848  0.14712  1.0000
  Fe  Fe63      1.0  0.03389  0.51836  0.13695  1.0000
  C   C726      1.0  0.25053  0.60660  0.11672  1.0000
  S   S117      1.0  0.08830  0.54700  0.11160  1.0000
  S   S118      1.0  0.02884  0.52306  0.11353  1.0000
  H   H585      1.0  0.07661  0.96628  0.14247  1.0000
  S   S119      1.0  0.29788  0.69052  0.16740  1.0000
  H   H586      1.0  0.22751  0.81460  0.11054  1.0000
  H   H587      1.0  0.17816  0.93218  0.01214  1.0000
  Fe  Fe64      1.0  0.27349  0.65172  0.15796  1.0000
  S   S120      1.0  0.23412  0.64207  0.15002  1.0000
  S   S121      1.0  0.28549  0.63382  0.17483  1.0000
  H   H588      1.0  0.11002  0.62866  0.07971  1.0000
  H   H589      1.0  0.17306  0.58717  0.04757  1.0000
  S   S122      1.0  0.99784  0.49873  0.14876  1.0000
  C   C727      1.0  0.21418  0.53692  0.19485  1.0000
  C   C728      1.0  0.24613  0.87441  0.09449  1.0000
  C   C729      1.0  0.14448  0.60335  0.19364  1.0000
  C   C730      1.0  0.22833  0.87158  0.10435  1.0000
  H   H590      1.0  0.06038  0.67679  0.14334  1.0000
  C   C731      1.0  0.06310  0.80186  0.08119  1.0000
  C   C732      1.0  0.15587  0.57470  0.14769  1.0000
  C   C733      1.0  0.17608  0.57226  0.15317  1.0000
  C   C734      1.0  0.20009  0.59252  0.15391  1.0000
  C   C735      1.0  0.20423  0.61569  0.14943  1.0000
  C   C736      1.0  0.18394  0.61823  0.14423  1.0000
  C   C737      1.0  0.16001  0.59786  0.14315  1.0000
  H   H591      1.0  0.17319  0.55448  0.15672  1.0000
  H   H592      1.0  0.21546  0.59015  0.15770  1.0000
  H   H593      1.0  0.18679  0.63614  0.14098  1.0000
  H   H594      1.0  0.14473  0.60019  0.13899  1.0000
  H   H595      1.0  0.07999  0.81008  0.07548  1.0000
  C   C738      1.0  0.05447  0.61122  0.09711  1.0000
  C   C739      1.0  0.03472  0.59563  0.08790  1.0000
  C   C740      1.0  0.02508  0.60569  0.07772  1.0000
  C   C741      1.0  0.03502  0.63150  0.07656  1.0000
  C   C742      1.0  0.05446  0.64712  0.08598  1.0000
  C   C743      1.0  0.06404  0.63704  0.09618  1.0000
  H   H596      1.0  0.02699  0.57584  0.08863  1.0000
  H   H597      1.0  0.25638  0.80551  0.09428  1.0000
  H   H598      1.0  0.06253  0.66696  0.08514  1.0000
  H   H599      1.0  0.07925  0.64938  0.10326  1.0000
  C   C744      1.0  0.11971  0.79711  0.05669  1.0000
  C   C745      1.0  0.12238  0.79761  0.04199  1.0000
  C   C746      1.0  0.14268  0.81749  0.03607  1.0000
  C   C747      1.0  0.16041  0.83745  0.04467  1.0000
  C   C748      1.0  0.15757  0.83714  0.05937  1.0000
  C   C749      1.0  0.13749  0.81703  0.06532  1.0000
  H   H600      1.0  0.10906  0.78245  0.03518  1.0000
  H   H601      1.0  0.14468  0.81736  0.02470  1.0000
  H   H602      1.0  0.17107  0.85215  0.06618  1.0000
  H   H603      1.0  0.13579  0.81685  0.07671  1.0000
  C   C750      1.0  0.20597  0.59420  0.22470  1.0000
  H   H604      1.0  0.01785  0.56905  0.12084  1.0000
  H   H605      1.0  0.20263  0.62425  0.11199  1.0000
  S   S123      1.0  0.05935  0.50185  0.13309  1.0000
  C   C751      1.0  0.18373  0.90747  0.99773  1.0000
  C   C752      1.0  0.06179  0.69123  0.12265  1.0000
  C   C753      1.0  0.04428  0.98403  0.11778  1.0000
  C   C754      1.0  0.00176  0.50716  0.19230  1.0000
  H   H606      1.0  0.25819  0.98081  0.22151  1.0000
  C   C755      1.0  0.02464  0.96072  0.12037  1.0000
  H   H607      1.0  0.01623  0.66685  0.09691  1.0000
  H   H608      1.0  0.09404  0.65259  0.06616  1.0000
  C   C756      1.0  0.16142  0.56836  0.19056  1.0000
  C   C757      1.0  0.26555  0.98048  0.09101  1.0000
  H   H609      1.0  0.13216  0.57027  0.09339  1.0000
  P   P24       1.0  0.20598  0.59787  0.20575  1.0000
  H   H610      1.0  0.05237  0.95365  0.09841  1.0000
  H   H611      1.0  0.00129  0.76899  0.09993  1.0000
  H   H612      1.0  0.00999  0.59340  0.07057  1.0000
  C   C758      1.0  0.20519  0.56606  0.12181  1.0000
  H   H613      1.0  0.16177  0.58544  0.07249  1.0000
  C   C759      1.0  0.99141  0.98821  0.21718  1.0000
  C   C760      1.0  0.14960  0.62790  0.10778  1.0000
  H   H614      1.0  0.19701  0.54755  0.21133  1.0000
  C   C761      1.0  0.04918  0.68839  0.10965  1.0000
  C   C762      1.0  0.02662  0.65522  0.13093  1.0000
  H   H615      1.0  0.23259  0.53122  0.17702  1.0000
  H   H616      1.0  0.07431  0.53623  0.07874  1.0000
  C   C763      1.0  0.16870  0.59494  0.10223  1.0000
  H   H617      1.0  0.24675  0.57357  0.16849  1.0000
  H   H618      1.0  0.08035  0.70622  0.12442  1.0000
  C   C764      1.0  0.20847  0.57060  0.07627  1.0000
  C   C765      1.0  0.06236  0.94533  0.10361  1.0000
  C   C766      1.0  0.25536  0.85218  0.06863  1.0000
  C   C767      1.0  0.03656  0.77107  0.09701  1.0000
  C   C768      1.0  0.04797  0.95707  0.17376  1.0000
  C   C769      1.0  0.01879  0.77895  0.09502  1.0000
  C   C770      1.0  0.17423  0.63496  0.11132  1.0000
  C   C771      1.0  0.05052  0.67466  0.13329  1.0000
  H   H619      1.0  0.14204  0.64034  0.11021  1.0000
  H   H620      1.0  0.01901  0.55976  0.06199  1.0000
  H   H621      1.0  0.26803  0.62258  0.11495  1.0000
  C   C772      1.0  0.01415  0.85653  0.08939  1.0000
  C   C773      1.0  0.22991  0.58448  0.18512  1.0000
  C   C774      1.0  0.18028  0.92796  0.00118  1.0000
  H   H622      1.0  0.10940  0.50934  0.12194  1.0000
  C   C775      1.0  0.23601  0.56792  0.17791  1.0000
  H   H623      1.0  0.09767  0.91394  0.12109  1.0000
  C   C776      1.0  0.05868  0.78247  0.09008  1.0000
  H   H624      1.0  0.03263  0.75530  0.10339  1.0000
  H   H625      1.0  0.07209  0.77579  0.09121  1.0000
  C   C777      1.0  0.25965  0.67055  0.20966  1.0000
  H   H626      1.0  0.22349  0.98845  0.15333  1.0000
  H   H627      1.0  0.13808  0.61705  0.19461  1.0000
  C   C778      1.0  0.03657  0.53289  0.00444  1.0000
  C   C779      1.0  0.17754  0.79210  0.07994  1.0000
  H   H628      1.0  0.04255  0.90918  0.07115  1.0000
  C   C780      1.0  0.09668  0.61966  0.07097  1.0000
  C   C781      1.0  0.22803  0.54409  0.18272  1.0000
  C   C782      1.0  0.00304  0.59436  0.11793  1.0000
  C   C783      1.0  0.99498  0.52843  0.07353  1.0000
  H   H629      1.0  0.28344  0.61404  0.23429  1.0000
  C   C784      1.0  0.26469  0.85714  0.03957  1.0000
  C   C785      1.0  0.24691  0.86259  0.04518  1.0000
  C   C786      1.0  0.24258  0.86062  0.05969  1.0000
  C   C787      1.0  0.05593  0.93547  0.11706  1.0000
  H   H630      1.0  0.08692  0.95231  0.08642  1.0000
  C   C788      1.0  0.99939  0.88644  0.13142  1.0000
  C   C789      1.0  0.14065  0.53709  0.11174  1.0000
  S   S124      1.0  0.20514  0.96520  0.07440  1.0000
  C   C790      1.0  0.03404  0.88965  0.07325  1.0000
  C   C791      1.0  0.17264  0.77988  0.09266  1.0000
  C   C792      1.0  0.27664  0.97123  0.15356  1.0000
  H   H631      1.0  0.29937  0.98443  0.21729  1.0000
  C   C793      1.0  0.98717  0.69751  0.99673  1.0000
  H   H632      1.0  0.26815  0.85900  0.02835  1.0000
  H   H633      1.0  0.23626  0.86811  0.03825  1.0000
  C   C794      1.0  0.06946  0.62132  0.05261  1.0000
  H   H634      1.0  0.00774  0.49796  0.01073  1.0000
  C   C795      1.0  0.03174  0.53227  0.06240  1.0000
  H   H635      1.0  0.06172  0.63164  0.04716  1.0000
  H   H636      1.0  0.10956  0.93238  0.09762  1.0000
  H   H637      1.0  0.01814  0.64252  0.13927  1.0000
  C   C796      1.0  0.04536  0.80978  0.07917  1.0000
  C   C797      1.0  0.11986  0.49356  0.10433  1.0000
  H   H638      1.0  0.04893  0.82422  0.07186  1.0000
  C   C798      1.0  0.15536  0.52233  0.09196  1.0000
  C   C799      1.0  0.08177  0.94436  0.09670  1.0000
  H   H639      1.0  0.16328  0.78614  0.07153  1.0000
  C   C800      1.0  0.06860  0.92390  0.12324  1.0000
  C   C801      1.0  0.02301  0.79836  0.08608  1.0000
  H   H640      1.0  0.23558  0.60253  0.18097  1.0000
  C   C802      1.0  0.21470  0.57149  0.06206  1.0000
  H   H641      1.0  0.06352  0.91566  0.13345  1.0000
  C   C803      1.0  0.24425  0.64581  0.21251  1.0000
  H   H642      1.0  0.06316  0.98739  0.11886  1.0000
  C   C804      1.0  0.08790  0.92283  0.11626  1.0000
  H   H643      1.0  0.29432  0.63572  0.21157  1.0000
  C   C805      1.0  0.09456  0.93315  0.10302  1.0000
  H   H644      1.0  0.00888  0.81400  0.11301  1.0000
  H   H645      1.0  0.24095  0.59385  0.22548  1.0000
  H   H646      1.0  0.14750  0.97029  0.11867  1.0000
  C   C806      1.0  0.27792  0.84930  0.04844  1.0000
  C   C807      1.0  0.27318  0.84664  0.06289  1.0000
  H   H647      1.0  0.16774  0.55476  0.18886  1.0000
  H   H648      1.0  0.19940  0.97618  0.04366  1.0000
  C   C808      1.0  0.99183  0.55607  0.16031  1.0000
  C   C809      1.0  0.18300  0.58260  0.05559  1.0000
  P   P25       1.0  0.24838  0.84789  0.08718  1.0000
  C   C810      1.0  0.99013  0.50519  0.07823  1.0000
  C   C811      1.0  0.22590  0.59306  0.23154  1.0000
  C   C812      1.0  0.19081  0.78791  0.10359  1.0000
  H   H649      1.0  0.03911  0.87848  0.05222  1.0000
  C   C813      1.0  0.00058  0.95764  0.11994  1.0000
  C   C814      1.0  0.24848  0.59183  0.12815  1.0000
  C   C815      1.0  0.26262  0.89828  0.09053  1.0000
  H   H650      1.0  0.10527  0.52275  0.08413  1.0000
  C   C816      1.0  0.10368  0.52836  0.07352  1.0000
  C   C817      1.0  0.21919  0.82034  0.08894  1.0000
  S   S125      1.0  0.00174  0.71532  0.01290  1.0000
  H   H651      1.0  0.00732  0.85095  0.09983  1.0000
  H   H652      1.0  0.29151  0.80285  0.10574  1.0000
  H   H653      1.0  0.27490  0.93738  0.09350  1.0000
  H   H654      1.0  0.23876  0.67081  0.17600  1.0000
  C   C818      1.0  0.29594  0.57962  0.21915  1.0000
  C   C819      1.0  0.00232  0.57118  0.11682  1.0000
  C   C820      1.0  0.06697  0.96576  0.16423  1.0000
  C   C821      1.0  0.02538  0.66883  0.10719  1.0000
  H   H655      1.0  0.21120  0.62729  0.18089  1.0000
  P   P26       1.0  0.18068  0.57346  0.09852  1.0000
  H   H656      1.0  0.09474  0.58425  0.07387  1.0000
  H   H657      1.0  0.21009  0.95743  0.12338  1.0000
  S   S126      1.0  0.99914  0.98008  0.20050  1.0000
  C   C822      1.0  0.01392  0.65204  0.11782  1.0000
  H   H658      1.0  0.00897  0.93532  0.17616  1.0000
  C   C823      1.0  0.22658  0.62984  0.20221  1.0000
  H   H659      1.0  0.13214  0.52115  0.06531  1.0000
  C   C824      1.0  0.20713  0.58071  0.11024  1.0000
  S   S127      1.0  0.30203  0.65368  0.14270  1.0000
  H   H660      1.0  0.02660  0.89504  0.09490  1.0000
  C   C825      1.0  0.02506  0.88171  0.08663  1.0000
  C   C826      1.0  0.27241  0.82238  0.09804  1.0000
  H   H661      1.0  0.24649  0.63948  0.22275  1.0000
  C   C827      1.0  0.02381  0.94136  0.16884  1.0000
  C   C828      1.0  0.18689  0.59359  0.23282  1.0000
  H   H662      1.0  0.30471  0.90298  0.05803  1.0000
  C   C829      1.0  0.02610  0.50841  0.06661  1.0000
  H   H663      1.0  0.99325  0.91560  0.10251  1.0000
  C   C830      1.0  0.98945  0.90116  0.10990  1.0000
  H   H664      1.0  0.18691  0.77855  0.11350  1.0000
  H   H665      1.0  0.01938  0.60975  0.12271  1.0000
  C   C831      1.0  0.98918  0.80605  0.11105  1.0000
  C   C832      1.0  0.08588  0.53577  0.07037  1.0000
  H   H666      1.0  0.12752  0.53289  0.04095  1.0000
  C   C833      1.0  0.25907  0.98118  0.99359  1.0000
  C   C834      1.0  0.21611  0.57751  0.19731  1.0000
  H   H667      1.0  0.05796  0.70114  0.10135  1.0000
  H   H668      1.0  0.26218  0.95374  0.17310  1.0000
  P   P27       1.0  0.05849  0.54981  0.05222  1.0000
  H   H669      1.0  0.26650  0.56729  0.20326  1.0000
  C   C835      1.0  0.24013  0.66388  0.18625  1.0000
  S   S128      1.0  0.24359  0.97291  0.00989  1.0000
  C   C836      1.0  0.13660  0.49821  0.09364  1.0000
  S   S129      1.0  0.99186  0.68232  0.05119  1.0000
  C   C837      1.0  0.05666  0.55538  0.00904  1.0000
  C   C838      1.0  0.12210  0.51295  0.11348  1.0000
  H   H670      1.0  0.17802  0.62549  0.20594  1.0000
  C   C839      1.0  0.20822  0.55355  0.20213  1.0000
  P   P28       1.0  0.99882  0.80644  0.08226  1.0000
  C   C840      1.0  0.14409  0.58824  0.09844  1.0000
  C   C841      1.0  0.17581  0.59064  0.19847  1.0000
  C   C842      1.0  0.30098  0.59351  0.19513  1.0000
  H   H671      1.0  0.01934  0.50673  0.03625  1.0000
  H   H672      1.0  0.07910  0.57794  0.02688  1.0000
  H   H673      1.0  0.29188  0.84529  0.04413  1.0000
  H   H674      1.0  0.27350  0.68269  0.21755  1.0000
  H   H675      1.0  0.98650  0.60775  0.15389  1.0000
  H   H676      1.0  0.22878  0.86509  0.06381  1.0000
  H   H677      1.0  0.18776  0.55060  0.12420  1.0000
  C   C843      1.0  0.09796  0.54096  0.04594  1.0000
  C   C844      1.0  0.24408  0.91611  0.10632  1.0000
  H   H678      1.0  0.00412  0.96633  0.22888  1.0000
  H   H679      1.0  0.04587  0.58714  0.04119  1.0000
  C   C845      1.0  0.01857  0.93449  0.15437  1.0000
  H   H680      1.0  0.05182  0.96292  0.18491  1.0000
  C   C846      1.0  0.15718  0.54205  0.10084  1.0000
  H   H681      1.0  0.18588  0.65295  0.11649  1.0000
  C   C847      1.0  0.18968  0.57610  0.08029  1.0000
  C   C848      1.0  0.23000  0.60101  0.10774  1.0000
  H   H682      1.0  0.06700  0.56889  0.00138  1.0000
  H   H683      1.0  0.28305  0.96513  0.99732  1.0000
  C   C849      1.0  0.31408  0.67205  0.22180  1.0000
  H   H684      1.0  0.15464  0.76433  0.09404  1.0000
  C   C850      1.0  0.17674  0.58175  0.06980  1.0000
  H   H685      1.0  0.24328  0.93223  0.11078  1.0000
  C   C851      1.0  0.31382  0.84230  0.10867  1.0000
  H   H686      1.0  0.28362  0.84041  0.06948  1.0000
  H   H687      1.0  0.20360  0.82141  0.06816  1.0000
  C   C852      1.0  0.22586  0.57150  0.13064  1.0000
  C   C853      1.0  0.27408  0.98460  0.14244  1.0000
  H   H688      1.0  0.22419  0.56027  0.13961  1.0000
  H   H689      1.0  0.01418  0.58921  0.14947  1.0000
  C   C854      1.0  0.13455  0.60457  0.10132  1.0000
  C   C855      1.0  0.24101  0.97034  0.16436  1.0000
  H   H690      1.0  0.16821  0.52547  0.08368  1.0000
  C   C856      1.0  0.04984  0.54321  0.03352  1.0000
  Fe  Fe65      1.0  0.31178  0.67240  0.18316  1.0000
  C   C857      1.0  0.18373  0.61852  0.10868  1.0000
  C   C858      1.0  0.00427  0.90588  0.12235  1.0000
  H   H691      1.0  0.12802  0.54673  0.17787  1.0000
  C   C859      1.0  0.21390  0.80819  0.10181  1.0000
  C   C860      1.0  0.29239  0.82077  0.10437  1.0000
  C   C861      1.0  0.26013  0.96410  0.16451  1.0000
  C   C862      1.0  0.13878  0.56368  0.18427  1.0000
  H   H692      1.0  0.03771  0.50012  0.06392  1.0000
  H   H693      1.0  0.23192  0.61273  0.09898  1.0000
  C   C863      1.0  0.08253  0.54167  0.05648  1.0000
  H   H694      1.0  0.21519  0.85344  0.10754  1.0000
  P   P29       1.0  0.03056  0.93600  0.12597  1.0000
  H   H695      1.0  0.11318  0.57775  0.18040  1.0000
  C   C864      1.0  0.29530  0.86717  0.10043  1.0000
  H   H696      1.0  0.17134  0.59448  0.22784  1.0000
  H   H697      1.0  0.11533  0.59901  0.09882  1.0000
  C   C865      1.0  0.00849  0.50935  0.17798  1.0000
  H   H698      1.0  0.09596  0.54554  0.03517  1.0000
  H   H699      1.0  0.02720  0.52167  0.17533  1.0000
  H   H700      1.0  0.14207  0.55194  0.11888  1.0000
  Fe  Fe66      1.0  0.31558  0.63798  0.16009  1.0000
  C   C866      1.0  0.06181  0.95872  0.14978  1.0000
  C   C867      1.0  0.11868  0.52734  0.06292  1.0000
  H   H701      1.0  0.22823  0.96486  0.17286  1.0000
  C   C868      1.0  0.25774  0.67954  0.19651  1.0000
  H   H702      1.0  0.29736  0.88538  0.09860  1.0000
  H   H703      1.0  0.21333  0.89004  0.11763  1.0000
  C   C869      1.0  0.99092  0.49577  0.16712  1.0000
  H   H704      1.0  0.03196  0.50947  0.23236  1.0000
  C   C870      1.0  0.22459  0.63915  0.18907  1.0000
  C   C871      1.0  0.20064  0.81224  0.07807  1.0000
  C   C872      1.0  0.08784  0.59439  0.06765  1.0000
  C   C873      1.0  0.13040  0.58122  0.18569  1.0000
  H   H705      1.0  0.16532  0.94127  0.11934  1.0000
  C   C874      1.0  0.08765  0.63315  0.06337  1.0000
  H   H706      1.0  0.25532  0.96587  0.08302  1.0000
  C   C875      1.0  0.30021  0.64622  0.22162  1.0000
  C   C876      1.0  0.28591  0.57902  0.20562  1.0000
  H   H707      1.0  0.27017  0.69855  0.19421  1.0000
  H   H708      1.0  0.23361  0.97299  0.10253  1.0000
  C   C877      1.0  0.23836  0.98367  0.15325  1.0000
  H   H709      1.0  0.18418  0.89577  0.00605  1.0000
  H   H710      1.0  0.20784  0.51838  0.19854  1.0000
  C   C878      1.0  0.03759  0.94282  0.14477  1.0000
  C   C879      1.0  0.31530  0.86546  0.10662  1.0000
  H   H711      1.0  0.28426  0.56835  0.22728  1.0000
  C   C880      1.0  0.20202  0.57756  0.05172  1.0000
  C   C881      1.0  0.26185  0.91904  0.09658  1.0000
  C   C882      1.0  0.99625  0.97882  0.22964  1.0000
  C   C883      1.0  0.16709  0.60805  0.20003  1.0000
  C   C884      1.0  0.20262  0.97029  0.12288  1.0000
  H   H712      1.0  0.01093  0.88932  0.14086  1.0000
  H   H713      1.0  0.99423  0.76111  0.06745  1.0000
  C   C885      1.0  0.17720  0.96106  0.12074  1.0000
  H   H714      1.0  0.00396  0.54801  0.15846  1.0000
  H   H715      1.0  0.99960  0.92338  0.15063  1.0000
  H   H716      1.0  0.98526  0.94032  0.12267  1.0000
  C   C886      1.0  0.27351  0.84562  0.09625  1.0000
  C   C887      1.0  0.03208  0.87236  0.06259  1.0000
  C   C888      1.0  0.29391  0.63399  0.23450  1.0000
  C   C889      1.0  0.06047  0.59605  0.04931  1.0000
  H   H717      1.0  0.17802  0.95952  0.99337  1.0000
  C   C890      1.0  0.22725  0.89237  0.11016  1.0000
  C   C891      1.0  0.02324  0.51545  0.01431  1.0000
  H   H718      1.0  0.01550  0.51784  0.20057  1.0000
  C   C892      1.0  0.25325  0.98458  0.10222  1.0000
  C   C893      1.0  0.11597  0.53385  0.04917  1.0000
  C   C894      1.0  0.01557  0.54182  0.06553  1.0000
  H   H719      1.0  0.29338  0.59262  0.18452  1.0000
  H   H720      1.0  0.02001  0.83401  0.05696  1.0000
  C   C895      1.0  0.06337  0.56049  0.02351  1.0000
  C   C896      1.0  0.18015  0.94336  0.99057  1.0000
  H   H721      1.0  0.22933  0.56739  0.05905  1.0000
  C   C897      1.0  0.99610  0.97724  0.11643  1.0000
  S   S130      1.0  0.00177  0.98054  0.15968  1.0000
  H   H722      1.0  0.29149  0.96640  0.15366  1.0000
  H   H723      1.0  0.21821  0.56543  0.08409  1.0000
  H   H724      1.0  0.20689  0.57827  0.04071  1.0000
  C   C898      1.0  0.02119  0.84715  0.06531  1.0000
  C   C899      1.0  0.99756  0.57928  0.15523  1.0000
  C   C900      1.0  0.02985  0.52054  0.02880  1.0000
  S   S131      1.0  0.30336  0.94853  0.06816  1.0000
  C   C901      1.0  0.00559  0.49512  0.07466  1.0000
  H   H725      1.0  0.27614  0.90086  0.08277  1.0000
  C   C902      1.0  0.01222  0.83902  0.07876  1.0000
  H   H726      1.0  0.08562  0.97841  0.16798  1.0000
  C   C903      1.0  0.25486  0.99089  0.14218  1.0000
  H   H727      1.0  0.28712  0.98987  0.13411  1.0000
  C   C904      1.0  0.03372  0.49268  0.23240  1.0000
  H   H728      1.0  0.98524  0.66532  0.13515  1.0000
  Fe  Fe67      1.0  0.98776  0.99047  0.17953  1.0000
  Fe  Fe68      1.0  0.06867  0.73457  0.41952  1.0000
  S   S132      1.0  0.05080  0.69887  0.43120  1.0000
  S   S133      1.0  0.11042  0.75893  0.42349  1.0000
  Fe  Fe69      1.0  0.01885  0.72529  0.40578  1.0000
  H   H729      1.0  0.99313  0.61502  0.33975  1.0000
  S   S134      1.0  0.00327  0.74314  0.39024  1.0000
  Fe  Fe70      1.0  0.02117  0.70934  0.43639  1.0000
  C   C905      1.0  0.11822  0.80005  0.45630  1.0000
  Fe  Fe71      1.0  0.02913  0.68150  0.41052  1.0000
  S   S135      1.0  0.01743  0.64254  0.40036  1.0000
  S   S136      1.0  0.04037  0.74595  0.42581  1.0000
  S   S137      1.0  0.04877  0.71643  0.39865  1.0000
  Fe  Fe72      1.0  0.24877  0.93307  0.43670  1.0000
  S   S138      1.0  0.22185  0.93144  0.41938  1.0000
  S   S139      1.0  0.24102  0.93738  0.46025  1.0000
  Fe  Fe73      1.0  0.27861  0.91998  0.41502  1.0000
  S   S140      1.0  0.25357  0.91738  0.39664  1.0000
  H   H730      1.0  0.26136  0.70914  0.29836  1.0000
  Fe  Fe74      1.0  0.25491  0.95217  0.40636  1.0000
  C   C906      1.0  0.00913  0.96822  0.34912  1.0000
  Fe  Fe75      1.0  0.22218  0.89668  0.41101  1.0000
  S   S141      1.0  0.18600  0.86506  0.40147  1.0000
  S   S142      1.0  0.28197  0.95606  0.42414  1.0000
  S   S143      1.0  0.24711  0.89689  0.42891  1.0000
  Fe  Fe76      1.0  0.05879  0.50341  0.35532  1.0000
  S   S144      1.0  0.06631  0.50841  0.33196  1.0000
  Fe  Fe77      1.0  0.07288  0.55877  0.36019  1.0000
  S   S145      1.0  0.08123  0.56639  0.33718  1.0000
  S   S146      1.0  0.08094  0.59299  0.37473  1.0000
  Fe  Fe78      1.0  0.04622  0.53095  0.33213  1.0000
  S   S147      1.0  0.02283  0.53340  0.31348  1.0000
  Fe  Fe79      1.0  0.10085  0.54351  0.33866  1.0000
  S   S148      1.0  0.13477  0.55066  0.32584  1.0000
  S   S149      1.0  0.03676  0.52456  0.35510  1.0000
  S   S150      1.0  0.09463  0.53729  0.36204  1.0000
  C   C907      1.0  0.01027  0.88123  0.34462  1.0000
  S   S151      1.0  0.28604  0.67002  0.29653  1.0000
  S   S152      1.0  0.29357  0.63096  0.26358  1.0000
  H   H731      1.0  0.13893  0.74327  0.40419  1.0000
  Fe  Fe80      1.0  0.28106  0.64649  0.31532  1.0000
  S   S153      1.0  0.24772  0.63548  0.32936  1.0000
  H   H732      1.0  0.17227  0.89665  0.47060  1.0000
  H   H733      1.0  0.07418  0.81046  0.48103  1.0000
  C   C908      1.0  0.16340  0.90314  0.43567  1.0000
  H   H734      1.0  0.99076  0.60295  0.36800  1.0000
  H   H735      1.0  0.05153  0.71153  0.36656  1.0000
  C   C909      1.0  0.00605  0.58849  0.34417  1.0000
  C   C910      1.0  0.99563  0.51131  0.30392  1.0000
  C   C911      1.0  0.07884  0.50496  0.26842  1.0000
  H   H736      1.0  0.98918  0.58045  0.31689  1.0000
  C   C912      1.0  0.16595  0.57481  0.32688  1.0000
  C   C913      1.0  0.18222  0.57493  0.31657  1.0000
  C   C914      1.0  0.20715  0.59340  0.31703  1.0000
  C   C915      1.0  0.21626  0.61197  0.32790  1.0000
  C   C916      1.0  0.19997  0.61186  0.33819  1.0000
  C   C917      1.0  0.17501  0.59351  0.33768  1.0000
  H   H737      1.0  0.17551  0.56059  0.30818  1.0000
  H   H738      1.0  0.21936  0.59312  0.30906  1.0000
  H   H739      1.0  0.20674  0.62605  0.34667  1.0000
  H   H740      1.0  0.16284  0.59372  0.34570  1.0000
  H   H741      1.0  0.16476  0.91703  0.42838  1.0000
  C   C918      1.0  0.03555  0.62925  0.39321  1.0000
  C   C919      1.0  0.02387  0.60400  0.38870  1.0000
  C   C920      1.0  0.03722  0.59277  0.38264  1.0000
  C   C921      1.0  0.06268  0.60651  0.38132  1.0000
  C   C922      1.0  0.07441  0.63169  0.38600  1.0000
  C   C923      1.0  0.06096  0.64305  0.39177  1.0000
  H   H742      1.0  0.00439  0.59293  0.39012  1.0000
  H   H743      1.0  0.02800  0.57333  0.37936  1.0000
  H   H744      1.0  0.09410  0.64249  0.38519  1.0000
  H   H745      1.0  0.07034  0.66241  0.39526  1.0000
  C   C924      1.0  0.13084  0.78883  0.41753  1.0000
  C   C925      1.0  0.15580  0.80008  0.42219  1.0000
  C   C926      1.0  0.17285  0.82342  0.41748  1.0000
  C   C927      1.0  0.16519  0.83584  0.40801  1.0000
  C   C928      1.0  0.14030  0.82449  0.40323  1.0000
  C   C929      1.0  0.12317  0.80126  0.40806  1.0000
  H   H746      1.0  0.16203  0.79053  0.42938  1.0000
  H   H747      1.0  0.19198  0.83165  0.42095  1.0000
  H   H748      1.0  0.13418  0.83381  0.39581  1.0000
  H   H749      1.0  0.10410  0.79285  0.40432  1.0000
  C   C930      1.0  0.08960  0.95763  0.34066  1.0000
  H   H750      1.0  0.00106  0.56734  0.24954  1.0000
  C   C931      1.0  0.99775  0.51043  0.25155  1.0000
  C   C932      1.0  0.09869  0.95809  0.32718  1.0000
  H   H751      1.0  0.01660  0.98751  0.34653  1.0000
  C   C933      1.0  0.27880  0.74348  0.31097  1.0000
  H   H752      1.0  0.21545  0.77699  0.39484  1.0000
  C   C934      1.0  0.09328  0.78271  0.45614  1.0000
  H   H753      1.0  0.30959  0.59970  0.27859  1.0000
  H   H754      1.0  0.13211  0.76907  0.38679  1.0000
  H   H755      1.0  0.08999  0.94351  0.30554  1.0000
  H   H756      1.0  0.18058  0.74734  0.40830  1.0000
  C   C935      1.0  0.05806  0.50672  0.27287  1.0000
  C   C936      1.0  0.00901  0.61211  0.34123  1.0000
  C   C937      1.0  0.19730  0.77520  0.39285  1.0000
  C   C938      1.0  0.27414  0.71397  0.33393  1.0000
  C   C939      1.0  0.24562  0.79604  0.33670  1.0000
  H   H757      1.0  0.08248  0.53971  0.30429  1.0000
  C   C940      1.0  0.18936  0.79700  0.45798  1.0000
  C   C941      1.0  0.05965  0.51945  0.28584  1.0000
  H   H758      1.0  0.04402  0.52138  0.28943  1.0000
  H   H759      1.0  0.04775  0.89463  0.35285  1.0000
  H   H760      1.0  0.02935  0.96049  0.33334  1.0000
  C   C942      1.0  0.27304  0.74825  0.36572  1.0000
  C   C943      1.0  0.31631  0.78693  0.35255  1.0000
  C   C944      1.0  0.10062  0.51548  0.27691  1.0000
  C   C945      1.0  0.05097  0.94407  0.26518  1.0000
  C   C946      1.0  0.06216  0.98785  0.26754  1.0000
  C   C947      1.0  0.02909  0.87972  0.35255  1.0000
  C   C948      1.0  0.06477  0.94209  0.34299  1.0000
  H   H761      1.0  0.15151  0.87412  0.41927  1.0000
  C   C949      1.0  0.04975  0.98348  0.28026  1.0000
  H   H762      1.0  0.10175  0.96963  0.34926  1.0000
  H   H763      1.0  0.00206  0.53485  0.28627  1.0000
  H   H764      1.0  0.13159  0.50750  0.40602  1.0000
  H   H765      1.0  0.25682  0.68303  0.31877  1.0000
  C   C950      1.0  0.17375  0.85630  0.48319  1.0000
  H   H766      1.0  0.21389  0.73695  0.34724  1.0000
  H   H767      1.0  0.24797  0.82834  0.34780  1.0000
  H   H768      1.0  0.22627  0.86077  0.38303  1.0000
  H   H769      1.0  0.22201  0.80408  0.44686  1.0000
  C   C951      1.0  0.99948  0.89834  0.31781  1.0000
  H   H770      1.0  0.19207  0.88017  0.34917  1.0000
  H   H771      1.0  0.11788  0.97041  0.32537  1.0000
  H   H772      1.0  0.18295  0.49525  0.43758  1.0000
  C   C952      1.0  0.19180  0.84493  0.34618  1.0000
  H   H773      1.0  0.18177  0.84050  0.33601  1.0000
  C   C953      1.0  0.25813  0.76132  0.38632  1.0000
  H   H774      1.0  0.19336  0.81063  0.34633  1.0000
  H   H775      1.0  0.30754  0.84802  0.38786  1.0000
  C   C954      1.0  0.08660  0.80748  0.47426  1.0000
  C   C955      1.0  0.05044  0.60533  0.34528  1.0000
  C   C956      1.0  0.05326  0.62883  0.34265  1.0000
  C   C957      1.0  0.03253  0.63221  0.34051  1.0000
  H   H776      1.0  0.06657  0.60287  0.34709  1.0000
  H   H777      1.0  0.07157  0.64438  0.34237  1.0000
  H   H778      1.0  0.03475  0.65046  0.33848  1.0000
  C   C958      1.0  0.15602  0.87895  0.43051  1.0000
  C   C959      1.0  0.25655  0.96139  0.47381  1.0000
  C   C960      1.0  0.25046  0.72641  0.36432  1.0000
  C   C961      1.0  0.19854  0.82812  0.35204  1.0000
  C   C962      1.0  0.23193  0.72212  0.37384  1.0000
  H   H779      1.0  0.14903  0.84235  0.43559  1.0000
  H   H780      1.0  0.99594  0.66294  0.46572  1.0000
  H   H781      1.0  0.23161  0.84706  0.44154  1.0000
  C   C963      1.0  0.12776  0.82091  0.46578  1.0000
  S   S154      1.0  0.00732  0.71374  0.45834  1.0000
  H   H782      1.0  0.98782  0.72388  0.48364  1.0000
  C   C964      1.0  0.22709  0.59202  0.24632  1.0000
  H   H783      1.0  0.99465  0.97806  0.25260  1.0000
  C   C965      1.0  0.21544  0.83570  0.44732  1.0000
  C   C966      1.0  0.30134  0.64735  0.24768  1.0000
  H   H784      1.0  0.04147  0.57959  0.26186  1.0000
  P   P30       1.0  0.01641  0.90830  0.33474  1.0000
  C   C967      1.0  0.17882  0.83065  0.45911  1.0000
  C   C968      1.0  0.01633  0.95283  0.34161  1.0000
  H   H785      1.0  0.03843  0.85759  0.36636  1.0000
  H   H786      1.0  0.24013  0.76072  0.32795  1.0000
  C   C969      1.0  0.23616  0.77032  0.33654  1.0000
  C   C970      1.0  0.19351  0.78973  0.38281  1.0000
  C   C971      1.0  0.21795  0.97569  0.43979  1.0000
  P   P31       1.0  0.29743  0.75385  0.35367  1.0000
  C   C972      1.0  0.22143  0.75692  0.34745  1.0000
  H   H787      1.0  0.08615  0.76656  0.44885  1.0000
  C   C973      1.0  0.16791  0.89140  0.45945  1.0000
  C   C974      1.0  0.99075  0.98529  0.24309  1.0000
  H   H788      1.0  0.26026  0.85341  0.41887  1.0000
  H   H789      1.0  0.12985  0.79715  0.44887  1.0000
  H   H790      1.0  0.02530  0.56719  0.34821  1.0000
  C   C975      1.0  0.24048  0.80837  0.34781  1.0000
  C   C976      1.0  0.03633  0.54227  0.26211  1.0000
  C   C977      1.0  0.03207  0.70175  0.36359  1.0000
  H   H791      1.0  0.17500  0.92809  0.45419  1.0000
  H   H792      1.0  0.30162  0.86116  0.41191  1.0000
  C   C978      1.0  0.01925  0.71506  0.36092  1.0000
  H   H793      1.0  0.24300  0.59212  0.25161  1.0000
  C   C979      1.0  0.24534  0.82663  0.38534  1.0000
  C   C980      1.0  0.06297  0.96799  0.26011  1.0000
  C   C981      1.0  0.24228  0.83446  0.39897  1.0000
  H   H794      1.0  0.26121  0.77480  0.39490  1.0000
  C   C982      1.0  0.27765  0.98348  0.47131  1.0000
  H   H795      1.0  0.28149  0.75487  0.30195  1.0000
  H   H796      1.0  0.11661  0.51407  0.27348  1.0000
  S   S155      1.0  0.31269  0.91384  0.41404  1.0000
  Fe  Fe81      1.0  0.30336  0.64876  0.28616  1.0000
  H   H797      1.0  0.02941  0.92146  0.28187  1.0000
  H   H798      1.0  0.11877  0.53611  0.29641  1.0000
  H   H799      1.0  0.21465  0.70509  0.37274  1.0000
  H   H800      1.0  0.07846  0.49570  0.25841  1.0000
  C   C983      1.0  0.18799  0.59224  0.24760  1.0000
  H   H801      1.0  0.17919  0.96213  0.43531  1.0000
  H   H802      1.0  0.02927  0.66561  0.36593  1.0000
  H   H803      1.0  0.24701  0.71248  0.35602  1.0000
  C   C984      1.0  0.99214  0.95869  0.35974  1.0000
  H   H804      1.0  0.15830  0.79532  0.46868  1.0000
  H   H805      1.0  0.15860  0.49229  0.32998  1.0000
  C   C985      1.0  0.17765  0.75837  0.40046  1.0000
  H   H806      1.0  0.28535  0.79447  0.35148  1.0000
  C   C986      1.0  0.08297  0.94292  0.31602  1.0000
  C   C987      1.0  0.20816  0.59163  0.25435  1.0000
  C   C988      1.0  0.99334  0.69519  0.47313  1.0000
  H   H807      1.0  0.20437  0.86408  0.44919  1.0000
  H   H808      1.0  0.12236  0.49971  0.32898  1.0000
  C   C989      1.0  0.15026  0.77050  0.38824  1.0000
  H   H809      1.0  0.13851  0.49202  0.38306  1.0000
  C   C990      1.0  0.99007  0.67106  0.47417  1.0000
  C   C991      1.0  0.31527  0.67315  0.24784  1.0000
  H   H810      1.0  0.17341  0.59208  0.25388  1.0000
  C   C992      1.0  0.99010  0.91844  0.35559  1.0000
  C   C993      1.0  0.04883  0.92679  0.33184  1.0000
  C   C994      1.0  0.23571  0.73959  0.38479  1.0000
  H   H811      1.0  0.02917  0.95669  0.29546  1.0000
  C   C995      1.0  0.99146  0.91344  0.31088  1.0000
  C   C996      1.0  0.21015  0.87281  0.36678  1.0000
  C   C997      1.0  0.17397  0.80664  0.46253  1.0000
  H   H812      1.0  0.20463  0.75832  0.36682  1.0000
  C   C998      1.0  0.28754  0.75455  0.32454  1.0000
  C   C999      1.0  0.22578  0.79505  0.35886  1.0000
  H   H813      1.0  0.05812  0.77273  0.46495  1.0000
  H   H814      1.0  0.05435  0.54829  0.26706  1.0000
  C   C1000     1.0  0.05813  0.92728  0.31832  1.0000
  C   C1001     1.0  0.21007  0.81152  0.45036  1.0000
  C   C1002     1.0  0.08144  0.52996  0.29427  1.0000
  C   C1003     1.0  0.21706  0.85614  0.37263  1.0000
  C   C1004     1.0  0.19760  0.86727  0.35356  1.0000
  C   C1005     1.0  0.28589  0.85119  0.40457  1.0000
  H   H815      1.0  0.00199  0.86418  0.31597  1.0000
  H   H816      1.0  0.05143  0.92878  0.25934  1.0000
  C   C1006     1.0  0.03862  0.93991  0.27786  1.0000
  H   H817      1.0  0.21575  0.95847  0.44390  1.0000
  H   H818      1.0  0.27301  0.70217  0.34254  1.0000
  H   H819      1.0  0.98636  0.97059  0.36542  1.0000
  H   H820      1.0  0.25697  0.80644  0.32821  1.0000
  C   C1007     1.0  0.28518  0.73985  0.33617  1.0000
  C   C1008     1.0  0.15487  0.86105  0.43975  1.0000
  H   H821      1.0  0.18521  0.77827  0.46040  1.0000
  S   S156      1.0  0.29602  0.62325  0.30442  1.0000
  H   H822      1.0  0.04625  0.91595  0.30949  1.0000
  C   C1009     1.0  0.03828  0.95968  0.28546  1.0000
  H   H823      1.0  0.21403  0.88982  0.37271  1.0000
  C   C1010     1.0  0.99094  0.52852  0.24822  1.0000
  C   C1011     1.0  0.28919  0.84372  0.39100  1.0000
  H   H824      1.0  0.99445  0.93095  0.31570  1.0000
  C   C1012     1.0  0.15413  0.75597  0.39812  1.0000
  H   H825      1.0  0.22134  0.73611  0.39217  1.0000
  C   C1013     1.0  0.26901  0.83146  0.38140  1.0000
  C   C1014     1.0  0.27681  0.76552  0.37694  1.0000
  C   C1015     1.0  0.26251  0.84673  0.40852  1.0000
  P   P32       1.0  0.02976  0.49361  0.26198  1.0000
  C   C1016     1.0  0.02695  0.58516  0.34601  1.0000
  C   C1017     1.0  0.16986  0.78741  0.38065  1.0000
  H   H826      1.0  0.22432  0.83153  0.40214  1.0000
  H   H827      1.0  0.28522  0.98618  0.46091  1.0000
  C   C1018     1.0  0.00675  0.92777  0.34468  1.0000
  C   C1019     1.0  0.21138  0.83367  0.36529  1.0000
  H   H828      1.0  0.29428  0.78217  0.37857  1.0000
  C   C1020     1.0  0.01955  0.67589  0.36312  1.0000
  C   C1021     1.0  0.21623  0.76918  0.35858  1.0000
  H   H829      1.0  0.20932  0.59118  0.26583  1.0000
  H   H830      1.0  0.07311  0.97094  0.25053  1.0000
  C   C1022     1.0  0.02922  0.56027  0.25899  1.0000
  C   C1023     1.0  0.11159  0.82488  0.47446  1.0000
  H   H831      1.0  0.02871  0.73513  0.36203  1.0000
  S   S157      1.0  0.26457  0.98472  0.39200  1.0000
  C   C1024     1.0  0.26755  0.71772  0.30891  1.0000
  C   C1025     1.0  0.02388  0.85870  0.36024  1.0000
  H   H832      1.0  0.21639  0.97959  0.39968  1.0000
  P   P33       1.0  0.15991  0.84365  0.46575  1.0000
  C   C1026     1.0  0.16919  0.90933  0.45015  1.0000
  H   H833      1.0  0.27213  0.82608  0.37096  1.0000
  C   C1027     1.0  0.16133  0.86725  0.45422  1.0000
  C   C1028     1.0  0.02040  0.51705  0.25868  1.0000
  H   H834      1.0  0.05790  0.94230  0.35344  1.0000
  C   C1029     1.0  0.26511  0.70300  0.32041  1.0000
  H   H835      1.0  0.00367  0.77266  0.44000  1.0000
  P   P34       1.0  0.21905  0.81134  0.37303  1.0000
  C   C1030     1.0  0.98626  0.86136  0.34449  1.0000
  C   C1031     1.0  0.19738  0.97781  0.43506  1.0000
  C   C1032     1.0  0.07748  0.78629  0.46517  1.0000
  C   C1033     1.0  0.19986  0.84526  0.45163  1.0000
  H   H836      1.0  0.31019  0.74545  0.38254  1.0000
  C   C1034     1.0  0.31623  0.74067  0.36037  1.0000
  C   C1035     1.0  0.10190  0.52793  0.28982  1.0000
  H   H837      1.0  0.16643  0.79882  0.37331  1.0000
  S   S158      1.0  0.99795  0.68950  0.41655  1.0000
  H   H838      1.0  0.99583  0.82287  0.36610  1.0000
  C   C1036     1.0  0.00650  0.55340  0.25206  1.0000
  H   H839      1.0  0.31101  0.83992  0.35039  1.0000
  C   C1037     1.0  0.99398  0.70254  0.35751  1.0000
  C   C1038     1.0  0.99549  0.87590  0.31103  1.0000
  H   H840      1.0  0.30681  0.91514  0.38295  1.0000
  H   H841      1.0  0.20674  0.88612  0.47511  1.0000
  C   C1039     1.0  0.30516  0.80234  0.35160  1.0000
  C   C1040     1.0  0.99990  0.83910  0.36009  1.0000
  S   S159      1.0  0.98873  0.97093  0.28969  1.0000
  C   C1041     1.0  0.99433  0.66333  0.35961  1.0000
  C   C1042     1.0  0.98981  0.51726  0.29054  1.0000
  H   H842      1.0  0.29683  0.77453  0.32575  1.0000
  H   H843      1.0  0.98802  0.74081  0.42026  1.0000
  C   C1043     1.0  0.98742  0.75514  0.44130  1.0000
  H   H844      1.0  0.98485  0.64334  0.35963  1.0000
  C   C1044     1.0  0.98554  0.70531  0.48431  1.0000
  H   H845      1.0  0.98540  0.49138  0.24826  1.0000
  H   H846      1.0  0.11826  0.84148  0.48130  1.0000
  C   C1045     1.0  0.19724  0.87705  0.48447  1.0000
  C   C1046     1.0  0.99802  0.75410  0.59557  1.0000
  H   H847      1.0  0.20720  0.95451  0.51125  1.0000
  H   H848      1.0  0.13793  0.79929  0.54060  1.0000
  C   C1047     1.0  0.14925  0.69014  0.73206  1.0000
  Fe  Fe82      1.0  0.07831  0.84117  0.61008  1.0000
  S   S160      1.0  0.06352  0.83679  0.63200  1.0000
  S   S161      1.0  0.05948  0.81964  0.58920  1.0000
  Fe  Fe83      1.0  0.12944  0.88282  0.62001  1.0000
  S   S162      1.0  0.11840  0.88095  0.64278  1.0000
  S   S163      1.0  0.16982  0.90780  0.61492  1.0000
  Fe  Fe84      1.0  0.09989  0.83963  0.63947  1.0000
  S   S164      1.0  0.09833  0.81077  0.65486  1.0000
  Fe  Fe85      1.0  0.08285  0.87857  0.63399  1.0000
  S   S165      1.0  0.07005  0.90150  0.64779  1.0000
  S   S166      1.0  0.11345  0.84128  0.61735  1.0000
  S   S167      1.0  0.09522  0.88308  0.61138  1.0000
  Fe  Fe86      1.0  0.02391  0.52462  0.71624  1.0000
  H   H849      1.0  0.20039  0.86347  0.64878  1.0000
  S   S168      1.0  0.06428  0.54740  0.71231  1.0000
  Fe  Fe87      1.0  0.17784  0.80353  0.72447  1.0000
  S   S169      1.0  0.20691  0.79125  0.72182  1.0000
  S   S170      1.0  0.17082  0.82700  0.70833  1.0000
  C   C1048     1.0  0.10498  0.96002  0.61732  1.0000
  C   C1049     1.0  0.00301  0.57271  0.65188  1.0000
  C   C1050     1.0  0.01435  0.66992  0.57161  1.0000
  H   H850      1.0  0.08703  0.82471  0.72424  1.0000
  C   C1051     1.0  0.11664  0.86236  0.72347  1.0000
  H   H851      1.0  0.03591  0.72487  0.59505  1.0000
  C   C1052     1.0  0.11792  0.81605  0.67014  1.0000
  C   C1053     1.0  0.11304  0.79635  0.67904  1.0000
  C   C1054     1.0  0.12865  0.79942  0.69096  1.0000
  C   C1055     1.0  0.14956  0.82220  0.69399  1.0000
  C   C1056     1.0  0.15419  0.84201  0.68523  1.0000
  C   C1057     1.0  0.13846  0.83901  0.67339  1.0000
  H   H852      1.0  0.09716  0.77855  0.67664  1.0000
  H   H853      1.0  0.12466  0.78413  0.69771  1.0000
  H   H854      1.0  0.17024  0.85973  0.68751  1.0000
  H   H855      1.0  0.14246  0.85432  0.66664  1.0000
  H   H856      1.0  0.11249  0.96068  0.65332  1.0000
  C   C1058     1.0  0.01402  0.93083  0.64057  1.0000
  C   C1059     1.0  0.01617  0.91489  0.63026  1.0000
  C   C1060     1.0  0.03303  0.90557  0.63234  1.0000
  C   C1061     1.0  0.04822  0.91237  0.64466  1.0000
  C   C1062     1.0  0.04609  0.92832  0.65497  1.0000
  C   C1063     1.0  0.02906  0.93745  0.65298  1.0000
  H   H857      1.0  0.00466  0.90965  0.62062  1.0000
  H   H858      1.0  0.03411  0.89291  0.62451  1.0000
  H   H859      1.0  0.05770  0.93365  0.66457  1.0000
  H   H860      1.0  0.02775  0.94981  0.66096  1.0000
  C   C1064     1.0  0.01821  0.91852  0.58849  1.0000
  H   H861      1.0  0.25432  0.80340  0.68915  1.0000
  Fe  Fe88      1.0  0.06646  0.57197  0.73121  1.0000
  H   H862      1.0  0.20654  0.88149  0.52039  1.0000
  H   H863      1.0  0.99763  0.68839  0.58320  1.0000
  C   C1065     1.0  0.10228  0.96394  0.63178  1.0000
  C   C1066     1.0  0.20854  0.96580  0.58120  1.0000
  C   C1067     1.0  0.22185  0.95810  0.59015  1.0000
  C   C1068     1.0  0.20965  0.94036  0.60034  1.0000
  C   C1069     1.0  0.18399  0.92978  0.60163  1.0000
  C   C1070     1.0  0.17063  0.93724  0.59254  1.0000
  C   C1071     1.0  0.18290  0.95533  0.58254  1.0000
  C   C1072     1.0  0.25893  0.97643  0.49863  1.0000
  H   H864      1.0  0.22020  0.93473  0.60727  1.0000
  H   H865      1.0  0.15091  0.92920  0.59329  1.0000
  H   H866      1.0  0.17246  0.96130  0.57578  1.0000
  H   H867      1.0  0.08674  0.66426  0.73311  1.0000
  C   C1073     1.0  0.22692  0.79023  0.66098  1.0000
  C   C1074     1.0  0.13116  0.94904  0.63827  1.0000
  C   C1075     1.0  0.19700  0.94121  0.51904  1.0000
  H   H868      1.0  0.13144  0.62773  0.73037  1.0000
  C   C1076     1.0  0.00708  0.75401  0.57080  1.0000
  C   C1077     1.0  0.02752  0.77775  0.57319  1.0000
  C   C1078     1.0  0.03345  0.78973  0.58679  1.0000
  C   C1079     1.0  0.01849  0.77777  0.59797  1.0000
  H   H869      1.0  0.21896  0.74334  0.63743  1.0000
  H   H870      1.0  0.22364  0.84734  0.66293  1.0000
  H   H871      1.0  0.03889  0.78685  0.56444  1.0000
  H   H872      1.0  0.02272  0.78672  0.60848  1.0000
  H   H873      1.0  0.05038  0.75957  0.64467  1.0000
  C   C1080     1.0  0.10037  0.82337  0.53066  1.0000
  C   C1081     1.0  0.10905  0.80609  0.53200  1.0000
  C   C1082     1.0  0.13130  0.81276  0.53948  1.0000
  C   C1083     1.0  0.14488  0.83669  0.54567  1.0000
  C   C1084     1.0  0.13615  0.85408  0.54448  1.0000
  C   C1085     1.0  0.11387  0.84729  0.53684  1.0000
  P   P35       1.0  0.15341  0.88502  0.55246  1.0000
  C   C1086     1.0  0.13183  0.89358  0.56039  1.0000
  C   C1087     1.0  0.17430  0.88463  0.56615  1.0000
  C   C1088     1.0  0.19892  0.89158  0.56322  1.0000
  C   C1089     1.0  0.21489  0.89064  0.57369  1.0000
  C   C1090     1.0  0.20628  0.88211  0.58704  1.0000
  C   C1091     1.0  0.18169  0.87444  0.58990  1.0000
  C   C1092     1.0  0.16579  0.87589  0.57957  1.0000
  C   C1093     1.0  0.13505  0.91781  0.55966  1.0000
  C   C1094     1.0  0.11802  0.92416  0.56552  1.0000
  C   C1095     1.0  0.09749  0.90635  0.57202  1.0000
  C   C1096     1.0  0.09408  0.88220  0.57280  1.0000
  C   C1097     1.0  0.11118  0.87580  0.56706  1.0000
  C   C1098     1.0  0.17047  0.90684  0.53927  1.0000
  C   C1099     1.0  0.16448  0.90090  0.52470  1.0000
  C   C1100     1.0  0.17778  0.91801  0.51464  1.0000
  C   C1101     1.0  0.24723  0.95810  0.48754  1.0000
  H   H874      1.0  0.25173  0.97348  0.50914  1.0000
  C   C1102     1.0  0.18981  0.93024  0.54358  1.0000
  H   H875      1.0  0.08297  0.81809  0.52499  1.0000
  H   H876      1.0  0.00101  0.87866  0.58618  1.0000
  H   H877      1.0  0.02444  0.56926  0.68508  1.0000
  H   H878      1.0  0.16202  0.84141  0.55146  1.0000
  H   H879      1.0  0.10680  0.86042  0.53580  1.0000
  H   H880      1.0  0.20592  0.89779  0.55287  1.0000
  H   H881      1.0  0.23400  0.89666  0.57148  1.0000
  H   H882      1.0  0.21867  0.88165  0.59523  1.0000
  H   H883      1.0  0.17504  0.86805  0.60030  1.0000
  H   H884      1.0  0.14698  0.87031  0.58222  1.0000
  H   H885      1.0  0.15073  0.93198  0.55467  1.0000
  C   C1103     1.0  0.22800  0.76113  0.64324  1.0000
  H   H886      1.0  0.08420  0.91123  0.57641  1.0000
  H   H887      1.0  0.07819  0.86835  0.57789  1.0000
  H   H888      1.0  0.10814  0.85693  0.56785  1.0000
  H   H889      1.0  0.14967  0.88311  0.52102  1.0000
  C   C1104     1.0  0.04479  0.59735  0.67038  1.0000
  H   H890      1.0  0.02133  0.71517  0.63965  1.0000
  S   S171      1.0  0.02966  0.49873  0.73085  1.0000
  H   H891      1.0  0.19466  0.93541  0.55476  1.0000
  C   C1105     1.0  0.26393  0.80094  0.64799  1.0000
  H   H892      1.0  0.28275  0.81402  0.64587  1.0000
  C   C1106     1.0  0.06017  0.93891  0.59855  1.0000
  H   H893      1.0  0.14530  0.82731  0.49477  1.0000
  S   S172      1.0  0.22269  0.98807  0.56806  1.0000
  H   H894      1.0  0.21356  0.75424  0.68268  1.0000
  C   C1107     1.0  0.15095  0.66794  0.73115  1.0000
  H   H895      1.0  0.19626  0.75430  0.65510  1.0000
  C   C1108     1.0  0.15361  0.75078  0.69706  1.0000
  C   C1109     1.0  0.15965  0.73185  0.69950  1.0000
  C   C1110     1.0  0.18125  0.73317  0.69427  1.0000
  C   C1111     1.0  0.19652  0.75313  0.68625  1.0000
  C   C1112     1.0  0.19001  0.77171  0.68326  1.0000
  C   C1113     1.0  0.16893  0.77079  0.68914  1.0000
  C   C1114     1.0  0.23071  0.82063  0.68713  1.0000
  C   C1115     1.0  0.25072  0.81825  0.69288  1.0000
  C   C1116     1.0  0.26591  0.83473  0.70380  1.0000
  C   C1117     1.0  0.26094  0.85334  0.70924  1.0000
  C   C1118     1.0  0.24072  0.85544  0.70381  1.0000
  C   C1119     1.0  0.22563  0.83913  0.69281  1.0000
  C   C1120     1.0  0.16905  0.79436  0.65825  1.0000
  H   H896      1.0  0.00284  0.74502  0.56030  1.0000
  H   H897      1.0  0.13742  0.75028  0.70162  1.0000
  H   H898      1.0  0.14805  0.71655  0.70588  1.0000
  H   H899      1.0  0.18643  0.71903  0.69684  1.0000
  H   H900      1.0  0.16460  0.78580  0.68777  1.0000
  H   H901      1.0  0.26225  0.77305  0.63283  1.0000
  C   C1121     1.0  0.13220  0.99043  0.58958  1.0000
  H   H902      1.0  0.23631  0.86925  0.70837  1.0000
  H   H903      1.0  0.20962  0.84057  0.68907  1.0000
  H   H904      1.0  0.15997  0.77498  0.66064  1.0000
  H   H905      1.0  0.13708  0.79162  0.64672  1.0000
  P   P36       1.0  0.08806  0.96690  0.60374  1.0000
  H   H906      1.0  0.07198  0.78632  0.62515  1.0000
  H   H907      1.0  0.30659  0.50480  0.72612  1.0000
  C   C1122     1.0  0.09731  0.84010  0.71764  1.0000
  P   P37       1.0  0.21023  0.79835  0.67372  1.0000
  H   H908      1.0  0.21787  0.96537  0.53698  1.0000
  C   C1123     1.0  0.15610  0.80359  0.65014  1.0000
  H   H909      1.0  0.27239  0.86570  0.71793  1.0000
  H   H910      1.0  0.09841  0.78746  0.52734  1.0000
  C   C1124     1.0  0.98524  0.49381  0.63496  1.0000
  C   C1125     1.0  0.04725  0.75164  0.63390  1.0000
  C   C1126     1.0  0.05955  0.76680  0.62289  1.0000
  C   C1127     1.0  0.05548  0.75691  0.60895  1.0000
  C   C1128     1.0  0.03918  0.73181  0.60599  1.0000
  C   C1129     1.0  0.02713  0.71624  0.61703  1.0000
  C   C1130     1.0  0.03096  0.72651  0.63099  1.0000
  C   C1131     1.0  0.07986  0.98968  0.61089  1.0000
  H   H911      1.0  0.00717  0.57650  0.61583  1.0000
  H   H912      1.0  0.04955  0.69822  0.72844  1.0000
  C   C1132     1.0  0.01005  0.64033  0.65176  1.0000
  S   S173      1.0  0.10075  0.51142  0.72385  1.0000
  H   H913      1.0  0.04423  0.64080  0.58622  1.0000
  C   C1133     1.0  0.03145  0.66001  0.64709  1.0000
  C   C1134     1.0  0.03027  0.67289  0.63533  1.0000
  C   C1135     1.0  0.12971  0.64453  0.73107  1.0000
  H   H914      1.0  0.04838  0.96301  0.62171  1.0000
  H   H915      1.0  0.03965  0.95788  0.59201  1.0000
  C   C1136     1.0  0.13386  0.94495  0.62394  1.0000
  C   C1137     1.0  0.02763  0.65934  0.59811  1.0000
  Fe  Fe89      1.0  0.18280  0.75916  0.73532  1.0000
  C   C1138     1.0  0.21524  0.76734  0.65331  1.0000
  C   C1139     1.0  0.01756  0.89547  0.58946  1.0000
  C   C1140     1.0  0.25237  0.77788  0.64062  1.0000
  C   C1141     1.0  0.20889  0.88615  0.49785  1.0000
  H   H916      1.0  0.16887  0.66885  0.73050  1.0000
  S   S174      1.0  0.07860  0.61400  0.73152  1.0000
  H   H917      1.0  0.20544  0.87459  0.72680  1.0000
  H   H918      1.0  0.06450  0.76891  0.60037  1.0000
  S   S175      1.0  0.99333  0.51883  0.69953  1.0000
  H   H919      1.0  0.00020  0.94123  0.73204  1.0000
  H   H920      1.0  0.03231  0.65013  0.56272  1.0000
  C   C1142     1.0  0.12064  0.95011  0.61349  1.0000
  C   C1143     1.0  0.04639  0.91555  0.72665  1.0000
  H   H921      1.0  0.04896  0.66544  0.65266  1.0000
  H   H922      1.0  0.04702  0.68817  0.63186  1.0000
  C   C1144     1.0  0.02377  0.59390  0.64766  1.0000
  H   H923      1.0  0.05910  0.90816  0.72501  1.0000
  H   H924      1.0  0.28120  0.83274  0.70834  1.0000
  C   C1145     1.0  0.01446  0.67285  0.59740  1.0000
  H   H925      1.0  0.07494  0.96647  0.57352  1.0000
  H   H926      1.0  0.15705  0.83568  0.64078  1.0000
  H   H927      1.0  0.30796  0.94625  0.62684  1.0000
  H   H928      1.0  0.02411  0.60117  0.63734  1.0000
  C   C1146     1.0  0.19329  0.81015  0.66331  1.0000
  P   P38       1.0  0.00604  0.68367  0.61337  1.0000
  C   C1147     1.0  0.12987  0.88169  0.71446  1.0000
  C   C1148     1.0  0.12382  0.87882  0.69988  1.0000
  C   C1149     1.0  0.10462  0.85661  0.69417  1.0000
  C   C1150     1.0  0.09143  0.83727  0.70304  1.0000
  C   C1151     1.0  0.05931  0.98227  0.61933  1.0000
  H   H929      1.0  0.26031  0.82530  0.66350  1.0000
  H   H930      1.0  0.14517  0.89881  0.71866  1.0000
  H   H931      1.0  0.13429  0.89358  0.69290  1.0000
  H   H932      1.0  0.10025  0.85418  0.68281  1.0000
  H   H933      1.0  0.07694  0.81989  0.69849  1.0000
  H   H934      1.0  0.00930  0.67415  0.56135  1.0000
  C   C1152     1.0  0.16738  0.82849  0.64678  1.0000
  C   C1153     1.0  0.03948  0.94019  0.59290  1.0000
  C   C1154     1.0  0.99220  0.74202  0.58200  1.0000
  C   C1155     1.0  0.19173  0.84415  0.65139  1.0000
  C   C1156     1.0  0.00758  0.66624  0.62819  1.0000
  H   H935      1.0  0.98788  0.54781  0.66909  1.0000
  C   C1157     1.0  0.05932  0.91568  0.59944  1.0000
  H   H936      1.0  0.03762  0.87617  0.59578  1.0000
  H   H937      1.0  0.28678  0.81475  0.73533  1.0000
  H   H938      1.0  0.24154  0.96590  0.58927  1.0000
  H   H939      1.0  0.16575  0.84393  0.51826  1.0000
  H   H940      1.0  0.14076  0.94417  0.64635  1.0000
  C   C1158     1.0  0.16266  0.84418  0.49548  1.0000
  C   C1159     1.0  0.17438  0.85336  0.50884  1.0000
  C   C1160     1.0  0.02423  0.57638  0.67468  1.0000
  Fe  Fe90      1.0  0.07044  0.52305  0.72805  1.0000
  H   H941      1.0  0.06061  0.62233  0.65355  1.0000
  H   H942      1.0  0.03300  0.65504  0.60821  1.0000
  H   H943      1.0  0.06095  0.60661  0.67749  1.0000
  H   H944      1.0  0.17327  0.91328  0.50341  1.0000
  C   C1161     1.0  0.11539  0.95853  0.64219  1.0000
  S   S176      1.0  0.02576  0.55028  0.73454  1.0000
  H   H945      1.0  0.30084  0.96910  0.60747  1.0000
  C   C1162     1.0  0.02737  0.65643  0.57240  1.0000
  H   H946      1.0  0.12080  0.94292  0.56504  1.0000
  C   C1163     1.0  0.20474  0.83499  0.65951  1.0000
  H   H947      1.0  0.14583  0.93723  0.62095  1.0000
  C   C1164     1.0  0.04455  0.60614  0.65689  1.0000
  H   H948      1.0  0.01095  0.63051  0.66096  1.0000
  H   H949      1.0  0.16109  0.86067  0.72396  1.0000
  H   H950      1.0  0.23086  0.94122  0.48962  1.0000
  H   H951      1.0  0.07482  0.91414  0.60385  1.0000
  C   C1165     1.0  0.00779  0.67798  0.58404  1.0000
  C   C1166     1.0  0.19743  0.87439  0.51004  1.0000
  C   C1167     1.0  0.03817  0.89407  0.59485  1.0000
  H   H952      1.0  0.22700  0.90217  0.49870  1.0000
  C   C1168     1.0  0.25120  0.80720  0.65805  1.0000
  C   C1169     1.0  0.10633  0.64294  0.73173  1.0000
  H   H953      1.0  0.14324  0.50648  0.71605  1.0000
  H   H954      1.0  0.98662  0.74511  0.60430  1.0000
  H   H955      1.0  0.12243  0.94602  0.60247  1.0000
  C   C1170     1.0  0.10884  0.98370  0.56281  1.0000
  C   C1171     1.0  0.98984  0.59290  0.60307  1.0000
  S   S177      1.0  0.17675  0.71919  0.73190  1.0000
  C   C1172     1.0  0.98623  0.64615  0.63281  1.0000
  C   C1173     1.0  0.20301  0.94732  0.53351  1.0000
  C   C1174     1.0  0.03403  0.65116  0.58564  1.0000
  C   C1175     1.0  0.10634  0.97836  0.58829  1.0000
  C   C1176     1.0  0.01318  0.93411  0.73072  1.0000
  C   C1177     1.0  0.02073  0.93226  0.71707  1.0000
  H   H956      1.0  0.01371  0.93814  0.70808  1.0000
  H   H957      1.0  0.08964  0.97052  0.63517  1.0000
  C   C1178     1.0  0.10465  0.66516  0.73263  1.0000
  S   S178      1.0  0.99294  0.98057  0.70589  1.0000
  H   H958      1.0  0.00213  0.91960  0.58447  1.0000
  C   C1179     1.0  0.98750  0.63328  0.64455  1.0000
  H   H959      1.0  0.09980  0.98124  0.55244  1.0000
  C   C1180     1.0  0.98536  0.51519  0.64073  1.0000
  H   H960      1.0  0.00311  0.59775  0.59486  1.0000
  C   C1181     1.0  0.00346  0.56418  0.66552  1.0000
  H   H961      1.0  0.12420  0.70535  0.73356  1.0000
  C   C1182     1.0  0.17114  0.87216  0.73323  1.0000
  C   C1183     1.0  0.99218  0.58105  0.61503  1.0000
  S   S179      1.0  0.99339  0.94306  0.63707  1.0000
  H   H962      1.0  0.99127  0.52043  0.65175  1.0000
  H   H963      1.0  0.04300  0.92138  0.70441  1.0000
  C   C1184     1.0  0.03729  0.92293  0.71503  1.0000
  C   C1185     1.0  0.09479  0.97531  0.57481  1.0000
  C   C1186     1.0  0.12589  0.68855  0.73287  1.0000
  H   H964      1.0  0.11080  0.90288  0.73345  1.0000
  C   C1187     1.0  0.19639  0.88011  0.73481  1.0000
  C   C1188     1.0  0.99108  0.98595  0.73479  1.0000
  H   H965      1.0  0.00645  0.98209  0.73529  1.0000
  H   H966      1.0  0.27027  0.92133  0.85194  1.0000
  C   C1189     1.0  0.13790  0.51439  0.75686  1.0000
  H   H967      1.0  0.24775  0.95772  0.82624  1.0000
  C   C1190     1.0  0.22089  0.49557  0.76818  1.0000
  Fe  Fe91      1.0  0.08218  0.89445  0.83999  1.0000
  S   S180      1.0  0.08095  0.87718  0.86103  1.0000
  S   S181      1.0  0.07057  0.92468  0.83699  1.0000
  Fe  Fe92      1.0  0.10974  0.86877  0.82606  1.0000
  S   S182      1.0  0.11038  0.84970  0.84597  1.0000
  S   S183      1.0  0.12825  0.86972  0.80513  1.0000
  Fe  Fe93      1.0  0.07096  0.84192  0.84801  1.0000
  S   S184      1.0  0.03816  0.80357  0.85086  1.0000
  Fe  Fe94      1.0  0.12053  0.88639  0.85763  1.0000
  S   S185      1.0  0.15105  0.89997  0.87531  1.0000
  S   S186      1.0  0.06968  0.85881  0.82711  1.0000
  S   S187      1.0  0.12247  0.90588  0.83756  1.0000
  C   C1191     1.0  0.99255  0.50459  0.78006  1.0000
  H   H968      1.0  0.06616  0.59444  0.76048  1.0000
  C   C1192     1.0  0.20088  0.51941  0.79406  1.0000
  C   C1193     1.0  0.22425  0.95995  0.78585  1.0000
  Fe  Fe95      1.0  0.03395  0.52622  0.74880  1.0000
  H   H969      1.0  0.99782  0.49980  0.84924  1.0000
  S   S188      1.0  0.07502  0.54933  0.74670  1.0000
  Fe  Fe96      1.0  0.17326  0.79229  0.75615  1.0000
  S   S189      1.0  0.15256  0.76997  0.73629  1.0000
  S   S190      1.0  0.15237  0.78796  0.77649  1.0000
  H   H970      1.0  0.16313  0.92602  0.93591  1.0000
  H   H971      1.0  0.25811  0.50736  0.76189  1.0000
  C   C1194     1.0  0.04513  0.90210  0.78760  1.0000
  H   H972      1.0  0.17427  0.96170  0.92082  1.0000
  C   C1195     1.0  0.03902  0.91758  0.74036  1.0000
  H   H973      1.0  0.20897  0.88179  0.93713  1.0000
  C   C1196     1.0  0.11179  0.79602  0.75307  1.0000
  C   C1197     1.0  0.29772  0.94699  0.90999  1.0000
  C   C1198     1.0  0.17993  0.87575  0.84904  1.0000
  C   C1199     1.0  0.21778  0.92618  0.80101  1.0000
  C   C1200     1.0  0.99372  0.51326  0.84426  1.0000
  H   H974      1.0  0.17445  0.90799  0.84885  1.0000
  C   C1201     1.0  0.20971  0.89571  0.82585  1.0000
  H   H975      1.0  0.23354  0.93745  0.92064  1.0000
  C   C1202     1.0  0.18346  0.93831  0.97645  1.0000
  C   C1203     1.0  0.23917  0.50107  0.75832  1.0000
  C   C1204     1.0  0.13511  0.84671  0.79771  1.0000
  C   C1205     1.0  0.14949  0.85221  0.78569  1.0000
  C   C1206     1.0  0.15479  0.83446  0.77903  1.0000
  C   C1207     1.0  0.14594  0.81090  0.78444  1.0000
  C   C1208     1.0  0.13185  0.80544  0.79661  1.0000
  C   C1209     1.0  0.12642  0.82324  0.80323  1.0000
  H   H976      1.0  0.15669  0.87038  0.78155  1.0000
  H   H977      1.0  0.16583  0.83904  0.76975  1.0000
  H   H978      1.0  0.12498  0.78731  0.80092  1.0000
  H   H979      1.0  0.11537  0.81872  0.81250  1.0000
  C   C1210     1.0  0.00470  0.92916  0.81522  1.0000
  C   C1211     1.0  0.00510  0.90634  0.81545  1.0000
  C   C1212     1.0  0.02492  0.90447  0.82216  1.0000
  C   C1213     1.0  0.04472  0.92552  0.82861  1.0000
  C   C1214     1.0  0.04420  0.94829  0.82842  1.0000
  C   C1215     1.0  0.02434  0.95012  0.82182  1.0000
  H   H980      1.0  0.08330  0.77050  0.76589  1.0000
  H   H981      1.0  0.02496  0.88682  0.82228  1.0000
  H   H982      1.0  0.05934  0.96468  0.83344  1.0000
  H   H983      1.0  0.02431  0.96779  0.82179  1.0000
  H   H984      1.0  0.04205  0.78125  0.90064  1.0000
  P   P39       1.0  0.19311  0.91200  0.95487  1.0000
  H   H985      1.0  0.23692  0.92763  0.86717  1.0000
  H   H986      1.0  0.23858  0.95839  0.95198  1.0000
  H   H987      1.0  0.01763  0.83249  0.92087  1.0000
  Fe  Fe97      1.0  0.22455  0.81296  0.74236  1.0000
  H   H988      1.0  0.03947  0.97790  0.74684  1.0000
  C   C1216     1.0  0.20095  0.51898  0.81974  1.0000
  C   C1217     1.0  0.21055  0.98044  0.88682  1.0000
  C   C1218     1.0  0.21090  0.96043  0.89341  1.0000
  C   C1219     1.0  0.19258  0.93596  0.88980  1.0000
  C   C1220     1.0  0.17382  0.93116  0.87943  1.0000
  C   C1221     1.0  0.17363  0.95117  0.87273  1.0000
  C   C1222     1.0  0.19179  0.97563  0.87648  1.0000
  H   H989      1.0  0.22517  0.96392  0.90139  1.0000
  H   H990      1.0  0.19288  0.92065  0.89508  1.0000
  H   H991      1.0  0.15929  0.94785  0.86480  1.0000
  C   C1223     1.0  0.18352  0.89835  0.84397  1.0000
  C   C1224     1.0  0.01148  0.75202  0.88861  1.0000
  C   C1225     1.0  0.11592  0.88528  0.76682  1.0000
  C   C1226     1.0  0.00789  0.76072  0.86387  1.0000
  C   C1227     1.0  0.02871  0.78418  0.86564  1.0000
  C   C1228     1.0  0.04085  0.79156  0.87902  1.0000
  C   C1229     1.0  0.03234  0.77550  0.89039  1.0000
  C   C1230     1.0  0.99916  0.74482  0.87529  1.0000
  H   H992      1.0  0.11107  0.82871  0.92753  1.0000
  H   H993      1.0  0.05685  0.80954  0.88059  1.0000
  H   H994      1.0  0.24204  0.93566  0.89541  1.0000
  H   H995      1.0  0.10085  0.50845  0.75896  1.0000
  C   C1231     1.0  0.25195  0.86285  0.86245  1.0000
  H   H996      1.0  0.22253  0.55134  0.80801  1.0000
  C   C1232     1.0  0.19849  0.90842  0.83254  1.0000
  H   H997      1.0  0.24412  0.84394  0.85812  1.0000
  C   C1233     1.0  0.30042  0.93982  0.82799  1.0000
  C   C1234     1.0  0.07695  0.63167  0.76844  1.0000
  H   H998      1.0  0.27551  0.90622  0.81640  1.0000
  C   C1235     1.0  0.08046  0.71268  0.74350  1.0000
  C   C1236     1.0  0.98839  0.57924  0.80613  1.0000
  C   C1237     1.0  0.05477  0.66822  0.75713  1.0000
  C   C1238     1.0  0.07828  0.68572  0.76247  1.0000
  C   C1239     1.0  0.09083  0.70822  0.75571  1.0000
  P   P40       1.0  0.09154  0.68023  0.77841  1.0000
  C   C1240     1.0  0.08434  0.69397  0.79362  1.0000
  C   C1241     1.0  0.08002  0.64727  0.78038  1.0000
  C   C1242     1.0  0.07409  0.63690  0.79375  1.0000
  C   C1243     1.0  0.09870  0.69955  0.80632  1.0000
  C   C1244     1.0  0.09357  0.71070  0.81803  1.0000
  C   C1245     1.0  0.07404  0.71629  0.81716  1.0000
  C   C1246     1.0  0.05954  0.71062  0.80460  1.0000
  C   C1247     1.0  0.06461  0.69946  0.79286  1.0000
  C   C1248     1.0  0.12451  0.69506  0.77661  1.0000
  C   C1249     1.0  0.13576  0.68241  0.76989  1.0000
  C   C1250     1.0  0.16099  0.69462  0.76763  1.0000
  C   C1251     1.0  0.17516  0.71954  0.77195  1.0000
  C   C1252     1.0  0.16415  0.73227  0.77865  1.0000
  C   C1253     1.0  0.13895  0.72017  0.78092  1.0000
  C   C1254     1.0  0.98591  0.59497  0.83661  1.0000
  H   H999      1.0  0.10877  0.72230  0.75969  1.0000
  H   H1000     1.0  0.07619  0.64833  0.80317  1.0000
  H   H1001     1.0  0.11403  0.69549  0.80711  1.0000
  H   H1002     1.0  0.10490  0.71526  0.82774  1.0000
  H   H1003     1.0  0.07023  0.72520  0.82619  1.0000
  H   H1004     1.0  0.04451  0.71515  0.80393  1.0000
  H   H1005     1.0  0.05328  0.69542  0.78321  1.0000
  H   H1006     1.0  0.12516  0.66341  0.76592  1.0000
  H   H1007     1.0  0.16940  0.68502  0.76200  1.0000
  H   H1008     1.0  0.19452  0.72914  0.76969  1.0000
  C   C1255     1.0  0.28486  0.98612  0.87194  1.0000
  H   H1009     1.0  0.13071  0.73080  0.78557  1.0000
  C   C1256     1.0  0.99138  0.49774  0.79429  1.0000
  H   H1010     1.0  0.02946  0.86674  0.79720  1.0000
  C   C1257     1.0  0.04450  0.67270  0.74487  1.0000
  H   H1011     1.0  0.14917  0.86993  0.96580  1.0000
  H   H1012     1.0  0.31003  0.89040  0.74874  1.0000
  H   H1013     1.0  0.99779  0.61793  0.80958  1.0000
  C   C1258     1.0  0.20027  0.93898  0.94472  1.0000
  H   H1014     1.0  0.20102  0.92603  0.82887  1.0000
  H   H1015     1.0  0.16806  0.86796  0.85785  1.0000
  C   C1259     1.0  0.16716  0.88532  0.94632  1.0000
  C   C1260     1.0  0.22293  0.89170  0.94541  1.0000
  H   H1016     1.0  0.17968  0.89970  0.80358  1.0000
  H   H1017     1.0  0.18852  0.84561  0.84660  1.0000
  C   C1261     1.0  0.28477  0.96853  0.83367  1.0000
  H   H1018     1.0  0.04448  0.65097  0.76229  1.0000
  H   H1019     1.0  0.20752  0.52860  0.83003  1.0000
  P   P41       1.0  0.12574  0.86559  0.74213  1.0000
  H   H1020     1.0  0.20723  0.52964  0.78452  1.0000
  C   C1262     1.0  0.00380  0.83582  0.86175  1.0000
  H   H1021     1.0  0.99537  0.73003  0.98502  1.0000
  H   H1022     1.0  0.03799  0.64700  0.84819  1.0000
  C   C1263     1.0  0.18816  0.96090  0.92775  1.0000
  H   H1023     1.0  0.25350  0.95478  0.79535  1.0000
  C   C1264     1.0  0.06830  0.60626  0.76979  1.0000
  C   C1265     1.0  0.18203  0.94055  0.93620  1.0000
  S   S191      1.0  0.19626  0.82642  0.74454  1.0000
  C   C1266     1.0  0.10303  0.91707  0.76743  1.0000
  C   C1267     1.0  0.23139  0.88740  0.79880  1.0000
  C   C1268     1.0  0.11048  0.90211  0.74489  1.0000
  S   S192      1.0  0.26431  0.84496  0.74647  1.0000
  H   H1024     1.0  0.24626  0.87665  0.93802  1.0000
  C   C1269     1.0  0.20964  0.89411  0.74696  1.0000
  C   C1270     1.0  0.23033  0.97890  0.93680  1.0000
  C   C1271     1.0  0.00675  0.52570  0.83259  1.0000
  H   H1025     1.0  0.99679  0.55453  0.77507  1.0000
  H   H1026     1.0  0.18365  0.95070  0.96846  1.0000
  C   C1272     1.0  0.11454  0.50309  0.76243  1.0000
  C   C1273     1.0  0.23407  0.85379  0.77885  1.0000
  H   H1027     1.0  0.02667  0.65884  0.74058  1.0000
  C   C1274     1.0  0.23638  0.96066  0.86089  1.0000
  H   H1028     1.0  0.16371  0.89838  0.76385  1.0000
  H   H1029     1.0  0.09785  0.92916  0.77343  1.0000
  C   C1275     1.0  0.10369  0.91770  0.75262  1.0000
  H   H1030     1.0  0.01210  0.55279  0.81735  1.0000
  C   C1276     1.0  0.15539  0.50697  0.76084  1.0000
  C   C1277     1.0  0.30380  0.96219  0.83438  1.0000
  H   H1031     1.0  0.05580  0.93579  0.77685  1.0000
  H   H1032     1.0  0.01442  0.79550  0.93282  1.0000
  H   H1033     1.0  0.06074  0.60345  0.80537  1.0000
  C   C1278     1.0  0.22429  0.95866  0.94524  1.0000
  H   H1034     1.0  0.06288  0.90865  0.79313  1.0000
  C   C1279     1.0  0.25688  0.88220  0.85343  1.0000
  C   C1280     1.0  0.19145  0.86321  0.84267  1.0000
  P   P42       1.0  0.01245  0.92963  0.76006  1.0000
  C   C1281     1.0  0.25147  0.94011  0.91770  1.0000
  C   C1282     1.0  0.05738  0.69488  0.73803  1.0000
  C   C1283     1.0  0.01753  0.90956  0.77192  1.0000
  C   C1284     1.0  0.11202  0.83531  0.74955  1.0000
  C   C1285     1.0  0.03143  0.96608  0.78196  1.0000
  P   P43       1.0  0.22957  0.90940  0.81131  1.0000
  C   C1286     1.0  0.06535  0.61141  0.79507  1.0000
  C   C1287     1.0  0.23376  0.94762  0.79422  1.0000
  H   H1035     1.0  0.26834  0.88399  0.77323  1.0000
  H   H1036     1.0  0.14214  0.52844  0.74911  1.0000
  C   C1288     1.0  0.21204  0.86310  0.79700  1.0000
  C   C1289     1.0  0.25989  0.91700  0.96651  1.0000
  C   C1290     1.0  0.20643  0.87321  0.83118  1.0000
  H   H1037     1.0  0.27903  0.89913  0.95675  1.0000
  C   C1291     1.0  0.10909  0.90081  0.77452  1.0000
  H   H1038     1.0  0.02297  0.84161  0.85975  1.0000
  C   C1292     1.0  0.19229  0.91668  0.79882  1.0000
  C   C1293     1.0  0.25899  0.93031  0.81987  1.0000
  H   H1039     1.0  0.26603  0.91403  0.79058  1.0000
  H   H1040     1.0  0.05570  0.57632  0.78406  1.0000
  C   C1294     1.0  0.22005  0.90736  0.95554  1.0000
  H   H1041     1.0  0.10850  0.90010  0.78601  1.0000
  C   C1295     1.0  0.25284  0.87824  0.78005  1.0000
  H   H1042     1.0  0.12045  0.87276  0.77255  1.0000
  C   C1296     1.0  0.27222  0.96011  0.87198  1.0000
  C   C1297     1.0  0.07987  0.80356  0.76284  1.0000
  C   C1298     1.0  0.25721  0.86790  0.87705  1.0000
  S   S193      1.0  0.20265  0.78022  0.75571  1.0000
  H   H1043     1.0  0.08141  0.63918  0.75804  1.0000
  H   H1044     1.0  0.98940  0.98889  0.75763  1.0000
  C   C1299     1.0  0.26676  0.90655  0.85901  1.0000
  C   C1300     1.0  0.09013  0.82681  0.75691  1.0000
  C   C1301     1.0  0.18282  0.92909  0.79057  1.0000
  H   H1045     1.0  0.16303  0.92173  0.78924  1.0000
  C   C1302     1.0  0.15886  0.87824  0.74373  1.0000
  C   C1303     1.0  0.25640  0.93923  0.90337  1.0000
  C   C1304     1.0  0.19878  0.95076  0.78410  1.0000
  H   H1046     1.0  0.23662  0.97662  0.78072  1.0000
  H   H1047     1.0  0.19139  0.96035  0.77769  1.0000
  C   C1305     1.0  0.26745  0.89231  0.88264  1.0000
  H   H1048     1.0  0.25343  0.85290  0.88404  1.0000
  H   H1049     1.0  0.14381  0.85942  0.91319  1.0000
  H   H1050     1.0  0.26647  0.94683  0.93927  1.0000
  C   C1306     1.0  0.18368  0.49386  0.81886  1.0000
  C   C1307     1.0  0.12238  0.81941  0.74733  1.0000
  H   H1051     1.0  0.99852  0.75475  0.85355  1.0000
  H   H1052     1.0  0.28729  0.98573  0.83877  1.0000
  H   H1053     1.0  0.19547  0.85708  0.80291  1.0000
  C   C1308     1.0  0.12673  0.84443  0.93277  1.0000
  H   H1054     1.0  0.02102  0.52192  0.82852  1.0000
  H   H1055     1.0  0.21530  0.86330  0.82646  1.0000
  C   C1309     1.0  0.02622  0.87847  0.78996  1.0000
  H   H1056     1.0  0.11403  0.83410  0.95382  1.0000
  C   C1310     1.0  0.06252  0.59610  0.78310  1.0000
  H   H1057     1.0  0.02285  0.95111  0.78909  1.0000
  H   H1058     1.0  0.01492  0.59842  0.76879  1.0000
  C   C1311     1.0  0.12839  0.84751  0.94757  1.0000
  C   C1312     1.0  0.00309  0.63291  0.85803  1.0000
  H   H1059     1.0  0.17497  0.75179  0.78168  1.0000
  H   H1060     1.0  0.19899  0.82740  0.78611  1.0000
  C   C1313     1.0  0.25147  0.89506  0.78993  1.0000
  H   H1061     1.0  0.22905  0.89950  0.74837  1.0000
  C   C1314     1.0  0.16541  0.88194  0.93143  1.0000
  H   H1062     1.0  0.31560  0.94922  0.90731  1.0000
  C   C1315     1.0  0.14521  0.86168  0.92470  1.0000
  H   H1063     1.0  0.09901  0.93033  0.74714  1.0000
  C   C1316     1.0  0.00135  0.54299  0.82613  1.0000
  C   C1317     1.0  0.24771  0.94751  0.86657  1.0000
  C   C1318     1.0  0.26242  0.95265  0.82650  1.0000
  C   C1319     1.0  0.19771  0.90073  0.75734  1.0000
  H   H1064     1.0  0.17954  0.89510  0.92497  1.0000
  H   H1065     1.0  0.12031  0.78417  0.75176  1.0000
  C   C1320     1.0  0.11673  0.88579  0.75194  1.0000
  C   C1321     1.0  0.27800  0.92377  0.82091  1.0000
  P   P44       1.0  0.28604  0.94344  0.88074  1.0000
  S   S194      1.0  0.02161  0.51803  0.77186  1.0000
  H   H1066     1.0  0.27166  0.89587  0.89396  1.0000
  C   C1322     1.0  0.02234  0.92691  0.74249  1.0000
  C   C1323     1.0  0.24413  0.88873  0.94587  1.0000
  C   C1324     1.0  0.29287  0.94830  0.92433  1.0000
  C   C1325     1.0  0.26259  0.90138  0.95641  1.0000
  H   H1067     1.0  0.06358  0.79754  0.76900  1.0000
  C   C1326     1.0  0.00723  0.59310  0.77912  1.0000
  C   C1327     1.0  0.14846  0.86789  0.95434  1.0000
  H   H1068     1.0  0.98989  0.82750  0.90034  1.0000
  C   C1328     1.0  0.21369  0.84627  0.78728  1.0000
  H   H1069     1.0  0.23516  0.84072  0.77124  1.0000
  H   H1070     1.0  0.20792  0.91139  0.76682  1.0000
  C   C1329     1.0  0.30114  0.83365  0.73715  1.0000
  H   H1071     1.0  0.02329  0.61318  0.82961  1.0000
  C   C1330     1.0  0.27222  0.91181  0.87365  1.0000
  H   H1072     1.0  0.31512  0.93482  0.82864  1.0000
  C   C1331     1.0  0.04092  0.91750  0.77851  1.0000
  C   C1332     1.0  0.26986  0.94513  0.92817  1.0000
  H   H1073     1.0  0.13882  0.82506  0.74136  1.0000
  C   C1333     1.0  0.27977  0.94333  0.89937  1.0000
  C   C1334     1.0  0.02951  0.96119  0.76721  1.0000
  H   H1074     1.0  0.23722  0.93252  0.97393  1.0000
  C   C1335     1.0  0.23875  0.92002  0.96609  1.0000
  C   C1336     1.0  0.99122  0.81650  0.87077  1.0000
  C   C1337     1.0  0.20945  0.53177  0.80734  1.0000
  H   H1075     1.0  0.17335  0.51607  0.75639  1.0000
  C   C1338     1.0  0.21235  0.98002  0.92800  1.0000
  S   S195      1.0  0.00237  0.73212  0.90317  1.0000
  H   H1076     1.0  0.00800  0.50037  0.79992  1.0000
  H   H1077     1.0  0.21723  0.95093  0.85721  1.0000
  C   C1339     1.0  0.01902  0.63260  0.84779  1.0000
  C   C1340     1.0  0.00761  0.61091  0.78891  1.0000
  H   H1078     1.0  0.25308  0.87833  0.84211  1.0000
  C   C1341     1.0  0.18410  0.49402  0.79309  1.0000
  C   C1342     1.0  0.04055  0.98106  0.75823  1.0000
  C   C1343     1.0  0.17248  0.89308  0.75567  1.0000
  H   H1079     1.0  0.00959  0.64758  0.86628  1.0000
  H   H1080     1.0  0.08108  0.83816  0.75827  1.0000
  H   H1081     1.0  0.09053  0.72988  0.73820  1.0000
  H   H1082     1.0  0.19029  0.88673  0.98117  1.0000
  C   C1344     1.0  0.99799  0.60399  0.80231  1.0000
  C   C1345     1.0  0.09084  0.78827  0.76103  1.0000
  H   H1083     1.0  0.31687  0.93224  0.86119  1.0000
  C   C1346     1.0  0.99705  0.56834  0.78267  1.0000
  C   C1347     1.0  0.99165  0.84743  0.85517  1.0000
  C   C1348     1.0  0.18714  0.91785  0.97289  1.0000
  C   C1349     1.0  0.00207  0.79337  0.92388  1.0000
  H   H1084     1.0  0.00154  0.86243  0.84818  1.0000
  H   H1085     1.0  0.00093  0.80757  0.87565  1.0000
  H   H1086     1.0  0.30351  0.97741  0.97431  1.0000
  C   C1350     1.0  0.31431  0.87618  0.74471  1.0000
  C   C1351     1.0  0.98731  0.56134  0.79603  1.0000
  C   C1352     1.0  0.99860  0.88579  0.77440  1.0000
  C   C1353     1.0  0.01055  0.61355  0.83721  1.0000
  H   H1087     1.0  0.04626  0.91174  0.74919  1.0000
  C   C1354     1.0  0.00389  0.81412  0.91712  1.0000
  C   C1355     1.0  0.29512  0.85173  0.74237  1.0000
  H   H1088     1.0  0.27421  0.92693  0.97467  1.0000
  H   H1089     1.0  0.99003  0.89001  0.81038  1.0000
  C   C1356     1.0  0.98647  0.71000  0.98451  1.0000
  C   C1357     1.0  0.00298  0.87032  0.78336  1.0000
  H   H1090     1.0  0.98822  0.85217  0.78545  1.0000
  C   C1358     1.0  0.24914  0.98648  0.86087  1.0000
  C   C1359     1.0  0.28926  0.98226  0.97696  1.0000
  H   H1091     1.0  0.01533  0.63008  0.78610  1.0000
  H   H1092     1.0  0.22595  0.49758  0.77939  1.0000
  H   H1093     1.0  0.30710  0.95233  0.93249  1.0000
  C   C1360     1.0  0.23297  0.49773  0.74378  1.0000
  C   C1361     1.0  0.18717  0.90242  0.98363  1.0000
  C   C1362     1.0  0.98827  0.81117  0.90539  1.0000
  C   C1363     1.0  0.04422  0.99039  0.78765  1.0000
  H   H1094     1.0  0.24709  0.50167  0.73615  1.0000
  C   C1364     1.0  0.98460  0.76969  0.91893  1.0000
  Fe  Fe98      1.0  0.49235  0.07365  0.23370  1.0000
  Fe  Fe99      1.0  0.51098  0.47140  0.21424  1.0000
  S   S196      1.0  0.52143  0.44067  0.21266  1.0000
  Fe  Fe100     1.0  0.54973  0.46192  0.23037  1.0000
  Fe  Fe101     1.0  0.49763  0.02759  0.22403  1.0000
  S   S197      1.0  0.51424  0.06664  0.21679  1.0000
  H   H1095     1.0  0.48821  0.06718  0.18502  1.0000
  C   C1365     1.0  0.46322  0.48480  0.18791  1.0000
  H   H1096     1.0  0.32090  0.14743  0.03487  1.0000
  S   S198      1.0  0.35565  0.18833  0.19764  1.0000
  H   H1097     1.0  0.38473  0.41729  0.11838  1.0000
  H   H1098     1.0  0.39411  0.14764  0.20965  1.0000
  C   C1366     1.0  0.56710  0.04612  0.20272  1.0000
  C   C1367     1.0  0.44613  0.48918  0.17985  1.0000
  H   H1099     1.0  0.45367  0.12548  0.21277  1.0000
  C   C1368     1.0  0.40897  0.40495  0.17768  1.0000
  H   H1100     1.0  0.41415  0.44326  0.13620  1.0000
  H   H1101     1.0  0.46021  0.05849  0.16383  1.0000
  H   H1102     1.0  0.31887  0.20144  0.08430  1.0000
  H   H1103     1.0  0.45773  0.47438  0.19740  1.0000
  S   S199      1.0  0.46264  0.38193  0.22637  1.0000
  H   H1104     1.0  0.42754  0.48216  0.18331  1.0000
  C   C1369     1.0  0.35476  0.40118  0.15508  1.0000
  C   C1370     1.0  0.53414  0.28853  0.18183  1.0000
  C   C1371     1.0  0.36123  0.43444  0.11889  1.0000
  C   C1372     1.0  0.33048  0.44101  0.08003  1.0000
  C   C1373     1.0  0.39223  0.37963  0.14889  1.0000
  H   H1105     1.0  0.59253  0.05085  0.16437  1.0000
  C   C1374     1.0  0.48468  0.31999  0.21082  1.0000
  C   C1375     1.0  0.32533  0.32679  0.08455  1.0000
  H   H1106     1.0  0.42811  0.40197  0.21698  1.0000
  C   C1376     1.0  0.43159  0.43181  0.15251  1.0000
  C   C1377     1.0  0.52238  0.34432  0.23164  1.0000
  C   C1378     1.0  0.54721  0.03006  0.17936  1.0000
  C   C1379     1.0  0.51079  0.05367  0.17478  1.0000
  H   H1107     1.0  0.50454  0.16277  0.22738  1.0000
  C   C1380     1.0  0.37660  0.35705  0.15484  1.0000
  H   H1108     1.0  0.49294  0.48148  0.13784  1.0000
  C   C1381     1.0  0.35666  0.41448  0.07730  1.0000
  C   C1382     1.0  0.36799  0.43840  0.08413  1.0000
  C   C1383     1.0  0.35494  0.45187  0.08560  1.0000
  S   S200      1.0  0.58395  0.10466  0.22771  1.0000
  H   H1109     1.0  0.40521  0.45708  0.16176  1.0000
  H   H1110     1.0  0.38679  0.44637  0.08829  1.0000
  H   H1111     1.0  0.45539  0.42584  0.16756  1.0000
  C   C1384     1.0  0.45337  0.46336  0.13562  1.0000
  H   H1112     1.0  0.62911  0.08604  0.15528  1.0000
  H   H1113     1.0  0.55704  0.26122  0.20438  1.0000
  C   C1385     1.0  0.56656  0.06127  0.15485  1.0000
  H   H1114     1.0  0.33348  0.44635  0.11824  1.0000
  C   C1386     1.0  0.32412  0.17194  0.17392  1.0000
  C   C1387     1.0  0.32693  0.16889  0.18849  1.0000
  H   H1115     1.0  0.41278  0.43159  0.21059  1.0000
  C   C1388     1.0  0.47935  0.04403  0.15087  1.0000
  C   C1389     1.0  0.43300  0.33121  0.22671  1.0000
  H   H1116     1.0  0.56647  0.02109  0.14051  1.0000
  H   H1117     1.0  0.32975  0.36255  0.09100  1.0000
  H   H1118     1.0  0.33929  0.18621  0.16860  1.0000
  C   C1390     1.0  0.33699  0.43055  0.11817  1.0000
  P   P45       1.0  0.40304  0.40847  0.15922  1.0000
  C   C1391     1.0  0.45635  0.26112  0.20254  1.0000
  C   C1392     1.0  0.38625  0.44360  0.15951  1.0000
  C   C1393     1.0  0.31918  0.41712  0.07317  1.0000
  H   H1119     1.0  0.46681  0.03972  0.14171  1.0000
  H   H1120     1.0  0.40972  0.39679  0.12966  1.0000
  C   C1394     1.0  0.32104  0.34311  0.09329  1.0000
  C   C1395     1.0  0.49135  0.05942  0.17526  1.0000
  C   C1396     1.0  0.51451  0.28689  0.18970  1.0000
  H   H1121     1.0  0.53770  0.29730  0.17173  1.0000
  C   C1397     1.0  0.45435  0.43588  0.15855  1.0000
  C   C1398     1.0  0.33704  0.40927  0.15361  1.0000
  C   C1399     1.0  0.33213  0.40354  0.07181  1.0000
  H   H1122     1.0  0.31798  0.39601  0.15118  1.0000
  C   C1400     1.0  0.50976  0.27555  0.20279  1.0000
  H   H1123     1.0  0.57863  0.06170  0.20993  1.0000
  H   H1124     1.0  0.58268  0.11151  0.13467  1.0000
  C   C1401     1.0  0.51365  0.31905  0.22834  1.0000
  C   C1402     1.0  0.47559  0.05453  0.16333  1.0000
  P   P46       1.0  0.48492  0.27457  0.21298  1.0000
  C   C1403     1.0  0.49889  0.03844  0.15032  1.0000
  H   H1125     1.0  0.46849  0.24478  0.18581  1.0000
  H   H1126     1.0  0.40957  0.29140  0.22625  1.0000
  S   S201      1.0  0.47265  0.09615  0.22653  1.0000
  C   C1404     1.0  0.42242  0.40261  0.20608  1.0000
  C   C1405     1.0  0.36688  0.33488  0.14657  1.0000
  H   H1127     1.0  0.32059  0.03698  0.06538  1.0000
  H   H1128     1.0  0.39279  0.22838  0.18199  1.0000
  C   C1406     1.0  0.37963  0.41838  0.15793  1.0000
  H   H1129     1.0  0.43752  0.27196  0.21808  1.0000
  H   H1130     1.0  0.52009  0.14409  0.20923  1.0000
  C   C1407     1.0  0.45055  0.12637  0.22397  1.0000
  H   H1131     1.0  0.37771  0.07019  0.21402  1.0000
  H   H1132     1.0  0.34895  0.38159  0.15381  1.0000
  C   C1408     1.0  0.43067  0.23579  0.18234  1.0000
  C   C1409     1.0  0.32207  0.38606  0.11591  1.0000
  H   H1133     1.0  0.39736  0.25159  0.20478  1.0000
  C   C1410     1.0  0.34397  0.43454  0.15493  1.0000
  C   C1411     1.0  0.37240  0.11435  0.22062  1.0000
  C   C1412     1.0  0.41061  0.23775  0.18761  1.0000
  C   C1413     1.0  0.43866  0.14004  0.22877  1.0000
  C   C1414     1.0  0.51236  0.35743  0.22451  1.0000
  H   H1134     1.0  0.55254  0.13256  0.21594  1.0000
  C   C1415     1.0  0.41321  0.25099  0.20042  1.0000
  C   C1416     1.0  0.49450  0.30661  0.21803  1.0000
  H   H1135     1.0  0.44426  0.00079  0.16726  1.0000
  H   H1136     1.0  0.42041  0.37693  0.17332  1.0000
  C   C1417     1.0  0.34648  0.39011  0.11698  1.0000
  H   H1137     1.0  0.36700  0.40434  0.07626  1.0000
  C   C1418     1.0  0.54504  0.26822  0.20024  1.0000
  C   C1419     1.0  0.36860  0.45170  0.15790  1.0000
  C   C1420     1.0  0.32930  0.09185  0.21316  1.0000
  C   C1421     1.0  0.37250  0.33511  0.13228  1.0000
  C   C1422     1.0  0.47896  0.25500  0.22788  1.0000
  H   H1138     1.0  0.62846  0.14672  0.21971  1.0000
  C   C1423     1.0  0.47460  0.23044  0.22561  1.0000
  H   H1139     1.0  0.35463  0.21523  0.04455  1.0000
  H   H1140     1.0  0.33714  0.33376  0.07565  1.0000
  H   H1141     1.0  0.46419  0.01401  0.19145  1.0000
  C   C1424     1.0  0.56400  0.07846  0.14636  1.0000
  H   H1142     1.0  0.42338  0.33379  0.21770  1.0000
  H   H1143     1.0  0.63640  0.46731  0.23135  1.0000
  C   C1425     1.0  0.47635  0.45364  0.15322  1.0000
  H   H1144     1.0  0.46410  0.19531  0.23500  1.0000
  H   H1145     1.0  0.45304  0.47441  0.12693  1.0000
  S   S202      1.0  0.31887  0.37306  0.06337  1.0000
  C   C1426     1.0  0.51469  0.04305  0.16231  1.0000
  C   C1427     1.0  0.59018  0.06405  0.15795  1.0000
  H   H1146     1.0  0.50139  0.03019  0.14058  1.0000
  H   H1147     1.0  0.40124  0.43403  0.18574  1.0000
  C   C1428     1.0  0.52544  0.26660  0.20814  1.0000
  C   C1429     1.0  0.39787  0.37967  0.13455  1.0000
  H   H1148     1.0  0.47566  0.22349  0.21509  1.0000
  Fe  Fe102     1.0  0.36709  0.19132  0.22128  1.0000
  C   C1430     1.0  0.37611  0.13182  0.21047  1.0000
  H   H1149     1.0  0.52284  0.25869  0.21846  1.0000
  C   C1431     1.0  0.40712  0.42047  0.18834  1.0000
  H   H1150     1.0  0.37168  0.35661  0.16582  1.0000
  H   H1151     1.0  0.35928  0.14301  0.19388  1.0000
  C   C1432     1.0  0.61093  0.08391  0.15278  1.0000
  C   C1433     1.0  0.54014  0.00221  0.19858  1.0000
  H   H1152     1.0  0.43294  0.14957  0.22129  1.0000
  C   C1434     1.0  0.54935  0.27911  0.18708  1.0000
  H   H1153     1.0  0.50307  0.29460  0.18561  1.0000
  C   C1435     1.0  0.43596  0.26250  0.20791  1.0000
  H   H1154     1.0  0.35048  0.37467  0.11663  1.0000
  H   H1155     1.0  0.32015  0.45118  0.08101  1.0000
  C   C1436     1.0  0.40356  0.06176  0.22503  1.0000
  H   H1156     1.0  0.37631  0.45322  0.11954  1.0000
  H   H1157     1.0  0.42834  0.22489  0.17261  1.0000
  C   C1437     1.0  0.47587  0.46733  0.14174  1.0000
  C   C1438     1.0  0.49361  0.34528  0.21407  1.0000
  C   C1439     1.0  0.41780  0.38836  0.18139  1.0000
  C   C1440     1.0  0.41376  0.41923  0.20247  1.0000
  C   C1441     1.0  0.46220  0.99709  0.18631  1.0000
  C   C1442     1.0  0.54775  0.00645  0.14079  1.0000
  C   C1443     1.0  0.33937  0.20925  0.06524  1.0000
  C   C1444     1.0  0.58479  0.09827  0.14118  1.0000
  C   C1445     1.0  0.36596  0.41423  0.11824  1.0000
  P   P47       1.0  0.53986  0.03563  0.16160  1.0000
  H   H1158     1.0  0.55845  0.01920  0.21873  1.0000
  H   H1159     1.0  0.57102  0.06891  0.18517  1.0000
  C   C1446     1.0  0.55577  0.02218  0.20769  1.0000
  H   H1160     1.0  0.56463  0.28048  0.18101  1.0000
  C   C1447     1.0  0.33793  0.20736  0.05041  1.0000
  H   H1161     1.0  0.52242  0.05724  0.18425  1.0000
  H   H1162     1.0  0.48574  0.35550  0.20866  1.0000
  H   H1163     1.0  0.35715  0.21845  0.07089  1.0000
  C   C1448     1.0  0.38800  0.35749  0.12628  1.0000
  H   H1164     1.0  0.39235  0.35766  0.11519  1.0000
  S   S203      1.0  0.36789  0.48206  0.09437  1.0000
  C   C1449     1.0  0.35647  0.12929  0.20163  1.0000
  H   H1165     1.0  0.47027  0.31111  0.20263  1.0000
  H   H1166     1.0  0.54601  0.07665  0.14372  1.0000
  C   C1450     1.0  0.56279  0.05010  0.18864  1.0000
  C   C1451     1.0  0.60824  0.10103  0.14440  1.0000
  C   C1452     1.0  0.42441  0.38718  0.19554  1.0000
  C   C1453     1.0  0.43132  0.44566  0.14094  1.0000
  S   S204      1.0  0.51036  0.49058  0.19376  1.0000
  C   C1454     1.0  0.45345  0.24725  0.18983  1.0000
  H   H1167     1.0  0.43176  0.37478  0.19838  1.0000
  C   C1455     1.0  0.53568  0.00611  0.18451  1.0000
  C   C1456     1.0  0.45831  0.11374  0.23344  1.0000
  H   H1168     1.0  0.62431  0.11643  0.14041  1.0000
  H   H1169     1.0  0.64839  0.01009  0.03822  1.0000
  H   H1170     1.0  0.49381  0.45728  0.15829  1.0000
  H   H1171     1.0  0.51891  0.37697  0.22711  1.0000
  S   S205      1.0  0.40801  0.20826  0.22685  1.0000
  C   C1457     1.0  0.52792  0.14785  0.21999  1.0000
  H   H1172     1.0  0.33036  0.44088  0.15349  1.0000
  H   H1173     1.0  0.64534  0.00936  0.13731  1.0000
  H   H1174     1.0  0.36488  0.31794  0.12585  1.0000
  C   C1458     1.0  0.53104  0.00837  0.15000  1.0000
  H   H1175     1.0  0.41355  0.06230  0.21562  1.0000
  C   C1459     1.0  0.54605  0.14123  0.22377  1.0000
  H   H1176     1.0  0.65050  0.09781  0.21321  1.0000
  S   S206      1.0  0.48186  0.45216  0.23007  1.0000
  H   H1177     1.0  0.64351  0.01203  0.98855  1.0000
  C   C1460     1.0  0.38349  0.06656  0.22423  1.0000
  H   H1178     1.0  0.33683  0.02366  0.22315  1.0000
  H   H1179     1.0  0.38769  0.11677  0.22754  1.0000
  H   H1180     1.0  0.37422  0.47138  0.15877  1.0000
  Fe  Fe103     1.0  0.49393  0.42236  0.22955  1.0000
  H   H1181     1.0  0.35495  0.31748  0.15122  1.0000
  C   C1461     1.0  0.63399  0.13676  0.22702  1.0000
  C   C1462     1.0  0.34899  0.09421  0.22208  1.0000
  H   H1182     1.0  0.32766  0.01018  0.04784  1.0000
  H   H1183     1.0  0.52189  0.30923  0.23377  1.0000
  S   S207      1.0  0.58886  0.46550  0.23140  1.0000
  H   H1184     1.0  0.64665  0.00225  0.19802  1.0000
  C   C1463     1.0  0.33308  0.10934  0.20298  1.0000
  C   C1464     1.0  0.42517  0.30704  0.23150  1.0000
  C   C1465     1.0  0.61898  0.49043  0.22868  1.0000
  C   C1466     1.0  0.63937  0.48583  0.22941  1.0000
  C   C1467     1.0  0.61575  0.11507  0.23278  1.0000
  H   H1185     1.0  0.32355  0.02596  0.09936  1.0000
  Fe  Fe104     1.0  0.54447  0.07633  0.23372  1.0000
  H   H1186     1.0  0.64110  0.03866  0.02317  1.0000
  C   C1468     1.0  0.51914  0.15836  0.23024  1.0000
  C   C1469     1.0  0.45324  0.35199  0.23335  1.0000
  H   H1187     1.0  0.31805  0.33253  0.13369  1.0000
  C   C1470     1.0  0.31907  0.02253  0.22505  1.0000
  S   S208      1.0  0.48494  0.99120  0.21076  1.0000
  C   C1471     1.0  0.31785  0.19965  0.07279  1.0000
  P   P48       1.0  0.34454  0.07190  0.23539  1.0000
  H   H1188     1.0  0.31783  0.10770  0.19623  1.0000
  H   H1189     1.0  0.41778  0.47199  0.40298  1.0000
  C   C1472     1.0  0.46797  0.21440  0.23682  1.0000
  S   S209      1.0  0.52293  0.44102  0.24716  1.0000
  H   H1190     1.0  0.50346  0.40334  0.26974  1.0000
  H   H1191     1.0  0.44532  0.08047  0.35733  1.0000
  H   H1192     1.0  0.34913  0.46306  0.37307  1.0000
  H   H1193     1.0  0.56264  0.24745  0.29104  1.0000
  H   H1194     1.0  0.32335  0.19556  0.31706  1.0000
  Fe  Fe105     1.0  0.50613  0.04468  0.25536  1.0000
  S   S210      1.0  0.52341  0.08526  0.25016  1.0000
  S   S211      1.0  0.50477  0.03487  0.27885  1.0000
  S   S212      1.0  0.36149  0.21685  0.23676  1.0000
  S   S213      1.0  0.39534  0.46042  0.36874  1.0000
  H   H1195     1.0  0.32377  0.13392  0.30852  1.0000
  C   C1473     1.0  0.48833  0.00574  0.28688  1.0000
  H   H1196     1.0  0.48992  0.07317  0.29461  1.0000
  C   C1474     1.0  0.61175  0.13822  0.26656  1.0000
  Fe  Fe106     1.0  0.35372  0.18724  0.25262  1.0000
  S   S214      1.0  0.39349  0.20393  0.26007  1.0000
  C   C1475     1.0  0.46773  0.39959  0.27400  1.0000
  H   H1197     1.0  0.50540  0.45577  0.36918  1.0000
  H   H1198     1.0  0.37970  0.31813  0.24824  1.0000
  H   H1199     1.0  0.46907  0.10004  0.37991  1.0000
  C   C1476     1.0  0.55916  0.18679  0.27447  1.0000
  H   H1200     1.0  0.37442  0.99129  0.35921  1.0000
  H   H1201     1.0  0.37561  0.39663  0.27411  1.0000
  H   H1202     1.0  0.33468  0.11069  0.28919  1.0000
  H   H1203     1.0  0.63250  0.48484  0.26775  1.0000
  C   C1477     1.0  0.63232  0.00071  0.42426  1.0000
  H   H1204     1.0  0.45509  0.01417  0.34865  1.0000
  C   C1478     1.0  0.46538  0.34818  0.24502  1.0000
  C   C1479     1.0  0.44191  0.12863  0.25267  1.0000
  C   C1480     1.0  0.45397  0.11512  0.24788  1.0000
  H   H1205     1.0  0.43841  0.12915  0.26383  1.0000
  H   H1206     1.0  0.45935  0.10526  0.25530  1.0000
  C   C1481     1.0  0.35884  0.27467  0.30525  1.0000
  H   H1207     1.0  0.38052  0.40780  0.33098  1.0000
  H   H1208     1.0  0.47309  0.01071  0.37599  1.0000
  H   H1209     1.0  0.56902  0.13925  0.24045  1.0000
  H   H1210     1.0  0.46713  0.32142  0.25884  1.0000
  H   H1211     1.0  0.34154  0.01129  0.41495  1.0000
  C   C1482     1.0  0.63165  0.18297  0.26695  1.0000
  H   H1212     1.0  0.53374  0.09521  0.30276  1.0000
  H   H1213     1.0  0.32898  0.16694  0.33252  1.0000
  H   H1214     1.0  0.47137  0.07378  0.39885  1.0000
  H   H1215     1.0  0.42719  0.05370  0.23866  1.0000
  H   H1216     1.0  0.40540  0.05363  0.26045  1.0000
  C   C1483     1.0  0.46510  0.22257  0.25030  1.0000
  H   H1217     1.0  0.51682  0.43444  0.41050  1.0000
  S   S215      1.0  0.32003  0.17824  0.26609  1.0000
  C   C1484     1.0  0.44539  0.45120  0.34374  1.0000
  H   H1218     1.0  0.44941  0.46427  0.39180  1.0000
  H   H1219     1.0  0.42411  0.03496  0.35357  1.0000
  C   C1485     1.0  0.45750  0.32402  0.24984  1.0000
  C   C1486     1.0  0.49415  0.00353  0.30115  1.0000
  C   C1487     1.0  0.55257  0.18774  0.28854  1.0000
  H   H1220     1.0  0.54856  0.21015  0.30531  1.0000
  H   H1221     1.0  0.32165  0.08094  0.44857  1.0000
  C   C1488     1.0  0.36675  0.44042  0.37654  1.0000
  C   C1489     1.0  0.36373  0.41815  0.38227  1.0000
  C   C1490     1.0  0.34165  0.40181  0.38865  1.0000
  H   H1222     1.0  0.56277  0.13303  0.29127  1.0000
  H   H1223     1.0  0.48100  0.36381  0.25025  1.0000
  C   C1491     1.0  0.34725  0.44609  0.37736  1.0000
  H   H1224     1.0  0.37859  0.41347  0.38177  1.0000
  H   H1225     1.0  0.36992  0.06193  0.25925  1.0000
  C   C1492     1.0  0.36224  0.26284  0.29323  1.0000
  C   C1493     1.0  0.56723  0.20802  0.26648  1.0000
  H   H1226     1.0  0.45896  0.20977  0.25882  1.0000
  H   H1227     1.0  0.39117  0.43873  0.23669  1.0000
  C   C1494     1.0  0.44607  0.48243  0.28096  1.0000
  Fe  Fe107     1.0  0.39738  0.17901  0.24308  1.0000
  C   C1495     1.0  0.34133  0.08415  0.25246  1.0000
  C   C1496     1.0  0.39054  0.32642  0.25800  1.0000
  C   C1497     1.0  0.39968  0.31321  0.26579  1.0000
  C   C1498     1.0  0.41437  0.32409  0.27811  1.0000
  C   C1499     1.0  0.41998  0.34822  0.28266  1.0000
  C   C1500     1.0  0.41102  0.36174  0.27483  1.0000
  C   C1501     1.0  0.39616  0.35059  0.26247  1.0000
  P   P49       1.0  0.42120  0.39403  0.27977  1.0000
  C   C1502     1.0  0.39679  0.42997  0.24477  1.0000
  C   C1503     1.0  0.40847  0.39812  0.29616  1.0000
  C   C1504     1.0  0.39770  0.37881  0.30554  1.0000
  C   C1505     1.0  0.38770  0.38233  0.31806  1.0000
  C   C1506     1.0  0.38829  0.40506  0.32129  1.0000
  C   C1507     1.0  0.39892  0.42434  0.31202  1.0000
  C   C1508     1.0  0.40888  0.42089  0.29951  1.0000
  S   S216      1.0  0.41834  0.15750  0.24997  1.0000
  C   C1509     1.0  0.46436  0.48120  0.27275  1.0000
  H   H1228     1.0  0.37853  0.27221  0.28714  1.0000
  H   H1229     1.0  0.45270  0.44774  0.32180  1.0000
  H   H1230     1.0  0.34728  0.22939  0.27981  1.0000
  C   C1510     1.0  0.45443  0.40925  0.28151  1.0000
  C   C1511     1.0  0.46732  0.43090  0.29020  1.0000
  H   H1231     1.0  0.39591  0.29476  0.26204  1.0000
  H   H1232     1.0  0.44575  0.31328  0.47686  1.0000
  C   C1512     1.0  0.49299  0.44232  0.29160  1.0000
  C   C1513     1.0  0.58699  0.15964  0.26705  1.0000
  C   C1514     1.0  0.34466  0.23872  0.28909  1.0000
  S   S217      1.0  0.47375  0.03360  0.23989  1.0000
  H   H1233     1.0  0.42203  0.31404  0.28387  1.0000
  H   H1234     1.0  0.43209  0.35671  0.29197  1.0000
  H   H1235     1.0  0.38948  0.36066  0.25600  1.0000
  C   C1515     1.0  0.32372  0.22638  0.29696  1.0000
  C   C1516     1.0  0.45100  0.48265  0.39168  1.0000
  C   C1517     1.0  0.37121  0.06689  0.23654  1.0000
  C   C1518     1.0  0.38083  0.41738  0.25541  1.0000
  H   H1236     1.0  0.41689  0.43607  0.29245  1.0000
  C   C1519     1.0  0.60866  0.18240  0.26724  1.0000
  C   C1520     1.0  0.38823  0.40635  0.26594  1.0000
  H   H1237     1.0  0.64181  0.99306  0.38429  1.0000
  H   H1238     1.0  0.33280  0.01033  0.44055  1.0000
  C   C1521     1.0  0.63319  0.16088  0.26658  1.0000
  H   H1239     1.0  0.45782  0.43949  0.29562  1.0000
  C   C1522     1.0  0.46132  0.06526  0.38890  1.0000
  H   H1240     1.0  0.37940  0.36740  0.32528  1.0000
  H   H1241     1.0  0.45847  0.38358  0.26671  1.0000
  C   C1523     1.0  0.47601  0.26306  0.24144  1.0000
  H   H1242     1.0  0.36465  0.48514  0.30521  1.0000
  C   C1524     1.0  0.50240  0.09021  0.28981  1.0000
  H   H1243     1.0  0.42740  0.47461  0.27659  1.0000
  C   C1525     1.0  0.33789  0.26232  0.31319  1.0000
  C   C1526     1.0  0.55384  0.20957  0.29447  1.0000
  H   H1244     1.0  0.49746  0.47609  0.32507  1.0000
  C   C1527     1.0  0.35201  0.11917  0.26909  1.0000
  C   C1528     1.0  0.50729  0.46412  0.41023  1.0000
  H   H1245     1.0  0.55927  0.99867  0.45654  1.0000
  C   C1529     1.0  0.58876  0.13754  0.26655  1.0000
  H   H1246     1.0  0.52595  0.44169  0.28504  1.0000
  H   H1247     1.0  0.57239  0.11968  0.26587  1.0000
  C   C1530     1.0  0.32940  0.01829  0.41876  1.0000
  C   C1531     1.0  0.43477  0.04325  0.36338  1.0000
  C   C1532     1.0  0.62194  0.04380  0.36163  1.0000
  C   C1533     1.0  0.52718  0.10259  0.29434  1.0000
  C   C1534     1.0  0.32393  0.07778  0.27581  1.0000
  H   H1248     1.0  0.57463  0.24611  0.26621  1.0000
  C   C1535     1.0  0.39910  0.05702  0.25034  1.0000
  H   H1249     1.0  0.33564  0.09222  0.47379  1.0000
  C   C1536     1.0  0.49572  0.48376  0.34739  1.0000
  C   C1537     1.0  0.35443  0.10964  0.25592  1.0000
  C   C1538     1.0  0.51030  0.12047  0.27199  1.0000
  H   H1250     1.0  0.60794  0.19971  0.26739  1.0000
  H   H1251     1.0  0.44576  0.42175  0.25479  1.0000
  C   C1539     1.0  0.41179  0.40805  0.26597  1.0000
  C   C1540     1.0  0.56176  0.23059  0.28644  1.0000
  C   C1541     1.0  0.45528  0.46278  0.35706  1.0000
  C   C1542     1.0  0.53547  0.13237  0.27604  1.0000
  H   H1252     1.0  0.37253  0.29337  0.30846  1.0000
  H   H1253     1.0  0.47473  0.08956  0.27519  1.0000
  C   C1543     1.0  0.43313  0.48701  0.39817  1.0000
  C   C1544     1.0  0.49335  0.41084  0.27562  1.0000
  C   C1545     1.0  0.43399  0.14111  0.24319  1.0000
  C   C1546     1.0  0.42758  0.42036  0.25511  1.0000
  C   C1547     1.0  0.49390  0.09936  0.27879  1.0000
  C   C1548     1.0  0.50056  0.47627  0.38689  1.0000
  P   P50       1.0  0.42037  0.99508  0.37143  1.0000
  C   C1549     1.0  0.32219  0.40755  0.38955  1.0000
  C   C1550     1.0  0.51165  0.44323  0.38912  1.0000
  H   H1254     1.0  0.46580  0.25292  0.26287  1.0000
  C   C1551     1.0  0.62525  0.01104  0.41321  1.0000
  H   H1255     1.0  0.50292  0.45952  0.29787  1.0000
  S   S218      1.0  0.51256  0.49070  0.26832  1.0000
  H   H1256     1.0  0.39950  0.44208  0.31452  1.0000
  S   S219      1.0  0.52920  0.03667  0.23991  1.0000
  C   C1552     1.0  0.56850  0.22982  0.27245  1.0000
  C   C1553     1.0  0.45999  0.08005  0.37825  1.0000
  H   H1257     1.0  0.36212  0.13896  0.27157  1.0000
  H   H1258     1.0  0.39680  0.36099  0.30323  1.0000
  C   C1554     1.0  0.64871  0.11180  0.24600  1.0000
  H   H1259     1.0  0.51558  0.42929  0.38423  1.0000
  C   C1555     1.0  0.37906  0.06189  0.24960  1.0000
  C   C1556     1.0  0.55531  0.14496  0.23781  1.0000
  C   C1557     1.0  0.57132  0.99548  0.46376  1.0000
  H   H1260     1.0  0.33977  0.38487  0.39298  1.0000
  C   C1558     1.0  0.32639  0.06819  0.26264  1.0000
  C   C1559     1.0  0.63715  0.03337  0.36522  1.0000
  H   H1261     1.0  0.42579  0.43901  0.34237  1.0000
  H   H1262     1.0  0.52053  0.16925  0.25220  1.0000
  H   H1263     1.0  0.65095  0.16124  0.26611  1.0000
  H   H1264     1.0  0.54632  0.17165  0.29493  1.0000
  H   H1265     1.0  0.34085  0.15736  0.28684  1.0000
  C   C1560     1.0  0.42008  0.43137  0.24460  1.0000
  C   C1561     1.0  0.52821  0.16191  0.24432  1.0000
  C   C1562     1.0  0.48038  0.47983  0.35889  1.0000
  P   P51       1.0  0.55709  0.15856  0.26660  1.0000
  H   H1266     1.0  0.64832  0.20052  0.26684  1.0000
  C   C1563     1.0  0.62341  0.10250  0.24219  1.0000
  C   C1564     1.0  0.46909  0.24687  0.25259  1.0000
  C   C1565     1.0  0.44946  0.03946  0.38679  1.0000
  H   H1267     1.0  0.57499  0.02441  0.47883  1.0000
  C   C1566     1.0  0.41130  0.05692  0.23806  1.0000
  C   C1567     1.0  0.54361  0.12381  0.28765  1.0000
  H   H1268     1.0  0.53697  0.35383  0.23970  1.0000
  Fe  Fe108     1.0  0.40149  0.23211  0.24324  1.0000
  H   H1269     1.0  0.47783  0.28139  0.24332  1.0000
  C   C1568     1.0  0.32260  0.15328  0.28993  1.0000
  H   H1270     1.0  0.40031  0.29443  0.47770  1.0000
  H   H1271     1.0  0.60981  0.08574  0.24669  1.0000
  H   H1272     1.0  0.45025  0.02819  0.39524  1.0000
  H   H1273     1.0  0.50877  0.01935  0.30690  1.0000
  H   H1274     1.0  0.45413  0.99865  0.32405  1.0000
  S   S220      1.0  0.42823  0.27316  0.24987  1.0000
  H   H1275     1.0  0.36668  0.12228  0.24853  1.0000
  H   H1276     1.0  0.50339  0.12672  0.26321  1.0000
  C   C1569     1.0  0.50144  0.47917  0.40176  1.0000
  Fe  Fe109     1.0  0.51219  0.47159  0.24692  1.0000
  C   C1570     1.0  0.32444  0.01771  0.43316  1.0000
  C   C1571     1.0  0.43647  0.02832  0.37392  1.0000
  C   C1572     1.0  0.44665  0.06904  0.36551  1.0000
  C   C1573     1.0  0.33665  0.10327  0.27901  1.0000
  C   C1574     1.0  0.50601  0.43231  0.28431  1.0000
  S   S221      1.0  0.35673  0.16068  0.23657  1.0000
  H   H1277     1.0  0.57249  0.20769  0.25562  1.0000
  H   H1278     1.0  0.63884  0.02328  0.40618  1.0000
  C   C1575     1.0  0.60064  0.00564  0.41132  1.0000
  C   C1576     1.0  0.63193  0.06941  0.36057  1.0000
  H   H1279     1.0  0.61288  0.12109  0.26622  1.0000
  C   C1577     1.0  0.51235  0.44613  0.40392  1.0000
  H   H1280     1.0  0.45982  0.47266  0.26216  1.0000
  H   H1281     1.0  0.62887  0.01347  0.36570  1.0000
  H   H1282     1.0  0.62012  0.07741  0.35767  1.0000
  H   H1283     1.0  0.60239  0.03193  0.35951  1.0000
  C   C1578     1.0  0.46054  0.45615  0.33220  1.0000
  H   H1284     1.0  0.44296  0.45904  0.36569  1.0000
  H   H1285     1.0  0.59511  0.01373  0.40281  1.0000
  C   C1579     1.0  0.43878  0.99795  0.34446  1.0000
  H   H1286     1.0  0.50786  0.46641  0.42170  1.0000
  C   C1580     1.0  0.50582  0.45827  0.38062  1.0000
  C   C1581     1.0  0.32526  0.42986  0.38385  1.0000
  C   C1582     1.0  0.43744  0.30321  0.24309  1.0000
  H   H1287     1.0  0.33569  0.27172  0.32251  1.0000
  C   C1583     1.0  0.54632  0.15513  0.24824  1.0000
  H   H1288     1.0  0.36276  0.41628  0.25557  1.0000
  C   C1584     1.0  0.48574  0.47223  0.33405  1.0000
  C   C1585     1.0  0.32016  0.23803  0.30910  1.0000
  C   C1586     1.0  0.58047  0.01034  0.47628  1.0000
  H   H1289     1.0  0.43248  0.44127  0.23641  1.0000
  C   C1587     1.0  0.46277  0.99273  0.38038  1.0000
  C   C1588     1.0  0.31805  0.02714  0.40920  1.0000
  H   H1290     1.0  0.32111  0.02674  0.39794  1.0000
  C   C1589     1.0  0.59708  0.00744  0.48540  1.0000
  H   H1291     1.0  0.42998  0.10957  0.57800  1.0000
  H   H1292     1.0  0.37177  0.03818  0.64398  1.0000
  P   P52       1.0  0.40149  0.32009  0.52818  1.0000
  C   C1590     1.0  0.61536  0.17382  0.60789  1.0000
  H   H1293     1.0  0.47155  0.45761  0.72481  1.0000
  S   S222      1.0  0.35124  0.02382  0.57138  1.0000
  C   C1591     1.0  0.36815  0.42889  0.72227  1.0000
  C   C1592     1.0  0.41020  0.99702  0.60952  1.0000
  S   S223      1.0  0.35468  0.30394  0.57694  1.0000
  C   C1593     1.0  0.39975  0.07619  0.64490  1.0000
  Fe  Fe110     1.0  0.53967  0.46975  0.59960  1.0000
  S   S224      1.0  0.54847  0.46714  0.62265  1.0000
  Fe  Fe111     1.0  0.48427  0.43022  0.60187  1.0000
  S   S225      1.0  0.48986  0.42621  0.62516  1.0000
  S   S226      1.0  0.44705  0.41248  0.58895  1.0000
  Fe  Fe112     1.0  0.51272  0.46765  0.62688  1.0000
  C   C1594     1.0  0.37888  0.37199  0.68189  1.0000
  Fe  Fe113     1.0  0.52517  0.42587  0.61919  1.0000
  S   S227      1.0  0.53184  0.39457  0.62771  1.0000
  S   S228      1.0  0.50509  0.47216  0.60394  1.0000
  S   S229      1.0  0.51832  0.42797  0.59572  1.0000
  Fe  Fe114     1.0  0.63452  0.35213  0.65162  1.0000
  S   S230      1.0  0.62889  0.38460  0.64370  1.0000
  Fe  Fe115     1.0  0.62049  0.29633  0.65162  1.0000
  S   S231      1.0  0.59108  0.25903  0.64141  1.0000
  S   S232      1.0  0.60695  0.32017  0.66326  1.0000
  Fe  Fe116     1.0  0.49127  0.07896  0.61200  1.0000
  S   S233      1.0  0.50230  0.08395  0.63557  1.0000
  S   S234      1.0  0.45659  0.08267  0.60541  1.0000
  Fe  Fe117     1.0  0.53899  0.07678  0.60395  1.0000
  S   S235      1.0  0.55222  0.08160  0.62669  1.0000
  S   S236      1.0  0.56163  0.07518  0.58517  1.0000
  Fe  Fe118     1.0  0.51338  0.05421  0.63138  1.0000
  S   S237      1.0  0.51056  0.02313  0.64540  1.0000
  Fe  Fe119     1.0  0.54036  0.11115  0.62915  1.0000
  S   S238      1.0  0.56761  0.14532  0.64288  1.0000
  S   S239      1.0  0.50038  0.04753  0.60824  1.0000
  S   S240      1.0  0.52905  0.10804  0.60600  1.0000
  H   H1294     1.0  0.59293  0.18274  0.69055  1.0000
  C   C1595     1.0  0.48564  0.14777  0.56536  1.0000
  C   C1596     1.0  0.49266  0.01030  0.66040  1.0000
  H   H1295     1.0  0.43847  0.31837  0.54770  1.0000
  H   H1296     1.0  0.42093  0.14252  0.59089  1.0000
  C   C1597     1.0  0.58575  0.22772  0.64157  1.0000
  C   C1598     1.0  0.56493  0.20920  0.63397  1.0000
  C   C1599     1.0  0.55948  0.18404  0.63392  1.0000
  C   C1600     1.0  0.57481  0.17701  0.64151  1.0000
  C   C1601     1.0  0.59583  0.19554  0.64896  1.0000
  C   C1602     1.0  0.60125  0.22072  0.64904  1.0000
  H   H1297     1.0  0.55282  0.21437  0.62813  1.0000
  H   H1298     1.0  0.54323  0.17009  0.62815  1.0000
  H   H1299     1.0  0.60785  0.19035  0.65485  1.0000
  H   H1300     1.0  0.61736  0.23470  0.65490  1.0000
  C   C1603     1.0  0.49597  0.99241  0.66786  1.0000
  C   C1604     1.0  0.48305  0.46596  0.66406  1.0000
  H   H1301     1.0  0.39439  0.00613  0.68801  1.0000
  H   H1302     1.0  0.48385  0.45076  0.65838  1.0000
  C   C1605     1.0  0.63006  0.14098  0.63542  1.0000
  C   C1606     1.0  0.55907  0.39232  0.63236  1.0000
  C   C1607     1.0  0.55730  0.36877  0.63421  1.0000
  C   C1608     1.0  0.57828  0.36603  0.63790  1.0000
  C   C1609     1.0  0.60144  0.38687  0.63980  1.0000
  C   C1610     1.0  0.60311  0.41046  0.63821  1.0000
  C   C1611     1.0  0.58210  0.41319  0.63462  1.0000
  H   H1303     1.0  0.53959  0.35245  0.63265  1.0000
  H   H1304     1.0  0.57659  0.34776  0.63909  1.0000
  H   H1305     1.0  0.62075  0.42676  0.63996  1.0000
  H   H1306     1.0  0.58363  0.43142  0.63391  1.0000
  C   C1612     1.0  0.62243  0.05117  0.57987  1.0000
  C   C1613     1.0  0.61633  0.06274  0.56903  1.0000
  C   C1614     1.0  0.59785  0.07002  0.57089  1.0000
  C   C1615     1.0  0.58501  0.06574  0.58355  1.0000
  C   C1616     1.0  0.59099  0.05402  0.59436  1.0000
  C   C1617     1.0  0.60963  0.04693  0.59254  1.0000
  H   H1307     1.0  0.62586  0.06611  0.55920  1.0000
  H   H1308     1.0  0.59338  0.07894  0.56241  1.0000
  H   H1309     1.0  0.58120  0.05035  0.60409  1.0000
  C   C1618     1.0  0.42219  0.38183  0.58534  1.0000
  C   C1619     1.0  0.40352  0.37823  0.57514  1.0000
  C   C1620     1.0  0.38318  0.35457  0.57210  1.0000
  C   C1621     1.0  0.38093  0.33405  0.57939  1.0000
  C   C1622     1.0  0.39962  0.33763  0.58957  1.0000
  C   C1623     1.0  0.42018  0.36123  0.59243  1.0000
  H   H1310     1.0  0.40479  0.39395  0.56955  1.0000
  H   H1311     1.0  0.36896  0.35242  0.56439  1.0000
  H   H1312     1.0  0.39817  0.32202  0.59534  1.0000
  H   H1313     1.0  0.43437  0.36353  0.60022  1.0000
  C   C1624     1.0  0.32130  0.42364  0.66099  1.0000
  C   C1625     1.0  0.38027  0.04030  0.58116  1.0000
  C   C1626     1.0  0.38630  0.06144  0.58992  1.0000
  C   C1627     1.0  0.40939  0.07369  0.59745  1.0000
  C   C1628     1.0  0.42706  0.06525  0.59631  1.0000
  C   C1629     1.0  0.42093  0.04395  0.58769  1.0000
  C   C1630     1.0  0.39770  0.03151  0.58030  1.0000
  H   H1314     1.0  0.37307  0.06823  0.59095  1.0000
  H   H1315     1.0  0.41371  0.09002  0.60412  1.0000
  H   H1316     1.0  0.43426  0.03726  0.58654  1.0000
  H   H1317     1.0  0.39337  0.01514  0.57365  1.0000
  C   C1631     1.0  0.41552  0.00210  0.62419  1.0000
  H   H1318     1.0  0.40772  0.42885  0.69778  1.0000
  H   H1319     1.0  0.44858  0.16502  0.54679  1.0000
  C   C1632     1.0  0.56022  0.22697  0.72352  1.0000
  H   H1320     1.0  0.45324  0.33827  0.52051  1.0000
  H   H1321     1.0  0.61163  0.22044  0.71850  1.0000
  H   H1322     1.0  0.36539  0.42752  0.73359  1.0000
  H   H1323     1.0  0.37081  0.26572  0.56874  1.0000
  C   C1633     1.0  0.44473  0.38439  0.55165  1.0000
  C   C1634     1.0  0.46743  0.39038  0.65438  1.0000
  C   C1635     1.0  0.35107  0.38374  0.66983  1.0000
  C   C1636     1.0  0.45968  0.37794  0.56002  1.0000
  C   C1637     1.0  0.40708  0.04146  0.63843  1.0000
  H   H1324     1.0  0.44808  0.40995  0.66130  1.0000
  H   H1325     1.0  0.47071  0.10063  0.71425  1.0000
  H   H1326     1.0  0.54502  0.22750  0.71779  1.0000
  C   C1638     1.0  0.44136  0.32853  0.51133  1.0000
  C   C1639     1.0  0.35181  0.33927  0.61618  1.0000
  C   C1640     1.0  0.46802  0.12948  0.57336  1.0000
  C   C1641     1.0  0.38874  0.12394  0.60298  1.0000
  H   H1327     1.0  0.37574  0.02607  0.61260  1.0000
  C   C1642     1.0  0.35697  0.43760  0.69901  1.0000
  C   C1643     1.0  0.44804  0.39622  0.65376  1.0000
  H   H1328     1.0  0.52711  0.06961  0.73039  1.0000
  H   H1329     1.0  0.39272  0.07828  0.56206  1.0000
  C   C1644     1.0  0.36426  0.24520  0.53422  1.0000
  C   C1645     1.0  0.49056  0.47155  0.72670  1.0000
  C   C1646     1.0  0.35500  0.34246  0.50896  1.0000
  C   C1647     1.0  0.43645  0.00172  0.63018  1.0000
  H   H1330     1.0  0.44630  0.40274  0.55308  1.0000
  Fe  Fe120     1.0  0.31916  0.03027  0.56260  1.0000
  C   C1648     1.0  0.53796  0.46055  0.69400  1.0000
  C   C1649     1.0  0.61090  0.08960  0.63202  1.0000
  H   H1331     1.0  0.56287  0.42271  0.57438  1.0000
  C   C1650     1.0  0.47856  0.16065  0.55587  1.0000
  H   H1332     1.0  0.47198  0.33513  0.49836  1.0000
  H   H1333     1.0  0.56340  0.42208  0.60071  1.0000
  C   C1651     1.0  0.59511  0.17699  0.60372  1.0000
  C   C1652     1.0  0.57845  0.16135  0.59305  1.0000
  C   C1653     1.0  0.58193  0.14239  0.58662  1.0000
  C   C1654     1.0  0.60214  0.13916  0.59079  1.0000
  H   H1334     1.0  0.40909  0.37427  0.67015  1.0000
  H   H1335     1.0  0.40047  0.42385  0.72349  1.0000
  C   C1655     1.0  0.32413  0.42078  0.64647  1.0000
  C   C1656     1.0  0.44004  0.33675  0.54871  1.0000
  H   H1336     1.0  0.39872  0.13123  0.61308  1.0000
  H   H1337     1.0  0.39705  0.40915  0.61359  1.0000
  H   H1338     1.0  0.33784  0.43620  0.71817  1.0000
  H   H1339     1.0  0.59199  0.19118  0.60905  1.0000
  H   H1340     1.0  0.56243  0.16342  0.59007  1.0000
  H   H1341     1.0  0.56849  0.12952  0.57878  1.0000
  H   H1342     1.0  0.60390  0.12370  0.58613  1.0000
  C   C1657     1.0  0.41563  0.31789  0.51193  1.0000
  H   H1343     1.0  0.53045  0.42347  0.68744  1.0000
  H   H1344     1.0  0.39445  0.99744  0.60449  1.0000
  H   H1345     1.0  0.36812  0.05001  0.51930  1.0000
  C   C1658     1.0  0.39402  0.00691  0.66513  1.0000
  C   C1659     1.0  0.36300  0.45732  0.66323  1.0000
  C   C1660     1.0  0.36220  0.24433  0.54892  1.0000
  H   H1346     1.0  0.32835  0.32850  0.54085  1.0000
  H   H1347     1.0  0.62753  0.18555  0.61653  1.0000
  C   C1661     1.0  0.39417  0.99651  0.67813  1.0000
  H   H1348     1.0  0.34711  0.37151  0.69127  1.0000
  H   H1349     1.0  0.33192  0.19991  0.60737  1.0000
  C   C1662     1.0  0.63107  0.31753  0.71851  1.0000
  C   C1663     1.0  0.46003  0.01705  0.72516  1.0000
  C   C1664     1.0  0.40096  0.30553  0.49968  1.0000
  C   C1665     1.0  0.36524  0.99604  0.62695  1.0000
  P   P53       1.0  0.33777  0.44628  0.68827  1.0000
  C   C1666     1.0  0.42548  0.99150  0.60104  1.0000
  C   C1667     1.0  0.44341  0.12431  0.57203  1.0000
  H   H1350     1.0  0.49216  0.17444  0.54944  1.0000
  C   C1668     1.0  0.36120  0.32644  0.53547  1.0000
  H   H1351     1.0  0.33960  0.41696  0.60317  1.0000
  C   C1669     1.0  0.34147  0.33129  0.53275  1.0000
  H   H1352     1.0  0.46124  0.44362  0.68079  1.0000
  C   C1670     1.0  0.36578  0.45439  0.64874  1.0000
  C   C1671     1.0  0.61742  0.47462  0.59693  1.0000
  C   C1672     1.0  0.45389  0.15547  0.55452  1.0000
  C   C1673     1.0  0.38390  0.37779  0.62721  1.0000
  C   C1674     1.0  0.42450  0.09264  0.64305  1.0000
  C   C1675     1.0  0.35258  0.35134  0.60372  1.0000
  C   C1676     1.0  0.53549  0.44605  0.66950  1.0000
  H   H1353     1.0  0.33485  0.00888  0.60039  1.0000
  C   C1677     1.0  0.38653  0.38604  0.65780  1.0000
  H   H1354     1.0  0.43121  0.11244  0.64447  1.0000
  S   S241      1.0  0.45280  0.47558  0.70017  1.0000
  C   C1678     1.0  0.62309  0.24556  0.68832  1.0000
  H   H1355     1.0  0.34855  0.43414  0.62911  1.0000
  H   H1356     1.0  0.64320  0.99666  0.63254  1.0000
  C   C1679     1.0  0.38441  0.38980  0.61465  1.0000
  H   H1357     1.0  0.37764  0.04374  0.54412  1.0000
  C   C1680     1.0  0.43625  0.13776  0.56292  1.0000
  C   C1681     1.0  0.37530  0.06542  0.52710  1.0000
  C   C1682     1.0  0.37293  0.26627  0.55735  1.0000
  C   C1683     1.0  0.38539  0.28910  0.55108  1.0000
  C   C1684     1.0  0.38757  0.29026  0.53628  1.0000
  C   C1685     1.0  0.34086  0.44176  0.66953  1.0000
  H   H1358     1.0  0.37312  0.48540  0.70860  1.0000
  C   C1686     1.0  0.37755  0.32878  0.52480  1.0000
  H   H1359     1.0  0.46893  0.34918  0.56510  1.0000
  H   H1360     1.0  0.60269  0.06964  0.63050  1.0000
  C   C1687     1.0  0.42455  0.34293  0.54047  1.0000
  C   C1688     1.0  0.59754  0.45585  0.60353  1.0000
  C   C1689     1.0  0.59758  0.22300  0.72384  1.0000
  C   C1690     1.0  0.62355  0.32388  0.73125  1.0000
  C   C1691     1.0  0.37491  0.33788  0.51170  1.0000
  C   C1692     1.0  0.43737  0.31451  0.48663  1.0000
  H   H1361     1.0  0.57309  0.16649  0.71645  1.0000
  H   H1362     1.0  0.34120  0.34096  0.59446  1.0000
  H   H1363     1.0  0.37461  0.09140  0.51245  1.0000
  C   C1693     1.0  0.34639  0.43612  0.64037  1.0000
  H   H1364     1.0  0.38091  0.43816  0.68230  1.0000
  H   H1365     1.0  0.45956  0.09637  0.63707  1.0000
  C   C1694     1.0  0.43190  0.05809  0.63663  1.0000
  C   C1695     1.0  0.44686  0.47863  0.63891  1.0000
  C   C1696     1.0  0.54296  0.48416  0.68960  1.0000
  H   H1366     1.0  0.39268  0.30587  0.55782  1.0000
  C   C1697     1.0  0.47529  0.01727  0.66500  1.0000
  H   H1367     1.0  0.35524  0.22816  0.52767  1.0000
  H   H1368     1.0  0.61402  0.03791  0.60100  1.0000
  H   H1369     1.0  0.35163  0.22669  0.55370  1.0000
  H   H1370     1.0  0.59712  0.45573  0.61497  1.0000
  C   C1698     1.0  0.50651  0.47892  0.71547  1.0000
  H   H1371     1.0  0.38793  0.34127  0.50350  1.0000
  H   H1372     1.0  0.44750  0.01143  0.68011  1.0000
  C   C1699     1.0  0.43142  0.46852  0.65017  1.0000
  C   C1700     1.0  0.37677  0.43535  0.69334  1.0000
  P   P54       1.0  0.39557  0.00850  0.63543  1.0000
  S   S242      1.0  0.32465  0.05735  0.54564  1.0000
  H   H1373     1.0  0.48233  0.39960  0.66230  1.0000
  H   H1374     1.0  0.42417  0.21833  0.55906  1.0000
  C   C1701     1.0  0.38058  0.06186  0.54107  1.0000
  C   C1702     1.0  0.35791  0.37529  0.68188  1.0000
  C   C1703     1.0  0.53999  0.05163  0.68203  1.0000
  C   C1704     1.0  0.54804  0.06743  0.67074  1.0000
  C   C1705     1.0  0.54381  0.08792  0.67042  1.0000
  C   C1706     1.0  0.53132  0.09249  0.68135  1.0000
  C   C1707     1.0  0.52318  0.07675  0.69279  1.0000
  C   C1708     1.0  0.52753  0.05616  0.69300  1.0000
  P   P55       1.0  0.50473  0.08139  0.70604  1.0000
  C   C1709     1.0  0.49307  0.05589  0.71780  1.0000
  C   C1710     1.0  0.52209  0.10987  0.71675  1.0000
  C   C1711     1.0  0.62995  0.20378  0.68408  1.0000
  H   H1375     1.0  0.37813  0.47184  0.66956  1.0000
  C   C1712     1.0  0.54375  0.12941  0.71197  1.0000
  C   C1713     1.0  0.46894  0.03645  0.71587  1.0000
  C   C1714     1.0  0.37682  0.26801  0.52790  1.0000
  C   C1715     1.0  0.57758  0.22272  0.71617  1.0000
  H   H1376     1.0  0.44154  0.00184  0.72348  1.0000
  H   H1377     1.0  0.36975  0.38577  0.59320  1.0000
  C   C1716     1.0  0.47870  0.08176  0.69695  1.0000
  C   C1717     1.0  0.47070  0.07027  0.68334  1.0000
  C   C1718     1.0  0.45014  0.06974  0.67642  1.0000
  C   C1719     1.0  0.43731  0.08065  0.68300  1.0000
  C   C1720     1.0  0.44491  0.09187  0.69662  1.0000
  C   C1721     1.0  0.46542  0.09227  0.70363  1.0000
  H   H1378     1.0  0.54239  0.03517  0.68192  1.0000
  H   H1379     1.0  0.55659  0.06315  0.66192  1.0000
  H   H1380     1.0  0.54953  0.09980  0.66144  1.0000
  H   H1381     1.0  0.52732  0.10785  0.68058  1.0000
  H   H1382     1.0  0.52053  0.04293  0.70125  1.0000
  C   C1722     1.0  0.54788  0.15419  0.73342  1.0000
  H   H1383     1.0  0.38720  0.08321  0.64785  1.0000
  H   H1384     1.0  0.55088  0.12794  0.70184  1.0000
  C   C1723     1.0  0.44054  0.08358  0.63899  1.0000
  H   H1385     1.0  0.36700  0.34266  0.63735  1.0000
  C   C1724     1.0  0.59748  0.45615  0.57394  1.0000
  C   C1725     1.0  0.46111  0.00614  0.67676  1.0000
  H   H1386     1.0  0.48011  0.06140  0.67809  1.0000
  H   H1387     1.0  0.44411  0.06063  0.66597  1.0000
  H   H1388     1.0  0.42136  0.08020  0.67759  1.0000
  H   H1389     1.0  0.43474  0.10004  0.70181  1.0000
  C   C1726     1.0  0.36531  0.38912  0.65784  1.0000
  P   P56       1.0  0.40486  0.39374  0.64225  1.0000
  C   C1727     1.0  0.42894  0.38478  0.64332  1.0000
  C   C1728     1.0  0.46814  0.37336  0.64442  1.0000
  C   C1729     1.0  0.44935  0.36206  0.63390  1.0000
  C   C1730     1.0  0.42980  0.36771  0.63332  1.0000
  C   C1731     1.0  0.42045  0.42698  0.64077  1.0000
  C   C1732     1.0  0.43660  0.43738  0.62974  1.0000
  C   C1733     1.0  0.44949  0.46307  0.62874  1.0000
  C   C1734     1.0  0.36327  0.10877  0.60253  1.0000
  H   H1390     1.0  0.57633  0.11596  0.73095  1.0000
  H   H1391     1.0  0.40720  0.43559  0.66025  1.0000
  H   H1392     1.0  0.48366  0.36951  0.64455  1.0000
  H   H1393     1.0  0.45033  0.34941  0.62595  1.0000
  H   H1394     1.0  0.41588  0.35920  0.62484  1.0000
  H   H1395     1.0  0.43951  0.42565  0.62197  1.0000
  H   H1396     1.0  0.38108  0.29731  0.49980  1.0000
  H   H1397     1.0  0.39400  0.02455  0.66520  1.0000
  S   S243      1.0  0.62949  0.33231  0.70286  1.0000
  Fe  Fe121     1.0  0.32157  0.28049  0.56129  1.0000
  H   H1398     1.0  0.46226  0.47099  0.62035  1.0000
  H   H1399     1.0  0.58578  0.26887  0.70783  1.0000
  C   C1735     1.0  0.38793  0.42693  0.71659  1.0000
  P   P57       1.0  0.57498  0.21873  0.69698  1.0000
  C   C1736     1.0  0.60371  0.22196  0.69059  1.0000
  C   C1737     1.0  0.54981  0.18896  0.69102  1.0000
  C   C1738     1.0  0.54966  0.17890  0.67741  1.0000
  C   C1739     1.0  0.52989  0.15645  0.67243  1.0000
  C   C1740     1.0  0.50989  0.14394  0.68096  1.0000
  C   C1741     1.0  0.50980  0.15381  0.69451  1.0000
  C   C1742     1.0  0.52967  0.17619  0.69954  1.0000
  C   C1743     1.0  0.60742  0.20110  0.68865  1.0000
  C   C1744     1.0  0.63204  0.13045  0.62239  1.0000
  H   H1400     1.0  0.36323  0.32013  0.54578  1.0000
  H   H1401     1.0  0.37740  0.26800  0.51650  1.0000
  C   C1745     1.0  0.41826  0.44280  0.65113  1.0000
  C   C1746     1.0  0.56947  0.24278  0.68968  1.0000
  C   C1747     1.0  0.57601  0.26500  0.69760  1.0000
  C   C1748     1.0  0.57034  0.28286  0.69224  1.0000
  C   C1749     1.0  0.55866  0.27899  0.67883  1.0000
  C   C1750     1.0  0.55330  0.25759  0.67059  1.0000
  C   C1751     1.0  0.55867  0.23954  0.67596  1.0000
  C   C1752     1.0  0.62160  0.10459  0.62063  1.0000
  H   H1402     1.0  0.38422  0.36550  0.69126  1.0000
  H   H1403     1.0  0.56463  0.18865  0.67048  1.0000
  H   H1404     1.0  0.53003  0.14902  0.66184  1.0000
  H   H1405     1.0  0.49443  0.12672  0.67699  1.0000
  H   H1406     1.0  0.49423  0.14431  0.70108  1.0000
  H   H1407     1.0  0.52904  0.18344  0.71002  1.0000
  H   H1408     1.0  0.62079  0.26196  0.68990  1.0000
  C   C1753     1.0  0.36738  0.35242  0.62789  1.0000
  C   C1754     1.0  0.36876  0.37659  0.60300  1.0000
  C   C1755     1.0  0.39105  0.05070  0.64261  1.0000
  C   C1756     1.0  0.47027  0.46200  0.67675  1.0000
  H   H1409     1.0  0.57573  0.30011  0.69831  1.0000
  H   H1410     1.0  0.55487  0.29317  0.67455  1.0000
  H   H1411     1.0  0.54571  0.25532  0.65982  1.0000
  H   H1412     1.0  0.55479  0.22343  0.66921  1.0000
  C   C1757     1.0  0.55655  0.15143  0.72028  1.0000
  H   H1413     1.0  0.33059  0.08856  0.58904  1.0000
  H   H1414     1.0  0.47331  0.11903  0.58052  1.0000
  C   C1758     1.0  0.53417  0.44158  0.68398  1.0000
  H   H1415     1.0  0.35998  0.39595  0.64863  1.0000
  C   C1759     1.0  0.39206  0.42989  0.70211  1.0000
  H   H1416     1.0  0.33965  0.31955  0.61658  1.0000
  C   C1760     1.0  0.35042  0.09971  0.58947  1.0000
  C   C1761     1.0  0.36304  0.10532  0.57687  1.0000
  C   C1762     1.0  0.38866  0.12019  0.57722  1.0000
  C   C1763     1.0  0.40135  0.13002  0.59035  1.0000
  P   P58       1.0  0.40416  0.13003  0.56082  1.0000
  C   C1764     1.0  0.39201  0.10474  0.54762  1.0000
  C   C1765     1.0  0.38741  0.10844  0.53346  1.0000
  C   C1766     1.0  0.37880  0.08873  0.52329  1.0000
  H   H1417     1.0  0.61032  0.00663  0.63956  1.0000
  C   C1767     1.0  0.57816  0.43709  0.58064  1.0000
  C   C1768     1.0  0.38887  0.08142  0.55129  1.0000
  C   C1769     1.0  0.39844  0.15528  0.55599  1.0000
  C   C1770     1.0  0.37523  0.15021  0.55017  1.0000
  C   C1771     1.0  0.37006  0.16958  0.54715  1.0000
  C   C1772     1.0  0.38781  0.19412  0.55017  1.0000
  C   C1773     1.0  0.41065  0.19932  0.55640  1.0000
  C   C1774     1.0  0.41587  0.17997  0.55947  1.0000
  H   H1418     1.0  0.46764  0.99569  0.62640  1.0000
  H   H1419     1.0  0.47272  0.39130  0.56786  1.0000
  H   H1420     1.0  0.35270  0.09850  0.56684  1.0000
  H   H1421     1.0  0.61618  0.33681  0.73116  1.0000
  H   H1422     1.0  0.45700  0.03580  0.70707  1.0000
  Fe  Fe122     1.0  0.63743  0.32821  0.67956  1.0000
  C   C1775     1.0  0.39309  0.37719  0.66988  1.0000
  H   H1423     1.0  0.36089  0.13127  0.54819  1.0000
  H   H1424     1.0  0.35209  0.16550  0.54270  1.0000
  H   H1425     1.0  0.38366  0.20906  0.54790  1.0000
  H   H1426     1.0  0.39048  0.12643  0.53022  1.0000
  H   H1427     1.0  0.43326  0.18432  0.56482  1.0000
  C   C1776     1.0  0.61929  0.15516  0.60124  1.0000
  C   C1777     1.0  0.45213  0.32682  0.49874  1.0000
  C   C1778     1.0  0.60617  0.99141  0.63196  1.0000
  H   H1428     1.0  0.50470  0.15165  0.56636  1.0000
  H   H1429     1.0  0.60439  0.01910  0.49504  1.0000
  C   C1779     1.0  0.35264  0.43402  0.71350  1.0000
  H   H1430     1.0  0.58334  0.07919  0.72944  1.0000
  H   H1431     1.0  0.65024  0.00782  0.60253  1.0000
  H   H1432     1.0  0.54113  0.47283  0.65383  1.0000
  C   C1780     1.0  0.42718  0.36698  0.54192  1.0000
  C   C1781     1.0  0.57830  0.43685  0.59545  1.0000
  H   H1433     1.0  0.49946  0.47059  0.70495  1.0000
  C   C1782     1.0  0.33809  0.33882  0.51941  1.0000
  H   H1434     1.0  0.32278  0.47902  0.67408  1.0000
  C   C1783     1.0  0.50832  0.05517  0.72892  1.0000
  H   H1435     1.0  0.41553  0.37229  0.53572  1.0000
  H   H1436     1.0  0.43053  0.48067  0.65849  1.0000
  C   C1784     1.0  0.45741  0.35416  0.55851  1.0000
  H   H1437     1.0  0.47262  0.03100  0.65936  1.0000
  H   H1438     1.0  0.53275  0.43147  0.66170  1.0000
  C   C1785     1.0  0.41179  0.30388  0.48710  1.0000
  H   H1439     1.0  0.44454  0.05160  0.63305  1.0000
  C   C1786     1.0  0.51376  0.11271  0.73010  1.0000
  H   H1440     1.0  0.38293  0.46652  0.64397  1.0000
  C   C1787     1.0  0.34701  0.47885  0.69105  1.0000
  H   H1441     1.0  0.63247  0.44615  0.61334  1.0000
  H   H1442     1.0  0.33485  0.38633  0.66986  1.0000
  H   H1443     1.0  0.62117  0.09592  0.61039  1.0000
  C   C1788     1.0  0.61714  0.47483  0.58203  1.0000
  H   H1444     1.0  0.33346  0.38529  0.62075  1.0000
  H   H1445     1.0  0.63640  0.16073  0.63671  1.0000
  H   H1446     1.0  0.35240  0.34849  0.49865  1.0000
  H   H1447     1.0  0.60063  0.08858  0.65375  1.0000
  H   H1448     1.0  0.44110  0.00574  0.64141  1.0000
  H   H1449     1.0  0.35341  0.10423  0.61227  1.0000
  C   C1789     1.0  0.61894  0.12594  0.64673  1.0000
  C   C1790     1.0  0.31907  0.38194  0.61283  1.0000
  C   C1791     1.0  0.33785  0.99909  0.60901  1.0000
  C   C1792     1.0  0.64905  0.22731  0.68167  1.0000
  H   H1450     1.0  0.59703  0.45668  0.56247  1.0000
  H   H1451     1.0  0.53733  0.45689  0.70519  1.0000
  H   H1452     1.0  0.63253  0.18760  0.68227  1.0000
  C   C1793     1.0  0.39425  0.99468  0.65231  1.0000
  C   C1794     1.0  0.54043  0.46943  0.66506  1.0000
  S   S244      1.0  0.64641  0.32805  0.63866  1.0000
  C   C1795     1.0  0.46926  0.48169  0.68429  1.0000
  C   C1796     1.0  0.45152  0.99595  0.62169  1.0000
  C   C1797     1.0  0.36101  0.00879  0.61596  1.0000
  S   S245      1.0  0.64587  0.04178  0.57832  1.0000
  C   C1798     1.0  0.64569  0.24818  0.68391  1.0000
  S   S246      1.0  0.64931  0.30260  0.66865  1.0000
  C   C1799     1.0  0.60963  0.10028  0.64508  1.0000
  H   H1453     1.0  0.61682  0.13412  0.65659  1.0000
  S   S247      1.0  0.32102  0.26857  0.53819  1.0000
  H   H1454     1.0  0.32223  0.34160  0.51714  1.0000
  C   C1800     1.0  0.32251  0.39976  0.60296  1.0000
  C   C1801     1.0  0.63980  0.30014  0.71870  1.0000
  H   H1455     1.0  0.64556  0.29502  0.70897  1.0000
  C   C1802     1.0  0.64147  0.28974  0.73160  1.0000
  H   H1456     1.0  0.64548  0.38606  0.72439  1.0000
  H   H1457     1.0  0.64582  0.15212  0.57636  1.0000
  C   C1803     1.0  0.49509  0.48972  0.65884  1.0000
  H   H1458     1.0  0.49727  0.09787  0.73414  1.0000
  P   P59       1.0  0.64419  0.14975  0.60748  1.0000
  H   H1459     1.0  0.64843  0.27648  0.73168  1.0000
  C   C1804     1.0  0.33659  0.48996  0.68229  1.0000
  H   H1460     1.0  0.58599  0.48941  0.70272  1.0000
  H   H1461     1.0  0.63173  0.48949  0.57661  1.0000
  C   C1805     1.0  0.54409  0.48839  0.67501  1.0000
  C   C1806     1.0  0.57557  0.07074  0.75134  1.0000
  C   C1807     1.0  0.42435  0.44457  0.86925  1.0000
  H   H1462     1.0  0.46599  0.43452  0.78524  1.0000
  S   S248      1.0  0.35114  0.04402  0.88757  1.0000
  H   H1463     1.0  0.40554  0.42993  0.86787  1.0000
  C   C1808     1.0  0.61608  0.47990  0.86758  1.0000
  C   C1809     1.0  0.61874  0.21135  0.89217  1.0000
  S   S249      1.0  0.36289  0.31909  0.88663  1.0000
  C   C1810     1.0  0.51416  0.35885  0.80637  1.0000
  C   C1811     1.0  0.53046  0.15864  0.88022  1.0000
  Fe  Fe123     1.0  0.49149  0.08380  0.86259  1.0000
  S   S250      1.0  0.49109  0.08558  0.83871  1.0000
  S   S251      1.0  0.46762  0.09355  0.87757  1.0000
  Fe  Fe124     1.0  0.53585  0.07182  0.86310  1.0000
  S   S252      1.0  0.53727  0.07189  0.83920  1.0000
  S   S253      1.0  0.56207  0.06801  0.87986  1.0000
  Fe  Fe125     1.0  0.53250  0.10641  0.84077  1.0000
  S   S254      1.0  0.55736  0.13681  0.82617  1.0000
  Fe  Fe126     1.0  0.49587  0.05120  0.83866  1.0000
  S   S255      1.0  0.46924  0.01833  0.82413  1.0000
  S   S256      1.0  0.53299  0.10732  0.86464  1.0000
  S   S257      1.0  0.49432  0.04837  0.86255  1.0000
  Fe  Fe127     1.0  0.51381  0.44436  0.83274  1.0000
  S   S258      1.0  0.51013  0.46308  0.85287  1.0000
  C   C1812     1.0  0.46435  0.46167  0.88140  1.0000
  Fe  Fe128     1.0  0.54376  0.42272  0.84812  1.0000
  S   S259      1.0  0.54193  0.44010  0.86921  1.0000
  S   S260      1.0  0.56312  0.39845  0.84857  1.0000
  Fe  Fe129     1.0  0.50167  0.42700  0.86322  1.0000
  S   S261      1.0  0.47292  0.40856  0.88034  1.0000
  Fe  Fe130     1.0  0.55058  0.47469  0.85752  1.0000
  S   S262      1.0  0.50322  0.40782  0.84290  1.0000
  S   S263      1.0  0.55434  0.45763  0.83667  1.0000
  Fe  Fe131     1.0  0.61968  0.28334  0.81252  1.0000
  S   S264      1.0  0.60674  0.29843  0.79454  1.0000
  S   S265      1.0  0.59051  0.25290  0.82536  1.0000
  Fe  Fe132     1.0  0.63320  0.33608  0.80433  1.0000
  S   S266      1.0  0.62303  0.36782  0.80449  1.0000
  C   C1813     1.0  0.34063  0.47717  0.73725  1.0000
  H   H1464     1.0  0.43327  0.42740  0.88648  1.0000
  H   H1465     1.0  0.46138  0.46383  0.76926  1.0000
  C   C1814     1.0  0.48202  0.35047  0.85964  1.0000
  H   H1466     1.0  0.52885  0.13300  0.79212  1.0000
  H   H1467     1.0  0.47656  0.46003  0.88929  1.0000
  C   C1815     1.0  0.46672  0.31729  0.96318  1.0000
  C   C1816     1.0  0.47384  0.30820  0.80589  1.0000
  S   S267      1.0  0.49503  0.44096  0.81081  1.0000
  C   C1817     1.0  0.64743  0.45604  0.84483  1.0000
  S   S268      1.0  0.33100  0.06077  0.92664  1.0000
  C   C1818     1.0  0.57822  0.38921  0.83560  1.0000
  C   C1819     1.0  0.58352  0.36971  0.83852  1.0000
  C   C1820     1.0  0.59676  0.36262  0.82904  1.0000
  C   C1821     1.0  0.60498  0.37501  0.81647  1.0000
  C   C1822     1.0  0.59929  0.39422  0.81342  1.0000
  C   C1823     1.0  0.58593  0.40123  0.82288  1.0000
  H   H1468     1.0  0.57770  0.36028  0.84832  1.0000
  H   H1469     1.0  0.60096  0.34786  0.83158  1.0000
  H   H1470     1.0  0.60553  0.40395  0.80375  1.0000
  H   H1471     1.0  0.58205  0.41624  0.82048  1.0000
  C   C1824     1.0  0.47414  0.00901  0.80698  1.0000
  S   S269      1.0  0.64460  0.32106  0.82306  1.0000
  C   C1825     1.0  0.49774  0.01693  0.80198  1.0000
  C   C1826     1.0  0.60965  0.48531  0.88086  1.0000
  H   H1472     1.0  0.51357  0.02954  0.80857  1.0000
  C   C1827     1.0  0.56658  0.16913  0.82638  1.0000
  C   C1828     1.0  0.55497  0.17980  0.83448  1.0000
  C   C1829     1.0  0.56239  0.20537  0.83387  1.0000
  C   C1830     1.0  0.58170  0.22068  0.82537  1.0000
  C   C1831     1.0  0.59335  0.21000  0.81729  1.0000
  C   C1832     1.0  0.58587  0.18442  0.81785  1.0000
  H   H1473     1.0  0.54008  0.16832  0.84107  1.0000
  H   H1474     1.0  0.55305  0.21339  0.83998  1.0000
  H   H1475     1.0  0.60818  0.22148  0.81068  1.0000
  H   H1476     1.0  0.59498  0.17640  0.81152  1.0000
  C   C1833     1.0  0.62721  0.05046  0.88810  1.0000
  C   C1834     1.0  0.61806  0.04981  0.87413  1.0000
  C   C1835     1.0  0.59828  0.05507  0.87138  1.0000
  C   C1836     1.0  0.58725  0.06117  0.88258  1.0000
  C   C1837     1.0  0.59657  0.06206  0.89654  1.0000
  C   C1838     1.0  0.61631  0.05674  0.89929  1.0000
  H   H1477     1.0  0.59150  0.05428  0.86059  1.0000
  H   H1478     1.0  0.58830  0.06671  0.90533  1.0000
  H   H1479     1.0  0.62300  0.05739  0.91009  1.0000
  H   H1480     1.0  0.64966  0.24131  0.92913  1.0000
  C   C1839     1.0  0.39314  0.34490  0.88499  1.0000
  C   C1840     1.0  0.40686  0.36088  0.89652  1.0000
  C   C1841     1.0  0.43102  0.38007  0.89482  1.0000
  C   C1842     1.0  0.44195  0.38413  0.88154  1.0000
  C   C1843     1.0  0.42802  0.36877  0.86988  1.0000
  C   C1844     1.0  0.40392  0.34929  0.87162  1.0000
  H   H1481     1.0  0.39894  0.35872  0.90676  1.0000
  H   H1482     1.0  0.44135  0.39193  0.90391  1.0000
  H   H1483     1.0  0.43581  0.37193  0.85952  1.0000
  H   H1484     1.0  0.39356  0.33743  0.86253  1.0000
  C   C1845     1.0  0.38370  0.05814  0.88520  1.0000
  C   C1846     1.0  0.39232  0.05103  0.87309  1.0000
  C   C1847     1.0  0.41777  0.06114  0.87076  1.0000
  C   C1848     1.0  0.43518  0.07893  0.88042  1.0000
  C   C1849     1.0  0.42657  0.08629  0.89246  1.0000
  C   C1850     1.0  0.40109  0.07589  0.89490  1.0000
  H   H1485     1.0  0.37917  0.03742  0.86546  1.0000
  H   H1486     1.0  0.42392  0.05537  0.86139  1.0000
  H   H1487     1.0  0.43973  0.10009  0.89999  1.0000
  H   H1488     1.0  0.39492  0.08166  0.90426  1.0000
  C   C1851     1.0  0.46776  0.28301  0.80479  1.0000
  C   C1852     1.0  0.46972  0.33482  0.83526  1.0000
  H   H1489     1.0  0.51996  0.13684  0.74862  1.0000
  C   C1853     1.0  0.53245  0.40371  0.80643  1.0000
  H   H1490     1.0  0.59860  0.15238  0.77351  1.0000
  C   C1854     1.0  0.43619  0.32026  0.94765  1.0000
  C   C1855     1.0  0.50850  0.07357  0.77119  1.0000
  H   H1491     1.0  0.46838  0.00109  0.74314  1.0000
  C   C1856     1.0  0.45779  0.48323  0.86187  1.0000
  H   H1492     1.0  0.39624  0.28906  0.88374  1.0000
  C   C1857     1.0  0.48364  0.05688  0.77260  1.0000
  P   P60       1.0  0.50132  0.33042  0.81576  1.0000
  H   H1493     1.0  0.57763  0.20857  0.78369  1.0000
  C   C1858     1.0  0.46427  0.34167  0.84847  1.0000
  H   H1494     1.0  0.44251  0.44314  0.81137  1.0000
  C   C1859     1.0  0.40929  0.30018  0.89225  1.0000
  C   C1860     1.0  0.43206  0.31963  0.88906  1.0000
  C   C1861     1.0  0.44819  0.33504  0.89999  1.0000
  C   C1862     1.0  0.44161  0.33095  0.91415  1.0000
  C   C1863     1.0  0.41883  0.31126  0.91745  1.0000
  C   C1864     1.0  0.40266  0.29605  0.90636  1.0000
  P   P61       1.0  0.40942  0.30622  0.93561  1.0000
  C   C1865     1.0  0.39016  0.32037  0.93961  1.0000
  C   C1866     1.0  0.39293  0.27317  0.93773  1.0000
  C   C1867     1.0  0.37122  0.26254  0.94527  1.0000
  C   C1868     1.0  0.55565  0.16588  0.88028  1.0000
  C   C1869     1.0  0.37187  0.33629  0.95695  1.0000
  C   C1870     1.0  0.38906  0.23213  0.93308  1.0000
  C   C1871     1.0  0.40168  0.25774  0.93158  1.0000
  C   C1872     1.0  0.37849  0.32654  0.92868  1.0000
  C   C1873     1.0  0.36403  0.33796  0.93185  1.0000
  H   H1495     1.0  0.53515  0.27874  0.83657  1.0000
  C   C1874     1.0  0.43992  0.44315  0.87977  1.0000
  C   C1875     1.0  0.38671  0.32527  0.95380  1.0000
  C   C1876     1.0  0.55110  0.17125  0.78805  1.0000
  H   H1496     1.0  0.44024  0.35728  0.94620  1.0000
  C   C1877     1.0  0.60889  0.12492  0.86630  1.0000
  C   C1878     1.0  0.47715  0.45426  0.78731  1.0000
  H   H1497     1.0  0.62047  0.31962  0.75393  1.0000
  C   C1879     1.0  0.63542  0.41537  0.85392  1.0000
  C   C1880     1.0  0.49293  0.33639  0.83318  1.0000
  H   H1498     1.0  0.43673  0.32339  0.87809  1.0000
  H   H1499     1.0  0.46541  0.35076  0.89746  1.0000
  H   H1500     1.0  0.45420  0.34349  0.92236  1.0000
  H   H1501     1.0  0.38458  0.28142  0.90857  1.0000
  H   H1502     1.0  0.36364  0.27381  0.94986  1.0000
  H   H1503     1.0  0.62569  0.44159  0.86333  1.0000
  H   H1504     1.0  0.58611  0.23746  0.75700  1.0000
  H   H1505     1.0  0.39576  0.22025  0.92826  1.0000
  H   H1506     1.0  0.41827  0.26554  0.92563  1.0000
  H   H1507     1.0  0.38009  0.32218  0.91770  1.0000
  H   H1508     1.0  0.35512  0.34269  0.92332  1.0000
  H   H1509     1.0  0.60767  0.19631  0.77411  1.0000
  H   H1510     1.0  0.56881  0.29110  0.81978  1.0000
  H   H1511     1.0  0.39509  0.32017  0.96244  1.0000
  C   C1881     1.0  0.62188  0.14043  0.87807  1.0000
  C   C1882     1.0  0.64728  0.41006  0.84293  1.0000
  H   H1512     1.0  0.55018  0.23607  0.74376  1.0000
  H   H1513     1.0  0.35782  0.20188  0.94177  1.0000
  C   C1883     1.0  0.44597  0.30601  0.95388  1.0000
  H   H1514     1.0  0.54756  0.06186  0.79588  1.0000
  C   C1884     1.0  0.44644  0.26601  0.79711  1.0000
  H   H1515     1.0  0.47240  0.04593  0.76344  1.0000
  P   P62       1.0  0.55596  0.10692  0.78170  1.0000
  C   C1885     1.0  0.52336  0.08697  0.78317  1.0000
  C   C1886     1.0  0.58499  0.15736  0.77735  1.0000
  C   C1887     1.0  0.59507  0.09259  0.82000  1.0000
  C   C1888     1.0  0.57160  0.10149  0.79661  1.0000
  C   C1889     1.0  0.48790  0.06736  0.79781  1.0000
  C   C1890     1.0  0.51283  0.08381  0.79650  1.0000
  H   H1516     1.0  0.44657  0.34099  0.84990  1.0000
  C   C1891     1.0  0.57513  0.07288  0.81274  1.0000
  H   H1517     1.0  0.42502  0.30529  0.78641  1.0000
  H   H1518     1.0  0.47998  0.06450  0.80817  1.0000
  H   H1519     1.0  0.52394  0.09379  0.80593  1.0000
  C   C1892     1.0  0.60346  0.11670  0.81554  1.0000
  C   C1893     1.0  0.62582  0.31404  0.74418  1.0000
  H   H1520     1.0  0.32468  0.44002  0.74464  1.0000
  H   H1521     1.0  0.51610  0.07556  0.76081  1.0000
  H   H1522     1.0  0.41451  0.26082  0.78455  1.0000
  H   H1523     1.0  0.62558  0.40147  0.86148  1.0000
  Fe  Fe133     1.0  0.33149  0.29366  0.90105  1.0000
  H   H1524     1.0  0.47828  0.35708  0.86962  1.0000
  H   H1525     1.0  0.44187  0.24661  0.79628  1.0000
  Fe  Fe134     1.0  0.32446  0.04530  0.90404  1.0000
  H   H1526     1.0  0.34858  0.35064  0.94842  1.0000
  C   C1894     1.0  0.44497  0.46142  0.81440  1.0000
  C   C1895     1.0  0.56315  0.20407  0.86949  1.0000
  H   H1527     1.0  0.59598  0.46079  0.80166  1.0000
  C   C1896     1.0  0.35423  0.10403  0.87699  1.0000
  C   C1897     1.0  0.35867  0.23691  0.94673  1.0000
  H   H1528     1.0  0.58495  0.11965  0.84802  1.0000
  H   H1529     1.0  0.51772  0.14086  0.88421  1.0000
  C   C1898     1.0  0.63538  0.43821  0.85486  1.0000
  C   C1899     1.0  0.62020  0.22003  0.86177  1.0000
  H   H1530     1.0  0.53922  0.42139  0.81222  1.0000
  H   H1531     1.0  0.45879  0.46098  0.83539  1.0000
  H   H1532     1.0  0.63119  0.17434  0.88990  1.0000
  C   C1900     1.0  0.47456  0.47087  0.77817  1.0000
  H   H1533     1.0  0.56689  0.06648  0.77325  1.0000
  H   H1534     1.0  0.49389  0.35152  0.97352  1.0000
  C   C1901     1.0  0.44744  0.34590  0.95090  1.0000
  C   C1902     1.0  0.45368  0.99241  0.79835  1.0000
  C   C1903     1.0  0.52158  0.17400  0.87473  1.0000
  H   H1535     1.0  0.60371  0.08923  0.82924  1.0000
  H   H1536     1.0  0.61649  0.22947  0.74434  1.0000
  H   H1537     1.0  0.51913  0.01371  0.78501  1.0000
  H   H1538     1.0  0.52466  0.38317  0.82527  1.0000
  C   C1904     1.0  0.64423  0.22703  0.89359  1.0000
  H   H1539     1.0  0.47677  0.37690  0.96261  1.0000
  H   H1540     1.0  0.63196  0.13476  0.88535  1.0000
  C   C1905     1.0  0.52323  0.31861  0.81728  1.0000
  C   C1906     1.0  0.51037  0.34458  0.84459  1.0000
  C   C1907     1.0  0.52065  0.30159  0.82763  1.0000
  C   C1908     1.0  0.53702  0.29170  0.82851  1.0000
  C   C1909     1.0  0.55598  0.29861  0.81903  1.0000
  C   C1910     1.0  0.55865  0.31552  0.80872  1.0000
  C   C1911     1.0  0.54250  0.32563  0.80789  1.0000
  H   H1541     1.0  0.52312  0.37921  0.77263  1.0000
  H   H1542     1.0  0.53845  0.41970  0.78597  1.0000
  H   H1543     1.0  0.52861  0.34660  0.84318  1.0000
  H   H1544     1.0  0.51911  0.35930  0.86619  1.0000
  C   C1912     1.0  0.36056  0.34267  0.94597  1.0000
  C   C1913     1.0  0.50499  0.35172  0.85772  1.0000
  H   H1545     1.0  0.57374  0.32140  0.80159  1.0000
  H   H1546     1.0  0.54543  0.33913  0.80002  1.0000
  C   C1914     1.0  0.56338  0.07730  0.80114  1.0000
  C   C1915     1.0  0.60741  0.16967  0.87143  1.0000
  H   H1547     1.0  0.61854  0.13207  0.82137  1.0000
  C   C1916     1.0  0.54577  0.14634  0.78771  1.0000
  C   C1917     1.0  0.45421  0.47165  0.82804  1.0000
  H   H1548     1.0  0.42101  0.46518  0.85207  1.0000
  C   C1918     1.0  0.52385  0.38190  0.81380  1.0000
  H   H1549     1.0  0.60468  0.21321  0.92681  1.0000
  H   H1550     1.0  0.63495  0.38943  0.74938  1.0000
  C   C1919     1.0  0.56257  0.13912  0.78221  1.0000
  H   H1551     1.0  0.36477  0.09752  0.88333  1.0000
  H   H1552     1.0  0.50748  0.34048  0.78552  1.0000
  H   H1553     1.0  0.47941  0.27639  0.80979  1.0000
  C   C1920     1.0  0.56550  0.09868  0.76524  1.0000
  C   C1921     1.0  0.43104  0.27401  0.79048  1.0000
  H   H1554     1.0  0.45599  0.32902  0.82668  1.0000
  C   C1922     1.0  0.51436  0.35803  0.79146  1.0000
  C   C1923     1.0  0.59193  0.12114  0.80383  1.0000
  C   C1924     1.0  0.52324  0.37992  0.78412  1.0000
  C   C1925     1.0  0.49357  0.46293  0.79930  1.0000
  C   C1926     1.0  0.37636  0.12258  0.92449  1.0000
  C   C1927     1.0  0.39890  0.12432  0.92902  1.0000
  C   C1928     1.0  0.41898  0.13454  0.92030  1.0000
  C   C1929     1.0  0.41649  0.14290  0.90702  1.0000
  C   C1930     1.0  0.39356  0.14018  0.90214  1.0000
  C   C1931     1.0  0.37360  0.13031  0.91107  1.0000
  P   P63       1.0  0.39013  0.15166  0.88529  1.0000
  C   C1932     1.0  0.39052  0.18088  0.88953  1.0000
  C   C1933     1.0  0.41355  0.15381  0.87336  1.0000
  C   C1934     1.0  0.42348  0.17297  0.86383  1.0000
  C   C1935     1.0  0.44138  0.17418  0.85453  1.0000
  C   C1936     1.0  0.44906  0.15598  0.85447  1.0000
  C   C1937     1.0  0.43854  0.13633  0.86352  1.0000
  C   C1938     1.0  0.42063  0.13506  0.87277  1.0000
  C   C1939     1.0  0.36870  0.18146  0.89294  1.0000
  C   C1940     1.0  0.36893  0.20406  0.89612  1.0000
  C   C1941     1.0  0.39100  0.22615  0.89630  1.0000
  C   C1942     1.0  0.41299  0.22564  0.89365  1.0000
  C   C1943     1.0  0.41282  0.20306  0.89043  1.0000
  C   C1944     1.0  0.36177  0.12945  0.87628  1.0000
  C   C1945     1.0  0.57219  0.18849  0.87471  1.0000
  C   C1946     1.0  0.43695  0.29904  0.79152  1.0000
  C   C1947     1.0  0.56919  0.07771  0.76421  1.0000
  S   S270      1.0  0.63777  0.28387  0.76051  1.0000
  H   H1555     1.0  0.35194  0.20445  0.89845  1.0000
  H   H1556     1.0  0.36092  0.11517  0.93137  1.0000
  H   H1557     1.0  0.40077  0.11781  0.93931  1.0000
  H   H1558     1.0  0.43650  0.13599  0.92384  1.0000
  H   H1559     1.0  0.43246  0.15134  0.90061  1.0000
  H   H1560     1.0  0.35589  0.12868  0.90775  1.0000
  H   H1561     1.0  0.41723  0.18679  0.86341  1.0000
  H   H1562     1.0  0.44913  0.18909  0.84727  1.0000
  H   H1563     1.0  0.46287  0.15682  0.84727  1.0000
  H   H1564     1.0  0.44412  0.12191  0.86330  1.0000
  H   H1565     1.0  0.41225  0.11934  0.87942  1.0000
  H   H1566     1.0  0.35144  0.16451  0.89316  1.0000
  H   H1567     1.0  0.60189  0.46606  0.86044  1.0000
  H   H1568     1.0  0.39099  0.24358  0.89868  1.0000
  H   H1569     1.0  0.43017  0.24276  0.89409  1.0000
  H   H1570     1.0  0.43007  0.20292  0.88869  1.0000
  H   H1571     1.0  0.50199  0.16808  0.87449  1.0000
  Fe  Fe135     1.0  0.63898  0.30040  0.78284  1.0000
  H   H1572     1.0  0.56213  0.15361  0.88454  1.0000
  H   H1573     1.0  0.51125  0.03457  0.74648  1.0000
  H   H1574     1.0  0.36853  0.33930  0.96789  1.0000
  C   C1948     1.0  0.53794  0.19678  0.86945  1.0000
  H   H1575     1.0  0.53106  0.20866  0.86510  1.0000
  H   H1576     1.0  0.58494  0.19414  0.90351  1.0000
  H   H1577     1.0  0.57530  0.22156  0.86509  1.0000
  H   H1578     1.0  0.34184  0.22881  0.95247  1.0000
  H   H1579     1.0  0.45427  0.04036  0.78711  1.0000
  C   C1949     1.0  0.34809  0.13727  0.86762  1.0000
  H   H1580     1.0  0.35401  0.15677  0.86645  1.0000
  C   C1950     1.0  0.43322  0.46452  0.86032  1.0000
  H   H1581     1.0  0.55774  0.17136  0.73979  1.0000
  C   C1951     1.0  0.57325  0.18918  0.78299  1.0000
  C   C1952     1.0  0.59021  0.18225  0.77766  1.0000
  H   H1582     1.0  0.53846  0.17680  0.79278  1.0000
  C   C1953     1.0  0.45826  0.31608  0.79917  1.0000
  H   H1583     1.0  0.50596  0.29594  0.83501  1.0000
  H   H1584     1.0  0.63994  0.28120  0.85590  1.0000
  C   C1954     1.0  0.59533  0.13177  0.85705  1.0000
  C   C1955     1.0  0.59434  0.15388  0.85971  1.0000
  C   C1956     1.0  0.47337  0.05375  0.78591  1.0000
  C   C1957     1.0  0.63709  0.26242  0.85423  1.0000
  C   C1958     1.0  0.56770  0.11214  0.75306  1.0000
  H   H1585     1.0  0.43768  0.28624  0.95167  1.0000
  H   H1586     1.0  0.56407  0.12780  0.75338  1.0000
  H   H1587     1.0  0.60884  0.10730  0.86454  1.0000
  H   H1588     1.0  0.59843  0.14002  0.80084  1.0000
  H   H1589     1.0  0.46251  0.33542  0.79992  1.0000
  C   C1959     1.0  0.58321  0.23247  0.74572  1.0000
  H   H1590     1.0  0.57825  0.05444  0.75064  1.0000
  S   S271      1.0  0.33439  0.26930  0.91778  1.0000
  H   H1591     1.0  0.58308  0.15856  0.85273  1.0000
  H   H1592     1.0  0.56832  0.05423  0.81635  1.0000
  C   C1960     1.0  0.43996  0.47515  0.80448  1.0000
  C   C1961     1.0  0.36761  0.22174  0.94068  1.0000
  H   H1593     1.0  0.43341  0.46746  0.79379  1.0000
  C   C1962     1.0  0.53203  0.40274  0.79161  1.0000
  C   C1963     1.0  0.60457  0.20634  0.90426  1.0000
  C   C1964     1.0  0.47329  0.48169  0.87253  1.0000
  C   C1965     1.0  0.47782  0.34281  0.96632  1.0000
  C   C1966     1.0  0.61875  0.47162  0.82095  1.0000
  C   C1967     1.0  0.57443  0.10534  0.74026  1.0000
  H   H1594     1.0  0.61873  0.25011  0.87369  1.0000
  C   C1968     1.0  0.65039  0.38617  0.74714  1.0000
  C   C1969     1.0  0.50079  0.00787  0.78865  1.0000
  C   C1970     1.0  0.62486  0.24466  0.86419  1.0000
  H   H1595     1.0  0.47418  0.30621  0.96797  1.0000
  H   H1596     1.0  0.48614  0.47793  0.74877  1.0000
  H   H1597     1.0  0.32741  0.06708  0.87001  1.0000
  C   C1971     1.0  0.62127  0.16282  0.88062  1.0000
  C   C1972     1.0  0.60284  0.47364  0.81084  1.0000
  C   C1973     1.0  0.31899  0.09452  0.86122  1.0000
  C   C1974     1.0  0.64108  0.23289  0.91884  1.0000
  C   C1975     1.0  0.46818  0.35710  0.96018  1.0000
  H   H1598     1.0  0.37236  0.00770  0.89045  1.0000
  C   C1976     1.0  0.64104  0.23154  0.83950  1.0000
  H   H1599     1.0  0.59067  0.47588  0.88385  1.0000
  H   H1600     1.0  0.62628  0.04508  0.86535  1.0000
  C   C1977     1.0  0.56306  0.23184  0.73823  1.0000
  H   H1601     1.0  0.62402  0.45721  0.81932  1.0000
  C   C1978     1.0  0.64519  0.25586  0.84189  1.0000
  H   H1602     1.0  0.62523  0.19491  0.84704  1.0000
  P   P64       1.0  0.60471  0.19749  0.87496  1.0000
  S   S272      1.0  0.65016  0.28277  0.80026  1.0000
  C   C1979     1.0  0.62849  0.21363  0.84933  1.0000
  C   C1980     1.0  0.61573  0.21711  0.91753  1.0000
  C   C1981     1.0  0.33304  0.08668  0.86938  1.0000
  C   C1982     1.0  0.62727  0.48782  0.83305  1.0000
  H   H1603     1.0  0.64675  0.39210  0.84199  1.0000
  P   P65       1.0  0.64841  0.48606  0.84604  1.0000
  C   C1983     1.0  0.63479  0.29689  0.74443  1.0000
  S   S273      1.0  0.37157  0.48197  0.73995  1.0000
  C   C1984     1.0  0.50788  0.48852  0.80181  1.0000
  C   C1985     1.0  0.49874  0.48302  0.74019  1.0000
  H   H1604     1.0  0.64695  0.22641  0.82980  1.0000
  H   H1605     1.0  0.61882  0.99433  0.87689  1.0000
  C   C1986     1.0  0.32083  0.45419  0.74049  1.0000
  C   C1987     1.0  0.52656  0.13479  0.73835  1.0000
  C   C1988     1.0  0.60035  0.22790  0.73854  1.0000
  H   H1606     1.0  0.32524  0.29930  0.98366  1.0000
  C   C1989     1.0  0.49943  0.03548  0.73805  1.0000
  S   S274      1.0  0.43356  0.48438  0.73741  1.0000
  C   C1990     1.0  0.57837  0.08464  0.73940  1.0000
  C   C1991     1.0  0.32655  0.11982  0.86031  1.0000
  H   H1607     1.0  0.31909  0.16185  0.93981  1.0000
  C   C1992     1.0  0.47525  0.01652  0.73620  1.0000
  C   C1993     1.0  0.48034  0.99096  0.78012  1.0000
  C   C1994     1.0  0.36016  0.99119  0.88406  1.0000
  Fe  Fe136     1.0  0.61268  0.93989  0.06297  1.0000
  H   H1608     1.0  0.63232  0.89932  0.01838  1.0000
  S   S275      1.0  0.58085  0.94805  0.06923  1.0000
  C   C1995     1.0  0.33616  0.61016  0.21190  1.0000
  C   C1996     1.0  0.62327  0.51451  0.22601  1.0000
  H   H1609     1.0  0.40537  0.62765  0.03226  1.0000
  S   S276      1.0  0.60951  0.91508  0.04387  1.0000
  H   H1610     1.0  0.50495  0.60651  0.01149  1.0000
  H   H1611     1.0  0.34188  0.96166  0.08976  1.0000
  Fe  Fe137     1.0  0.61010  0.69010  0.06347  1.0000
  C   C1997     1.0  0.45636  0.57727  0.16669  1.0000
  S   S277      1.0  0.57342  0.67189  0.07522  1.0000
  C   C1998     1.0  0.62191  0.79551  0.05429  1.0000
  C   C1999     1.0  0.48268  0.59903  0.02983  1.0000
  S   S278      1.0  0.61333  0.71177  0.04376  1.0000
  C   C2000     1.0  0.50482  0.60829  0.05262  1.0000
  Fe  Fe138     1.0  0.42732  0.92705  0.13272  1.0000
  S   S279      1.0  0.43861  0.93333  0.10988  1.0000
  S   S280      1.0  0.43505  0.95999  0.14802  1.0000
  Fe  Fe139     1.0  0.40074  0.87014  0.12779  1.0000
  S   S281      1.0  0.41090  0.87281  0.10495  1.0000
  S   S282      1.0  0.37279  0.83576  0.13872  1.0000
  Fe  Fe140     1.0  0.44895  0.90266  0.11256  1.0000
  S   S283      1.0  0.48524  0.90135  0.10771  1.0000
  Fe  Fe141     1.0  0.39970  0.90327  0.10403  1.0000
  S   S284      1.0  0.37148  0.89886  0.08599  1.0000
  S   S285      1.0  0.43914  0.89789  0.13573  1.0000
  S   S286      1.0  0.38819  0.89925  0.12656  1.0000
  Fe  Fe142     1.0  0.45709  0.55163  0.10936  1.0000
  S   S287      1.0  0.45381  0.56456  0.13142  1.0000
  S   S288      1.0  0.49403  0.56690  0.09804  1.0000
  Fe  Fe143     1.0  0.40222  0.51119  0.10739  1.0000
  S   S289      1.0  0.39573  0.52226  0.12933  1.0000
  Fe  Fe144     1.0  0.41772  0.56176  0.12347  1.0000
  S   S290      1.0  0.41101  0.59506  0.12844  1.0000
  Fe  Fe145     1.0  0.43207  0.52421  0.13600  1.0000
  C   C2001     1.0  0.64713  0.66728  0.98710  1.0000
  S   S291      1.0  0.42219  0.55106  0.10102  1.0000
  S   S292      1.0  0.43732  0.51076  0.11441  1.0000
  H   H1612     1.0  0.36953  0.67786  0.22193  1.0000
  H   H1613     1.0  0.45873  0.52599  0.20714  1.0000
  H   H1614     1.0  0.49020  0.64318  0.06039  1.0000
  S   S293      1.0  0.35469  0.72395  0.14108  1.0000
  S   S294      1.0  0.34246  0.67539  0.16957  1.0000
  S   S295      1.0  0.63108  0.92381  0.07707  1.0000
  C   C2002     1.0  0.37249  0.58819  0.20537  1.0000
  C   C2003     1.0  0.39436  0.70047  0.19057  1.0000
  C   C2004     1.0  0.61904  0.75563  0.09801  1.0000
  H   H1615     1.0  0.42737  0.58576  0.07978  1.0000
  H   H1616     1.0  0.32990  0.75008  0.15417  1.0000
  H   H1617     1.0  0.40416  0.55078  0.05840  1.0000
  H   H1618     1.0  0.51312  0.51539  0.16813  1.0000
  H   H1619     1.0  0.33227  0.88217  0.10950  1.0000
  C   C2005     1.0  0.38614  0.59706  0.13666  1.0000
  C   C2006     1.0  0.38637  0.62019  0.13778  1.0000
  C   C2007     1.0  0.36714  0.62279  0.14419  1.0000
  C   C2008     1.0  0.34742  0.60224  0.14966  1.0000
  C   C2009     1.0  0.34738  0.57918  0.14874  1.0000
  C   C2010     1.0  0.36656  0.57656  0.14227  1.0000
  H   H1620     1.0  0.40142  0.63620  0.13352  1.0000
  H   H1621     1.0  0.36751  0.64065  0.14481  1.0000
  H   H1622     1.0  0.38220  0.59211  0.01506  1.0000
  H   H1623     1.0  0.36610  0.55867  0.14153  1.0000
  C   C2011     1.0  0.44798  0.96752  0.16571  1.0000
  H   H1624     1.0  0.44597  0.90965  0.22081  1.0000
  C   C2012     1.0  0.41733  0.54458  0.06151  1.0000
  C   C2013     1.0  0.47864  0.55651  0.19378  1.0000
  C   C2014     1.0  0.36811  0.80479  0.13924  1.0000
  C   C2015     1.0  0.38279  0.79682  0.13193  1.0000
  C   C2016     1.0  0.37836  0.77204  0.13260  1.0000
  C   C2017     1.0  0.35918  0.75490  0.14055  1.0000
  C   C2018     1.0  0.34461  0.76295  0.14795  1.0000
  C   C2019     1.0  0.34911  0.78776  0.14731  1.0000
  H   H1625     1.0  0.39740  0.80979  0.12573  1.0000
  H   H1626     1.0  0.38977  0.76602  0.12687  1.0000
  Fe  Fe146     1.0  0.63862  0.69715  0.03558  1.0000
  H   H1627     1.0  0.33771  0.79376  0.15306  1.0000
  H   H1628     1.0  0.51017  0.95008  0.12446  1.0000
  C   C2020     1.0  0.61803  0.83904  0.02215  1.0000
  C   C2021     1.0  0.35442  0.93405  0.08872  1.0000
  C   C2022     1.0  0.35193  0.91238  0.08177  1.0000
  C   C2023     1.0  0.33367  0.90124  0.07075  1.0000
  H   H1629     1.0  0.35522  0.73861  0.18750  1.0000
  H   H1630     1.0  0.36832  0.94293  0.09719  1.0000
  H   H1631     1.0  0.33148  0.88449  0.06527  1.0000
  H   H1632     1.0  0.39052  0.55612  0.01465  1.0000
  C   C2024     1.0  0.55229  0.64270  0.08210  1.0000
  C   C2025     1.0  0.55523  0.62139  0.08064  1.0000
  C   C2026     1.0  0.53734  0.59857  0.08564  1.0000
  C   C2027     1.0  0.51624  0.59656  0.09229  1.0000
  C   C2028     1.0  0.51349  0.61796  0.09400  1.0000
  C   C2029     1.0  0.53138  0.64077  0.08897  1.0000
  H   H1633     1.0  0.57113  0.62239  0.07545  1.0000
  H   H1634     1.0  0.53980  0.58227  0.08424  1.0000
  H   H1635     1.0  0.49745  0.61689  0.09904  1.0000
  H   H1636     1.0  0.52890  0.65706  0.09028  1.0000
  C   C2030     1.0  0.55487  0.93517  0.08044  1.0000
  C   C2031     1.0  0.54961  0.91483  0.08878  1.0000
  C   C2032     1.0  0.52857  0.90510  0.09715  1.0000
  C   C2033     1.0  0.51231  0.91541  0.09739  1.0000
  C   C2034     1.0  0.51782  0.93604  0.08925  1.0000
  C   C2035     1.0  0.53881  0.94571  0.08084  1.0000
  H   H1637     1.0  0.56163  0.90642  0.08868  1.0000
  H   H1638     1.0  0.52478  0.88928  0.10341  1.0000
  H   H1639     1.0  0.50577  0.94441  0.08930  1.0000
  H   H1640     1.0  0.54257  0.96146  0.07451  1.0000
  C   C2036     1.0  0.62693  0.83776  0.05742  1.0000
  H   H1641     1.0  0.53102  0.57297  0.12214  1.0000
  H   H1642     1.0  0.39964  0.71677  0.18443  1.0000
  C   C2037     1.0  0.44270  0.60424  0.07998  1.0000
  C   C2038     1.0  0.50487  0.60699  0.02298  1.0000
  H   H1643     1.0  0.54423  0.62364  0.05190  1.0000
  P   P66       1.0  0.36863  0.62958  0.21586  1.0000
  C   C2039     1.0  0.42043  0.81387  0.02815  1.0000
  C   C2040     1.0  0.41647  0.78955  0.02927  1.0000
  C   C2041     1.0  0.42384  0.78257  0.04173  1.0000
  C   C2042     1.0  0.43495  0.79984  0.05313  1.0000
  C   C2043     1.0  0.43828  0.82408  0.05224  1.0000
  C   C2044     1.0  0.43154  0.83117  0.03954  1.0000
  P   P67       1.0  0.45377  0.84671  0.06660  1.0000
  C   C2045     1.0  0.44735  0.83227  0.08349  1.0000
  C   C2046     1.0  0.48618  0.86062  0.06309  1.0000
  C   C2047     1.0  0.49742  0.88236  0.05551  1.0000
  C   C2048     1.0  0.37364  0.63679  0.23485  1.0000
  C   C2049     1.0  0.46774  0.96055  0.18655  1.0000
  C   C2050     1.0  0.39590  0.59189  0.02241  1.0000
  C   C2051     1.0  0.50016  0.84901  0.06727  1.0000
  C   C2052     1.0  0.46534  0.84117  0.09460  1.0000
  C   C2053     1.0  0.46031  0.83021  0.10774  1.0000
  C   C2054     1.0  0.43716  0.81044  0.10993  1.0000
  C   C2055     1.0  0.41886  0.80192  0.09905  1.0000
  C   C2056     1.0  0.42385  0.81292  0.08590  1.0000
  C   C2057     1.0  0.44216  0.86886  0.06771  1.0000
  C   C2058     1.0  0.41722  0.86146  0.06448  1.0000
  C   C2059     1.0  0.40825  0.87863  0.06571  1.0000
  C   C2060     1.0  0.42401  0.90312  0.07034  1.0000
  C   C2061     1.0  0.44863  0.91037  0.07398  1.0000
  C   C2062     1.0  0.45758  0.89324  0.07278  1.0000
  H   H1644     1.0  0.41507  0.81940  0.01842  1.0000
  H   H1645     1.0  0.40792  0.77617  0.02044  1.0000
  H   H1646     1.0  0.42112  0.76383  0.04254  1.0000
  H   H1647     1.0  0.44104  0.79429  0.06260  1.0000
  H   H1648     1.0  0.43496  0.85008  0.03841  1.0000
  H   H1649     1.0  0.48695  0.89124  0.05168  1.0000
  H   H1650     1.0  0.55606  0.89056  0.05592  1.0000
  S   S296      1.0  0.64905  0.97105  0.05612  1.0000
  C   C2063     1.0  0.52703  0.61585  0.03094  1.0000
  H   H1651     1.0  0.49176  0.83180  0.07270  1.0000
  H   H1652     1.0  0.48314  0.85693  0.09325  1.0000
  H   H1653     1.0  0.47431  0.83742  0.11627  1.0000
  H   H1654     1.0  0.43323  0.80203  0.12014  1.0000
  H   H1655     1.0  0.40068  0.78704  0.10090  1.0000
  H   H1656     1.0  0.40932  0.80648  0.07769  1.0000
  H   H1657     1.0  0.40461  0.84243  0.06125  1.0000
  H   H1658     1.0  0.38893  0.87291  0.06348  1.0000
  H   H1659     1.0  0.41696  0.91630  0.07148  1.0000
  H   H1660     1.0  0.46065  0.92911  0.07805  1.0000
  H   H1661     1.0  0.47644  0.89893  0.07601  1.0000
  C   C2064     1.0  0.37892  0.65752  0.20609  1.0000
  C   C2065     1.0  0.41083  0.62627  0.20902  1.0000
  C   C2066     1.0  0.42365  0.61430  0.20362  1.0000
  C   C2067     1.0  0.41091  0.58937  0.19899  1.0000
  C   C2068     1.0  0.38777  0.65840  0.19238  1.0000
  C   C2069     1.0  0.39569  0.67988  0.18475  1.0000
  H   H1662     1.0  0.44990  0.84347  0.23082  1.0000
  C   C2070     1.0  0.43106  0.59114  0.04164  1.0000
  C   C2071     1.0  0.42654  0.61161  0.04165  1.0000
  H   H1663     1.0  0.42085  0.64577  0.21226  1.0000
  H   H1664     1.0  0.44342  0.62448  0.20277  1.0000
  H   H1665     1.0  0.42078  0.58023  0.19451  1.0000
  H   H1666     1.0  0.38800  0.64234  0.18738  1.0000
  H   H1667     1.0  0.40196  0.68022  0.17407  1.0000
  H   H1668     1.0  0.64359  0.82464  0.02274  1.0000
  H   H1669     1.0  0.48060  0.95331  0.14073  1.0000
  H   H1670     1.0  0.46586  0.59254  0.02341  1.0000
  C   C2072     1.0  0.45044  0.52840  0.07106  1.0000
  C   C2073     1.0  0.51099  0.59996  0.14703  1.0000
  C   C2074     1.0  0.52936  0.56609  0.14453  1.0000
  C   C2075     1.0  0.52300  0.57159  0.15782  1.0000
  C   C2076     1.0  0.51350  0.58839  0.15916  1.0000
  C   C2077     1.0  0.46555  0.64459  0.09202  1.0000
  P   P68       1.0  0.50522  0.59602  0.17619  1.0000
  C   C2078     1.0  0.52929  0.62543  0.18330  1.0000
  C   C2079     1.0  0.47698  0.59774  0.17306  1.0000
  C   C2080     1.0  0.47602  0.62005  0.17557  1.0000
  C   C2081     1.0  0.45478  0.62174  0.17170  1.0000
  C   C2082     1.0  0.43434  0.60121  0.16538  1.0000
  C   C2083     1.0  0.43506  0.57893  0.16300  1.0000
  S   S297      1.0  0.61324  0.85785  0.05794  1.0000
  C   C2084     1.0  0.54827  0.65474  0.20345  1.0000
  C   C2085     1.0  0.52980  0.63203  0.19775  1.0000
  H   H1671     1.0  0.53615  0.85105  0.06816  1.0000
  Fe  Fe147     1.0  0.62970  0.90033  0.05776  1.0000
  C   C2086     1.0  0.50180  0.57318  0.18896  1.0000
  H   H1672     1.0  0.52507  0.56223  0.16688  1.0000
  C   C2087     1.0  0.52655  0.57751  0.13252  1.0000
  H   H1673     1.0  0.49185  0.63641  0.18005  1.0000
  H   H1674     1.0  0.45430  0.63913  0.17321  1.0000
  H   H1675     1.0  0.41812  0.60268  0.16199  1.0000
  Fe  Fe148     1.0  0.64731  0.74258  0.05470  1.0000
  H   H1676     1.0  0.53614  0.55269  0.14351  1.0000
  H   H1677     1.0  0.54867  0.65965  0.21463  1.0000
  H   H1678     1.0  0.51596  0.61955  0.20461  1.0000
  C   C2088     1.0  0.56631  0.67104  0.19477  1.0000
  C   C2089     1.0  0.48122  0.65268  0.08068  1.0000
  H   H1679     1.0  0.60249  0.82137  0.02420  1.0000
  H   H1680     1.0  0.32950  0.84112  0.11337  1.0000
  S   S298      1.0  0.64315  0.72197  0.07480  1.0000
  H   H1681     1.0  0.61545  0.73004  0.11406  1.0000
  C   C2090     1.0  0.44874  0.87757  0.22743  1.0000
  H   H1682     1.0  0.41944  0.56320  0.15773  1.0000
  S   S299      1.0  0.63286  0.67340  0.05450  1.0000
  C   C2091     1.0  0.54747  0.64190  0.17464  1.0000
  H   H1683     1.0  0.49606  0.52442  0.21626  1.0000
  C   C2092     1.0  0.38513  0.61333  0.20990  1.0000
  C   C2093     1.0  0.44474  0.85372  0.22348  1.0000
  H   H1684     1.0  0.42971  0.58300  0.22633  1.0000
  C   C2094     1.0  0.44248  0.89095  0.21788  1.0000
  C   C2095     1.0  0.43201  0.88045  0.20444  1.0000
  C   C2096     1.0  0.42760  0.85633  0.20044  1.0000
  C   C2097     1.0  0.43438  0.84319  0.21002  1.0000
  P   P69       1.0  0.41505  0.84284  0.18287  1.0000
  C   C2098     1.0  0.39703  0.85682  0.17597  1.0000
  C   C2099     1.0  0.43969  0.84936  0.17093  1.0000
  C   C2100     1.0  0.43463  0.84675  0.15621  1.0000
  C   C2101     1.0  0.45355  0.85271  0.14677  1.0000
  C   C2102     1.0  0.47775  0.86143  0.15197  1.0000
  C   C2103     1.0  0.48298  0.86390  0.16662  1.0000
  C   C2104     1.0  0.46403  0.85789  0.17610  1.0000
  C   C2105     1.0  0.37120  0.84436  0.17590  1.0000
  C   C2106     1.0  0.35766  0.85556  0.17050  1.0000
  C   C2107     1.0  0.36977  0.87921  0.16515  1.0000
  C   C2108     1.0  0.39543  0.89171  0.16518  1.0000
  C   C2109     1.0  0.40900  0.88051  0.17046  1.0000
  C   C2110     1.0  0.39590  0.80974  0.18412  1.0000
  C   C2111     1.0  0.38008  0.80064  0.19545  1.0000
  C   C2112     1.0  0.36555  0.77509  0.19669  1.0000
  C   C2113     1.0  0.36671  0.75843  0.18665  1.0000
  C   C2114     1.0  0.38238  0.76731  0.17537  1.0000
  C   C2115     1.0  0.39679  0.79283  0.17402  1.0000
  C   C2116     1.0  0.45924  0.55180  0.06540  1.0000
  H   H1685     1.0  0.64561  0.97528  0.21740  1.0000
  H   H1686     1.0  0.49626  0.67143  0.08098  1.0000
  H   H1687     1.0  0.42756  0.89136  0.19726  1.0000
  H   H1688     1.0  0.43181  0.82485  0.20703  1.0000
  H   H1689     1.0  0.41606  0.84042  0.15201  1.0000
  H   H1690     1.0  0.44945  0.85116  0.13542  1.0000
  H   H1691     1.0  0.49243  0.86654  0.14460  1.0000
  H   H1692     1.0  0.50178  0.87078  0.17063  1.0000
  H   H1693     1.0  0.46854  0.86023  0.18739  1.0000
  H   H1694     1.0  0.36137  0.82579  0.17957  1.0000
  H   H1695     1.0  0.33776  0.84556  0.17002  1.0000
  H   H1696     1.0  0.35930  0.88762  0.16064  1.0000
  H   H1697     1.0  0.40478  0.90992  0.16085  1.0000
  H   H1698     1.0  0.42887  0.89033  0.17016  1.0000
  H   H1699     1.0  0.37881  0.81333  0.20323  1.0000
  H   H1700     1.0  0.35319  0.76807  0.20534  1.0000
  H   H1701     1.0  0.35266  0.57779  0.20569  1.0000
  H   H1702     1.0  0.38290  0.75435  0.16744  1.0000
  H   H1703     1.0  0.40828  0.79912  0.16498  1.0000
  C   C2117     1.0  0.37729  0.67819  0.21175  1.0000
  C   C2118     1.0  0.33937  0.94467  0.08444  1.0000
  C   C2119     1.0  0.38494  0.69952  0.20400  1.0000
  Fe  Fe149     1.0  0.32703  0.69128  0.15332  1.0000
  C   C2120     1.0  0.51754  0.59456  0.13380  1.0000
  H   H1704     1.0  0.43396  0.61412  0.10041  1.0000
  C   C2121     1.0  0.61471  0.86000  0.02103  1.0000
  C   C2122     1.0  0.42514  0.51303  0.07183  1.0000
  H   H1705     1.0  0.59211  0.80486  0.05368  1.0000
  H   H1706     1.0  0.47430  0.94925  0.19191  1.0000
  C   C2123     1.0  0.32160  0.68539  0.23497  1.0000
  C   C2124     1.0  0.44276  0.56004  0.06047  1.0000
  C   C2125     1.0  0.54024  0.98544  0.13164  1.0000
  C   C2126     1.0  0.40057  0.57162  0.02218  1.0000
  H   H1707     1.0  0.33727  0.62031  0.18995  1.0000
  H   H1708     1.0  0.54430  0.62235  0.02566  1.0000
  H   H1709     1.0  0.38274  0.71500  0.20824  1.0000
  S   S300      1.0  0.43063  0.50754  0.15766  1.0000
  C   C2127     1.0  0.63533  0.77552  0.09038  1.0000
  C   C2128     1.0  0.49943  0.96802  0.14079  1.0000
  H   H1710     1.0  0.46200  0.55634  0.18978  1.0000
  H   H1711     1.0  0.54094  0.58513  0.19096  1.0000
  C   C2129     1.0  0.52287  0.57251  0.19449  1.0000
  P   P70       1.0  0.45405  0.59075  0.05376  1.0000
  C   C2130     1.0  0.56589  0.66462  0.18037  1.0000
  C   C2131     1.0  0.47784  0.63648  0.06905  1.0000
  C   C2132     1.0  0.44621  0.62041  0.09163  1.0000
  H   H1712     1.0  0.42171  0.55550  0.03135  1.0000
  C   C2133     1.0  0.52699  0.61649  0.04574  1.0000
  H   H1713     1.0  0.49378  0.99010  0.15689  1.0000
  C   C2134     1.0  0.52254  0.89309  0.05298  1.0000
  H   H1714     1.0  0.46335  0.52255  0.07523  1.0000
  H   H1715     1.0  0.53043  0.98383  0.20263  1.0000
  C   C2135     1.0  0.48755  0.49441  0.18380  1.0000
  C   C2136     1.0  0.38538  0.57632  0.19991  1.0000
  H   H1716     1.0  0.62979  0.65049  0.98734  1.0000
  H   H1717     1.0  0.64043  0.98662  0.00924  1.0000
  H   H1718     1.0  0.58066  0.68861  0.19919  1.0000
  H   H1719     1.0  0.53691  0.55381  0.20809  1.0000
  C   C2137     1.0  0.62814  0.74541  0.10811  1.0000
  C   C2138     1.0  0.41817  0.57128  0.03170  1.0000
  H   H1720     1.0  0.59662  0.85855  0.02218  1.0000
  H   H1721     1.0  0.64553  0.63349  0.03350  1.0000
  C   C2139     1.0  0.50691  0.98892  0.14994  1.0000
  C   C2140     1.0  0.61180  0.81203  0.05506  1.0000
  H   H1722     1.0  0.46833  0.65700  0.10113  1.0000
  C   C2141     1.0  0.45296  0.50263  0.16741  1.0000
  C   C2142     1.0  0.48248  0.59977  0.04475  1.0000
  C   C2143     1.0  0.40861  0.52111  0.06703  1.0000
  C   C2144     1.0  0.52075  0.55503  0.20432  1.0000
  C   C2145     1.0  0.45655  0.95306  0.17277  1.0000
  H   H1723     1.0  0.32852  0.59486  0.23269  1.0000
  H   H1724     1.0  0.51506  0.60310  0.12441  1.0000
  C   C2146     1.0  0.47717  0.51196  0.16323  1.0000
  H   H1725     1.0  0.59936  0.74810  0.09606  1.0000
  H   H1726     1.0  0.61001  0.77586  0.05232  1.0000
  S   S301      1.0  0.32255  0.60434  0.15780  1.0000
  H   H1727     1.0  0.60791  0.51847  0.22535  1.0000
  C   C2147     1.0  0.45081  0.98949  0.17260  1.0000
  C   C2148     1.0  0.63487  0.88301  0.01904  1.0000
  H   H1728     1.0  0.55303  0.98403  0.12444  1.0000
  C   C2149     1.0  0.32132  0.93369  0.07331  1.0000
  C   C2150     1.0  0.52525  0.85970  0.06463  1.0000
  H   H1729     1.0  0.38925  0.81779  0.23157  1.0000
  C   C2151     1.0  0.47666  0.53931  0.20378  1.0000
  C   C2152     1.0  0.64753  0.53359  0.22424  1.0000
  H   H1730     1.0  0.45702  0.56019  0.16416  1.0000
  H   H1731     1.0  0.38932  0.54782  0.23140  1.0000
  H   H1732     1.0  0.57990  0.67722  0.17363  1.0000
  H   H1733     1.0  0.64221  0.98476  0.11520  1.0000
  C   C2153     1.0  0.51607  0.96626  0.13162  1.0000
  H   H1734     1.0  0.45487  0.93633  0.16755  1.0000
  C   C2154     1.0  0.64736  0.80450  0.05600  1.0000
  C   C2155     1.0  0.49767  0.53845  0.20898  1.0000
  H   H1735     1.0  0.50362  0.61292  0.14772  1.0000
  H   H1736     1.0  0.54764  0.63734  0.16348  1.0000
  H   H1737     1.0  0.62826  0.78362  0.08266  1.0000
  C   C2156     1.0  0.53647  0.88185  0.05760  1.0000
  H   H1738     1.0  0.47892  0.56356  0.06531  1.0000
  H   H1739     1.0  0.65047  0.55208  0.22225  1.0000
  S   S302      1.0  0.32215  0.68865  0.20598  1.0000
  C   C2157     1.0  0.45879  0.61193  0.06874  1.0000
  C   C2158     1.0  0.40894  0.61190  0.03210  1.0000
  C   C2159     1.0  0.49438  0.50801  0.17143  1.0000
  C   C2160     1.0  0.31839  0.91168  0.06660  1.0000
  H   H1740     1.0  0.43649  0.62734  0.04904  1.0000
  C   C2161     1.0  0.32102  0.59491  0.22223  1.0000
  H   H1741     1.0  0.53146  0.91046  0.04771  1.0000
  Fe  Fe150     1.0  0.64687  0.94487  0.03797  1.0000
  H   H1742     1.0  0.50518  0.60898  0.06410  1.0000
  H   H1743     1.0  0.37545  0.55711  0.19607  1.0000
  H   H1744     1.0  0.33226  0.56316  0.15293  1.0000
  H   H1745     1.0  0.34378  0.79621  0.23295  1.0000
  S   S303      1.0  0.63424  0.67936  0.01301  1.0000
  C   C2162     1.0  0.47075  0.98268  0.19338  1.0000
  H   H1746     1.0  0.38901  0.50940  0.06804  1.0000
  H   H1747     1.0  0.48259  0.52215  0.15365  1.0000
  S   S304      1.0  0.54061  0.49339  0.23116  1.0000
  C   C2163     1.0  0.32599  0.60919  0.19826  1.0000
  C   C2164     1.0  0.64155  0.84106  0.02138  1.0000
  H   H1748     1.0  0.52264  0.99048  0.17788  1.0000
  H   H1749     1.0  0.41829  0.49511  0.07648  1.0000
  H   H1750     1.0  0.33230  0.70536  0.23524  1.0000
  C   C2165     1.0  0.65071  0.98608  0.00023  1.0000
  Fe  Fe151     1.0  0.62436  0.92567  0.40674  1.0000
  S   S305      1.0  0.58548  0.90905  0.39598  1.0000
  C   C2166     1.0  0.36447  0.53964  0.29916  1.0000
  S   S306      1.0  0.63229  0.91822  0.42924  1.0000
  Fe  Fe152     1.0  0.62020  0.68051  0.40889  1.0000
  S   S307      1.0  0.58077  0.64748  0.40503  1.0000
  S   S308      1.0  0.62443  0.71106  0.42469  1.0000
  Fe  Fe153     1.0  0.42856  0.86818  0.34613  1.0000
  S   S309      1.0  0.43060  0.88573  0.36791  1.0000
  S   S310      1.0  0.41896  0.82713  0.34435  1.0000
  Fe  Fe154     1.0  0.44437  0.91768  0.33134  1.0000
  S   S311      1.0  0.44722  0.93814  0.35212  1.0000
  S   S312      1.0  0.44590  0.93104  0.30860  1.0000
  Fe  Fe155     1.0  0.46641  0.91705  0.36100  1.0000
  S   S313      1.0  0.50230  0.93818  0.37507  1.0000
  Fe  Fe156     1.0  0.41140  0.90517  0.35748  1.0000
  S   S314      1.0  0.37540  0.90657  0.36232  1.0000
  S   S315      1.0  0.46530  0.89844  0.33979  1.0000
  S   S316      1.0  0.40766  0.88574  0.33614  1.0000
  C   C2167     1.0  0.43856  0.92033  0.25278  1.0000
  Fe  Fe157     1.0  0.41011  0.49657  0.35649  1.0000
  Fe  Fe158     1.0  0.45488  0.54863  0.35259  1.0000
  S   S317      1.0  0.43875  0.55275  0.33152  1.0000
  S   S318      1.0  0.49429  0.58004  0.35851  1.0000
  Fe  Fe159     1.0  0.40293  0.53801  0.34250  1.0000
  S   S319      1.0  0.37246  0.54934  0.33977  1.0000
  Fe  Fe160     1.0  0.42916  0.51285  0.32648  1.0000
  C   C2168     1.0  0.38384  0.50950  0.28864  1.0000
  S   S320      1.0  0.41909  0.53561  0.36386  1.0000
  S   S321      1.0  0.44721  0.50951  0.34667  1.0000
  Fe  Fe161     1.0  0.33346  0.65167  0.31328  1.0000
  S   S322      1.0  0.36624  0.64641  0.32143  1.0000
  C   C2169     1.0  0.32470  0.59527  0.27895  1.0000
  S   S323      1.0  0.64978  0.91250  0.39726  1.0000
  S   S324      1.0  0.34156  0.67577  0.29433  1.0000
  H   H1751     1.0  0.45693  0.88583  0.23782  1.0000
  C   C2170     1.0  0.61477  0.98436  0.43314  1.0000
  C   C2171     1.0  0.56051  0.57215  0.37165  1.0000
  C   C2172     1.0  0.40257  0.57956  0.26354  1.0000
  C   C2173     1.0  0.41728  0.84626  0.28882  1.0000
  C   C2174     1.0  0.58999  0.97873  0.43128  1.0000
  C   C2175     1.0  0.36151  0.64931  0.25676  1.0000
  C   C2176     1.0  0.34591  0.72063  0.37071  1.0000
  C   C2177     1.0  0.35890  0.82915  0.26466  1.0000
  C   C2178     1.0  0.37138  0.57673  0.33480  1.0000
  C   C2179     1.0  0.39258  0.59894  0.33267  1.0000
  C   C2180     1.0  0.39065  0.62025  0.32908  1.0000
  C   C2181     1.0  0.36753  0.61946  0.32711  1.0000
  C   C2182     1.0  0.34634  0.59722  0.32922  1.0000
  C   C2183     1.0  0.34830  0.57607  0.33309  1.0000
  H   H1752     1.0  0.41039  0.59966  0.33379  1.0000
  H   H1753     1.0  0.40715  0.63739  0.32765  1.0000
  H   H1754     1.0  0.32842  0.59629  0.32790  1.0000
  H   H1755     1.0  0.33177  0.55903  0.33475  1.0000
  H   H1756     1.0  0.39202  0.49818  0.28494  1.0000
  C   C2184     1.0  0.45640  0.96263  0.28655  1.0000
  H   H1757     1.0  0.63267  0.80694  0.39215  1.0000
  H   H1758     1.0  0.44156  0.94694  0.28087  1.0000
  C   C2185     1.0  0.39563  0.80245  0.33360  1.0000
  C   C2186     1.0  0.39306  0.77844  0.33451  1.0000
  C   C2187     1.0  0.37498  0.75831  0.32614  1.0000
  C   C2188     1.0  0.35907  0.76192  0.31681  1.0000
  C   C2189     1.0  0.36159  0.78594  0.31590  1.0000
  C   C2190     1.0  0.37979  0.80611  0.32421  1.0000
  H   H1759     1.0  0.40522  0.77539  0.34171  1.0000
  H   H1760     1.0  0.37339  0.74001  0.32688  1.0000
  H   H1761     1.0  0.34940  0.78892  0.30871  1.0000
  H   H1762     1.0  0.38164  0.82448  0.32339  1.0000
  H   H1763     1.0  0.48648  0.97948  0.31887  1.0000
  C   C2191     1.0  0.34963  0.90692  0.40210  1.0000
  C   C2192     1.0  0.36366  0.90500  0.39095  1.0000
  C   C2193     1.0  0.35758  0.90729  0.37686  1.0000
  C   C2194     1.0  0.33679  0.91069  0.37412  1.0000
  C   C2195     1.0  0.43503  0.60076  0.24712  1.0000
  H   H1764     1.0  0.37934  0.90206  0.39327  1.0000
  C   C2196     1.0  0.64829  0.98623  0.37550  1.0000
  H   H1765     1.0  0.56433  0.98659  0.41903  1.0000
  C   C2197     1.0  0.55697  0.62940  0.39178  1.0000
  C   C2198     1.0  0.56013  0.63240  0.37716  1.0000
  C   C2199     1.0  0.54070  0.61744  0.36723  1.0000
  C   C2200     1.0  0.51780  0.59914  0.37167  1.0000
  C   C2201     1.0  0.51461  0.59634  0.38628  1.0000
  C   C2202     1.0  0.53399  0.61127  0.39619  1.0000
  H   H1766     1.0  0.57755  0.64623  0.37351  1.0000
  H   H1767     1.0  0.54353  0.61998  0.35600  1.0000
  H   H1768     1.0  0.49725  0.58259  0.38998  1.0000
  H   H1769     1.0  0.53119  0.60870  0.40743  1.0000
  C   C2203     1.0  0.56315  0.91805  0.38985  1.0000
  C   C2204     1.0  0.56669  0.94236  0.39145  1.0000
  C   C2205     1.0  0.54804  0.94820  0.38677  1.0000
  C   C2206     1.0  0.52571  0.92997  0.38022  1.0000
  C   C2207     1.0  0.52237  0.90577  0.37846  1.0000
  C   C2208     1.0  0.54087  0.89989  0.38329  1.0000
  H   H1770     1.0  0.58369  0.95657  0.39640  1.0000
  H   H1771     1.0  0.55091  0.96698  0.38825  1.0000
  H   H1772     1.0  0.50539  0.89147  0.37351  1.0000
  H   H1773     1.0  0.53783  0.88102  0.38193  1.0000
  H   H1774     1.0  0.34376  0.64587  0.23640  1.0000
  H   H1775     1.0  0.45848  0.60280  0.31651  1.0000
  C   C2209     1.0  0.46307  0.93136  0.25782  1.0000
  H   H1776     1.0  0.35594  0.57587  0.25727  1.0000
  C   C2210     1.0  0.42752  0.88910  0.27050  1.0000
  C   C2211     1.0  0.58243  0.82783  0.45108  1.0000
  C   C2212     1.0  0.50674  0.61996  0.33100  1.0000
  C   C2213     1.0  0.53044  0.63723  0.32755  1.0000
  C   C2214     1.0  0.54159  0.66087  0.33424  1.0000
  C   C2215     1.0  0.52913  0.66714  0.34447  1.0000
  C   C2216     1.0  0.50545  0.64971  0.34818  1.0000
  C   C2217     1.0  0.49417  0.62624  0.34116  1.0000
  P   P71       1.0  0.48954  0.65786  0.36152  1.0000
  C   C2218     1.0  0.46763  0.63012  0.36973  1.0000
  C   C2219     1.0  0.51229  0.67862  0.37469  1.0000
  C   C2220     1.0  0.53101  0.67342  0.37963  1.0000
  C   C2221     1.0  0.54913  0.68954  0.38954  1.0000
  C   C2222     1.0  0.54884  0.71114  0.39452  1.0000
  C   C2223     1.0  0.53024  0.71646  0.38969  1.0000
  C   C2224     1.0  0.51195  0.70023  0.37983  1.0000
  C   C2225     1.0  0.47334  0.62312  0.38279  1.0000
  C   C2226     1.0  0.45573  0.60229  0.38927  1.0000
  C   C2227     1.0  0.42664  0.59483  0.36967  1.0000
  C   C2228     1.0  0.44428  0.61547  0.36310  1.0000
  C   C2229     1.0  0.47326  0.67254  0.35318  1.0000
  C   C2230     1.0  0.48178  0.68555  0.34077  1.0000
  C   C2231     1.0  0.46811  0.69526  0.33378  1.0000
  C   C2232     1.0  0.44591  0.69210  0.33914  1.0000
  C   C2233     1.0  0.43768  0.67981  0.35170  1.0000
  C   C2234     1.0  0.45145  0.67038  0.35882  1.0000
  H   H1777     1.0  0.49834  0.60134  0.32620  1.0000
  H   H1778     1.0  0.54029  0.63212  0.31988  1.0000
  H   H1779     1.0  0.56008  0.67420  0.33168  1.0000
  H   H1780     1.0  0.53816  0.68549  0.34963  1.0000
  H   H1781     1.0  0.47608  0.61231  0.34388  1.0000
  H   H1782     1.0  0.53151  0.65680  0.37586  1.0000
  H   H1783     1.0  0.56344  0.68526  0.39335  1.0000
  H   H1784     1.0  0.56309  0.72372  0.40211  1.0000
  H   H1785     1.0  0.53007  0.73322  0.39358  1.0000
  H   H1786     1.0  0.49774  0.70469  0.37622  1.0000
  H   H1787     1.0  0.49128  0.63351  0.38805  1.0000
  H   H1788     1.0  0.43959  0.62010  0.35289  1.0000
  H   H1789     1.0  0.49877  0.68796  0.33635  1.0000
  H   H1790     1.0  0.47462  0.70509  0.32413  1.0000
  H   H1791     1.0  0.43500  0.69914  0.33359  1.0000
  H   H1792     1.0  0.42039  0.67731  0.35581  1.0000
  H   H1793     1.0  0.44473  0.66095  0.36855  1.0000
  C   C2235     1.0  0.45115  0.63315  0.31217  1.0000
  C   C2236     1.0  0.43643  0.64073  0.30442  1.0000
  C   C2237     1.0  0.41767  0.62390  0.29503  1.0000
  C   C2238     1.0  0.34426  0.81296  0.25347  1.0000
  H   H1794     1.0  0.42003  0.51345  0.40249  1.0000
  H   H1795     1.0  0.35247  0.71600  0.34875  1.0000
  H   H1796     1.0  0.46540  0.64599  0.31962  1.0000
  H   H1797     1.0  0.43908  0.65946  0.30596  1.0000
  H   H1798     1.0  0.40622  0.63002  0.28930  1.0000
  C   C2239     1.0  0.60480  0.98989  0.48193  1.0000
  C   C2240     1.0  0.34517  0.83841  0.35123  1.0000
  C   C2241     1.0  0.64508  0.95144  0.36098  1.0000
  C   C2242     1.0  0.36169  0.88301  0.31099  1.0000
  C   C2243     1.0  0.37989  0.54718  0.28759  1.0000
  C   C2244     1.0  0.62582  0.84041  0.45441  1.0000
  H   H1799     1.0  0.50607  0.53328  0.35460  1.0000
  C   C2245     1.0  0.51969  0.95097  0.44726  1.0000
  C   C2246     1.0  0.45346  0.52940  0.39104  1.0000
  C   C2247     1.0  0.47122  0.52505  0.38441  1.0000
  H   H1800     1.0  0.35003  0.83194  0.27378  1.0000
  P   P72       1.0  0.40414  0.86182  0.27839  1.0000
  C   C2248     1.0  0.53678  0.95035  0.43787  1.0000
  H   H1801     1.0  0.52486  0.95684  0.45831  1.0000
  H   H1802     1.0  0.45422  0.54742  0.39057  1.0000
  H   H1803     1.0  0.48547  0.53998  0.37894  1.0000
  C   C2249     1.0  0.38077  0.82102  0.24077  1.0000
  H   H1804     1.0  0.38222  0.65087  0.27580  1.0000
  H   H1805     1.0  0.38282  0.93735  0.32973  1.0000
  H   H1806     1.0  0.40154  0.90827  0.28471  1.0000
  C   C2250     1.0  0.62542  0.84720  0.46872  1.0000
  S   S325      1.0  0.42790  0.49479  0.30454  1.0000
  P   P73       1.0  0.38994  0.57765  0.28085  1.0000
  C   C2251     1.0  0.37149  0.98601  0.37013  1.0000
  S   S326      1.0  0.64502  0.70712  0.39320  1.0000
  H   H1807     1.0  0.40861  0.58370  0.36448  1.0000
  C   C2252     1.0  0.65060  0.50058  0.26702  1.0000
  C   C2253     1.0  0.37146  0.85257  0.30002  1.0000
  H   H1808     1.0  0.33389  0.97967  0.36921  1.0000
  C   C2254     1.0  0.38631  0.97959  0.39285  1.0000
  P   P74       1.0  0.49291  0.49567  0.37600  1.0000
  H   H1809     1.0  0.43325  0.92845  0.24417  1.0000
  C   C2255     1.0  0.64686  0.83739  0.40786  1.0000
  C   C2256     1.0  0.43430  0.51034  0.39781  1.0000
  H   H1810     1.0  0.47667  0.94808  0.25322  1.0000
  H   H1811     1.0  0.56469  0.83243  0.46948  1.0000
  C   C2257     1.0  0.48790  0.93474  0.42837  1.0000
  H   H1812     1.0  0.54125  0.93871  0.41669  1.0000
  H   H1813     1.0  0.55697  0.92452  0.46649  1.0000
  H   H1814     1.0  0.40282  0.53786  0.27415  1.0000
  H   H1815     1.0  0.32123  0.58538  0.25673  1.0000
  C   C2258     1.0  0.39549  0.63988  0.25729  1.0000
  H   H1816     1.0  0.35731  0.71279  0.37466  1.0000
  C   C2259     1.0  0.35639  0.82325  0.35214  1.0000
  C   C2260     1.0  0.43231  0.58834  0.38280  1.0000
  C   C2261     1.0  0.43692  0.98097  0.37996  1.0000
  H   H1817     1.0  0.62140  0.94819  0.37810  1.0000
  C   C2262     1.0  0.36413  0.58417  0.27994  1.0000
  C   C2263     1.0  0.57333  0.91947  0.43274  1.0000
  C   C2264     1.0  0.56166  0.91695  0.45723  1.0000
  C   C2265     1.0  0.52878  0.94064  0.42391  1.0000
  H   H1818     1.0  0.41839  0.96007  0.31460  1.0000
  C   C2266     1.0  0.36843  0.50213  0.30010  1.0000
  C   C2267     1.0  0.34447  0.97312  0.38991  1.0000
  H   H1819     1.0  0.38290  0.95322  0.35402  1.0000
  S   S327      1.0  0.39197  0.49829  0.33597  1.0000
  H   H1820     1.0  0.45797  0.89345  0.28447  1.0000
  H   H1821     1.0  0.57799  0.92905  0.42290  1.0000
  H   H1822     1.0  0.41866  0.57220  0.38782  1.0000
  C   C2268     1.0  0.56536  0.88301  0.44567  1.0000
  C   C2269     1.0  0.57152  0.89585  0.43316  1.0000
  H   H1823     1.0  0.56420  0.86482  0.44593  1.0000
  H   H1824     1.0  0.57494  0.88752  0.42373  1.0000
  H   H1825     1.0  0.36963  0.83405  0.29971  1.0000
  C   C2270     1.0  0.32256  0.91229  0.38526  1.0000
  S   S328      1.0  0.64581  0.77043  0.40167  1.0000
  H   H1826     1.0  0.57575  0.59064  0.37097  1.0000
  C   C2271     1.0  0.53921  0.53459  0.38443  1.0000
  H   H1827     1.0  0.34776  0.84555  0.31762  1.0000
  H   H1828     1.0  0.37943  0.91932  0.30248  1.0000
  C   C2272     1.0  0.46986  0.92139  0.26919  1.0000
  H   H1829     1.0  0.37628  0.83143  0.35240  1.0000
  C   C2273     1.0  0.38006  0.64714  0.26438  1.0000
  H   H1830     1.0  0.60525  0.82587  0.43457  1.0000
  H   H1831     1.0  0.54202  0.57399  0.35239  1.0000
  C   C2274     1.0  0.42537  0.59949  0.26053  1.0000
  C   C2275     1.0  0.41225  0.82184  0.28513  1.0000
  H   H1832     1.0  0.33253  0.60419  0.30132  1.0000
  H   H1833     1.0  0.64184  0.80892  0.47308  1.0000
  C   C2276     1.0  0.60449  0.83082  0.44563  1.0000
  H   H1834     1.0  0.46439  0.98643  0.26872  1.0000
  H   H1835     1.0  0.62067  0.97642  0.44158  1.0000
  H   H1836     1.0  0.47232  0.94763  0.39511  1.0000
  H   H1837     1.0  0.34935  0.65471  0.26226  1.0000
  C   C2277     1.0  0.35877  0.51720  0.30536  1.0000
  C   C2278     1.0  0.42859  0.59196  0.30107  1.0000
  C   C2279     1.0  0.42066  0.80922  0.29401  1.0000
  C   C2280     1.0  0.52121  0.53952  0.36242  1.0000
  H   H1838     1.0  0.35754  0.55136  0.30386  1.0000
  C   C2281     1.0  0.34320  0.72241  0.35611  1.0000
  H   H1839     1.0  0.36680  0.59409  0.30234  1.0000
  C   C2282     1.0  0.48150  0.98092  0.30799  1.0000
  C   C2283     1.0  0.45176  0.49380  0.29473  1.0000
  H   H1840     1.0  0.42668  0.92629  0.39386  1.0000
  C   C2284     1.0  0.39545  0.83713  0.25196  1.0000
  H   H1841     1.0  0.40986  0.63823  0.26322  1.0000
  H   H1842     1.0  0.55528  0.88345  0.46735  1.0000
  C   C2285     1.0  0.49540  0.94341  0.44246  1.0000
  C   C2286     1.0  0.38682  0.87012  0.29065  1.0000
  C   C2287     1.0  0.39227  0.63461  0.24260  1.0000
  C   C2288     1.0  0.43930  0.84513  0.31029  1.0000
  C   C2289     1.0  0.51996  0.52509  0.37399  1.0000
  C   C2290     1.0  0.55934  0.55808  0.38327  1.0000
  H   H1843     1.0  0.43586  0.61398  0.26853  1.0000
  C   C2291     1.0  0.44725  0.60881  0.31045  1.0000
  C   C2292     1.0  0.38966  0.56092  0.25293  1.0000
  H   H1844     1.0  0.63639  0.52345  0.25794  1.0000
  C   C2293     1.0  0.42085  0.89930  0.25907  1.0000
  C   C2294     1.0  0.32850  0.73247  0.35094  1.0000
  C   C2295     1.0  0.43427  0.82091  0.30655  1.0000
  H   H1845     1.0  0.37215  0.54526  0.25509  1.0000
  C   C2296     1.0  0.39828  0.96371  0.34748  1.0000
  H   H1846     1.0  0.49875  0.92608  0.40824  1.0000
  C   C2297     1.0  0.58180  0.83469  0.46528  1.0000
  H   H1847     1.0  0.57381  0.56568  0.39155  1.0000
  H   H1848     1.0  0.45274  0.61606  0.24492  1.0000
  H   H1849     1.0  0.46909  0.92882  0.42466  1.0000
  C   C2298     1.0  0.33760  0.59777  0.29176  1.0000
  S   S329      1.0  0.33589  0.73718  0.30605  1.0000
  H   H1850     1.0  0.42593  0.57318  0.30000  1.0000
  C   C2299     1.0  0.39034  0.98538  0.37852  1.0000
  H   H1851     1.0  0.41528  0.84619  0.25131  1.0000
  H   H1852     1.0  0.40187  0.89120  0.25515  1.0000
  C   C2300     1.0  0.38926  0.89412  0.29146  1.0000
  Fe  Fe162     1.0  0.32395  0.69552  0.30620  1.0000
  C   C2301     1.0  0.54156  0.56275  0.36117  1.0000
  C   C2302     1.0  0.56042  0.89355  0.45771  1.0000
  C   C2303     1.0  0.63669  0.96078  0.37205  1.0000
  C   C2304     1.0  0.35837  0.64425  0.24208  1.0000
  C   C2305     1.0  0.39815  0.95466  0.33367  1.0000
  C   C2306     1.0  0.35710  0.59212  0.29228  1.0000
  C   C2307     1.0  0.46252  0.96026  0.30071  1.0000
  C   C2308     1.0  0.57812  0.97702  0.46051  1.0000
  C   C2309     1.0  0.43052  0.85764  0.30161  1.0000
  H   H1853     1.0  0.43366  0.87603  0.30505  1.0000
  C   C2310     1.0  0.37676  0.90052  0.30162  1.0000
  C   C2311     1.0  0.41344  0.59929  0.29339  1.0000
  P   P75       1.0  0.56814  0.95941  0.44374  1.0000
  C   C2312     1.0  0.60323  0.84448  0.47407  1.0000
  H   H1854     1.0  0.48228  0.94403  0.44971  1.0000
  H   H1855     1.0  0.46033  0.59695  0.39930  1.0000
  H   H1856     1.0  0.63993  0.84806  0.40214  1.0000
  C   C2313     1.0  0.49429  0.50271  0.29197  1.0000
  C   C2314     1.0  0.45221  0.90036  0.27552  1.0000
  C   C2315     1.0  0.38463  0.84133  0.26398  1.0000
  H   H1857     1.0  0.44924  0.85382  0.32023  1.0000
  H   H1858     1.0  0.48870  0.93047  0.27344  1.0000
  C   C2316     1.0  0.35895  0.85899  0.31014  1.0000
  C   C2317     1.0  0.46932  0.98506  0.27963  1.0000
  H   H1859     1.0  0.34759  0.51197  0.31461  1.0000
  H   H1860     1.0  0.35640  0.85825  0.35074  1.0000
  C   C2318     1.0  0.32912  0.91079  0.39938  1.0000
  C   C2319     1.0  0.35104  0.58173  0.26704  1.0000
  H   H1861     1.0  0.32654  0.96764  0.39421  1.0000
  C   C2320     1.0  0.33134  0.58717  0.26661  1.0000
  C   C2321     1.0  0.38976  0.53200  0.28248  1.0000
  H   H1862     1.0  0.44020  0.81095  0.31367  1.0000
  H   H1863     1.0  0.56590  0.82029  0.44424  1.0000
  H   H1864     1.0  0.40120  0.81208  0.27570  1.0000
  C   C2322     1.0  0.35517  0.80889  0.24154  1.0000
  H   H1865     1.0  0.64461  0.95082  0.46765  1.0000
  H   H1866     1.0  0.32119  0.68368  0.25789  1.0000
  H   H1867     1.0  0.40074  0.97979  0.39971  1.0000
  C   C2323     1.0  0.56858  0.93026  0.44480  1.0000
  H   H1868     1.0  0.35993  0.96767  0.40933  1.0000
  H   H1869     1.0  0.35130  0.78625  0.35317  1.0000
  C   C2324     1.0  0.42409  0.95692  0.38478  1.0000
  H   H1870     1.0  0.32441  0.80342  0.25410  1.0000
  H   H1871     1.0  0.35481  0.90555  0.41296  1.0000
  H   H1872     1.0  0.41601  0.79011  0.29142  1.0000
  C   C2325     1.0  0.34208  0.79757  0.35268  1.0000
  C   C2326     1.0  0.41820  0.96737  0.32519  1.0000
  C   C2327     1.0  0.39933  0.56229  0.23952  1.0000
  H   H1873     1.0  0.49537  0.98951  0.38594  1.0000
  C   C2328     1.0  0.47547  0.98081  0.38600  1.0000
  C   C2329     1.0  0.46247  0.95708  0.39111  1.0000
  C   C2330     1.0  0.64266  0.81398  0.40226  1.0000
  C   C2331     1.0  0.50457  0.93322  0.41913  1.0000
  H   H1874     1.0  0.33181  0.91246  0.36329  1.0000
  C   C2332     1.0  0.43678  0.94509  0.39044  1.0000
  H   H1875     1.0  0.48063  0.51257  0.31079  1.0000
  H   H1876     1.0  0.49766  0.49311  0.40681  1.0000
  H   H1877     1.0  0.40428  0.94704  0.38376  1.0000
  H   H1878     1.0  0.60259  0.96213  0.46674  1.0000
  C   C2333     1.0  0.36335  0.97316  0.39844  1.0000
  H   H1879     1.0  0.35264  0.88822  0.31914  1.0000
  H   H1880     1.0  0.51302  0.51074  0.29627  1.0000
  H   H1881     1.0  0.32682  0.73384  0.33957  1.0000
  H   H1882     1.0  0.53854  0.52427  0.39365  1.0000
  C   C2334     1.0  0.59559  0.97492  0.46947  1.0000
  C   C2335     1.0  0.33397  0.72896  0.38018  1.0000
  H   H1883     1.0  0.33617  0.72765  0.39150  1.0000
  H   H1884     1.0  0.64271  0.84269  0.44995  1.0000
  C   C2336     1.0  0.47016  0.50161  0.38466  1.0000
  C   C2337     1.0  0.41857  0.98542  0.35299  1.0000
  C   C2338     1.0  0.47598  0.50382  0.30023  1.0000
  H   H1885     1.0  0.63635  0.93165  0.35856  1.0000
  C   C2339     1.0  0.58311  0.98986  0.42046  1.0000
  C   C2340     1.0  0.34858  0.97968  0.37578  1.0000
  H   H1886     1.0  0.51530  0.49609  0.34862  1.0000
  Fe  Fe163     1.0  0.65059  0.73757  0.40957  1.0000
  S   S330      1.0  0.31820  0.67335  0.32560  1.0000
  C   C2341     1.0  0.48863  0.49143  0.27819  1.0000
  C   C2342     1.0  0.43843  0.98910  0.33056  1.0000
  H   H1887     1.0  0.40420  0.62865  0.23745  1.0000
  C   C2343     1.0  0.42204  0.58216  0.23664  1.0000
  H   H1888     1.0  0.60226  0.84975  0.48496  1.0000
  C   C2344     1.0  0.31956  0.82799  0.35097  1.0000
  C   C2345     1.0  0.31919  0.73900  0.37505  1.0000
  H   H1889     1.0  0.65109  0.87201  0.37509  1.0000
  C   C2346     1.0  0.65111  0.79951  0.40961  1.0000
  C   C2347     1.0  0.53902  0.50903  0.73133  1.0000
  Fe  Fe164     1.0  0.45190  0.50242  0.71746  1.0000
  S   S331      1.0  0.43006  0.52310  0.71526  1.0000
  H   H1890     1.0  0.39448  0.96191  0.64303  1.0000
  C   C2348     1.0  0.54608  0.53411  0.69564  1.0000
  H   H1891     1.0  0.62529  0.87482  0.52596  1.0000
  S   S332      1.0  0.43449  0.90683  0.71230  1.0000
  H   H1892     1.0  0.43198  0.59558  0.71450  1.0000
  Fe  Fe165     1.0  0.44771  0.94797  0.71484  1.0000
  S   S333      1.0  0.44499  0.97376  0.69845  1.0000
  C   C2349     1.0  0.64478  0.94322  0.63951  1.0000
  Fe  Fe166     1.0  0.58006  0.78562  0.71520  1.0000
  S   S334      1.0  0.53937  0.76457  0.71920  1.0000
  S   S335      1.0  0.59314  0.78520  0.69265  1.0000
  C   C2350     1.0  0.59501  0.50813  0.70730  1.0000
  C   C2351     1.0  0.32279  0.96376  0.62385  1.0000
  H   H1893     1.0  0.57641  0.93640  0.69953  1.0000
  C   C2352     1.0  0.48096  0.50534  0.67895  1.0000
  H   H1894     1.0  0.62532  0.69075  0.59018  1.0000
  H   H1895     1.0  0.51188  0.88046  0.67706  1.0000
  P   P76       1.0  0.57216  0.60578  0.55284  1.0000
  H   H1896     1.0  0.57252  0.58151  0.67318  1.0000
  C   C2353     1.0  0.34360  0.51519  0.68425  1.0000
  C   C2354     1.0  0.42936  0.62937  0.71742  1.0000
  H   H1897     1.0  0.58533  0.55737  0.71590  1.0000
  H   H1898     1.0  0.63645  0.89505  0.67786  1.0000
  C   C2355     1.0  0.44441  0.69648  0.68491  1.0000
  H   H1899     1.0  0.60115  0.52729  0.65300  1.0000
  C   C2356     1.0  0.52497  0.58790  0.54013  1.0000
  P   P77       1.0  0.55036  0.50916  0.70274  1.0000
  C   C2357     1.0  0.54259  0.78753  0.67898  1.0000
  C   C2358     1.0  0.57665  0.64423  0.57150  1.0000
  C   C2359     1.0  0.55524  0.57952  0.57752  1.0000
  C   C2360     1.0  0.60864  0.87411  0.69277  1.0000
  C   C2361     1.0  0.57999  0.90567  0.69017  1.0000
  C   C2362     1.0  0.61511  0.67457  0.58310  1.0000
  C   C2363     1.0  0.62010  0.80730  0.68462  1.0000
  H   H1900     1.0  0.55860  0.94804  0.61122  1.0000
  S   S336      1.0  0.48048  0.59372  0.72059  1.0000
  H   H1901     1.0  0.63517  0.88283  0.50081  1.0000
  H   H1902     1.0  0.61215  0.78488  0.66520  1.0000
  C   C2364     1.0  0.54298  0.53353  0.56413  1.0000
  H   H1903     1.0  0.53990  0.59060  0.68218  1.0000
  C   C2365     1.0  0.55260  0.55488  0.55630  1.0000
  H   H1904     1.0  0.57706  0.54620  0.68204  1.0000
  H   H1905     1.0  0.63294  0.95028  0.55984  1.0000
  C   C2366     1.0  0.43769  0.65361  0.71316  1.0000
  H   H1906     1.0  0.60332  0.51106  0.60866  1.0000
  C   C2367     1.0  0.61077  0.51289  0.61941  1.0000
  C   C2368     1.0  0.63786  0.86852  0.50585  1.0000
  H   H1907     1.0  0.47989  0.52051  0.68449  1.0000
  C   C2369     1.0  0.61026  0.85558  0.65933  1.0000
  C   C2370     1.0  0.62860  0.51642  0.64737  1.0000
  H   H1908     1.0  0.49674  0.61526  0.52169  1.0000
  C   C2371     1.0  0.62546  0.57581  0.57852  1.0000
  C   C2372     1.0  0.62390  0.55702  0.56901  1.0000
  C   C2373     1.0  0.60650  0.53201  0.57081  1.0000
  C   C2374     1.0  0.59058  0.52522  0.58221  1.0000
  C   C2375     1.0  0.59265  0.54391  0.59196  1.0000
  C   C2376     1.0  0.60982  0.56896  0.59006  1.0000
  H   H1909     1.0  0.48137  0.69629  0.66766  1.0000
  H   H1910     1.0  0.60532  0.51779  0.56325  1.0000
  H   H1911     1.0  0.58066  0.53915  0.60081  1.0000
  H   H1912     1.0  0.61081  0.58320  0.59753  1.0000
  H   H1913     1.0  0.53054  0.68418  0.71683  1.0000
  C   C2377     1.0  0.43498  0.71905  0.66705  1.0000
  H   H1914     1.0  0.55671  0.72959  0.69920  1.0000
  C   C2378     1.0  0.53089  0.49770  0.71769  1.0000
  H   H1915     1.0  0.39746  0.70189  0.65872  1.0000
  H   H1916     1.0  0.48889  0.57423  0.53007  1.0000
  H   H1917     1.0  0.34997  0.51326  0.72984  1.0000
  C   C2379     1.0  0.52077  0.71286  0.66877  1.0000
  H   H1918     1.0  0.64127  0.95320  0.49385  1.0000
  P   P78       1.0  0.58283  0.86356  0.68008  1.0000
  H   H1919     1.0  0.60627  0.88262  0.58195  1.0000
  H   H1920     1.0  0.51137  0.56383  0.69984  1.0000
  C   C2380     1.0  0.45471  0.66282  0.70240  1.0000
  H   H1921     1.0  0.56006  0.72979  0.67313  1.0000
  Fe  Fe167     1.0  0.41528  0.90413  0.73289  1.0000
  C   C2381     1.0  0.59294  0.60357  0.54034  1.0000
  H   H1922     1.0  0.59107  0.93773  0.60408  1.0000
  H   H1923     1.0  0.51204  0.80064  0.70468  1.0000
  H   H1924     1.0  0.51183  0.76483  0.69142  1.0000
  C   C2382     1.0  0.61420  0.61460  0.51821  1.0000
  C   C2383     1.0  0.62690  0.60151  0.52171  1.0000
  C   C2384     1.0  0.62303  0.58984  0.53458  1.0000
  C   C2385     1.0  0.60629  0.59103  0.54390  1.0000
  H   H1925     1.0  0.64219  0.83097  0.58446  1.0000
  H   H1926     1.0  0.52115  0.56979  0.54357  1.0000
  H   H1927     1.0  0.51128  0.64012  0.70808  1.0000
  C   C2386     1.0  0.41056  0.70035  0.66597  1.0000
  C   C2387     1.0  0.55896  0.57810  0.56295  1.0000
  C   C2388     1.0  0.36480  0.49341  0.70164  1.0000
  S   S337      1.0  0.59051  0.76744  0.73259  1.0000
  C   C2389     1.0  0.56244  0.54965  0.68584  1.0000
  C   C2390     1.0  0.54797  0.60866  0.54320  1.0000
  C   C2391     1.0  0.51097  0.61345  0.52774  1.0000
  C   C2392     1.0  0.50233  0.87573  0.72530  1.0000
  S   S338      1.0  0.48351  0.53373  0.72980  1.0000
  C   C2393     1.0  0.52764  0.53940  0.70061  1.0000
  H   H1928     1.0  0.54317  0.77190  0.67364  1.0000
  C   C2394     1.0  0.53927  0.53511  0.57859  1.0000
  H   H1929     1.0  0.54794  0.85836  0.72454  1.0000
  C   C2395     1.0  0.58232  0.52205  0.70864  1.0000
  C   C2396     1.0  0.50857  0.64461  0.71885  1.0000
  H   H1930     1.0  0.53895  0.51578  0.55912  1.0000
  H   H1931     1.0  0.55744  0.52399  0.73333  1.0000
  C   C2397     1.0  0.51940  0.66977  0.72376  1.0000
  C   C2398     1.0  0.45184  0.71715  0.67647  1.0000
  H   H1932     1.0  0.41345  0.66171  0.69016  1.0000
  C   C2399     1.0  0.46424  0.98805  0.68415  1.0000
  H   H1933     1.0  0.60404  0.58248  0.55398  1.0000
  H   H1934     1.0  0.44081  0.73511  0.66065  1.0000
  H   H1935     1.0  0.55547  0.55330  0.54511  1.0000
  H   H1936     1.0  0.58556  0.52440  0.62814  1.0000
  H   H1937     1.0  0.39545  0.94422  0.66610  1.0000
  C   C2400     1.0  0.39463  0.96152  0.66576  1.0000
  H   H1938     1.0  0.53731  0.65208  0.52698  1.0000
  C   C2401     1.0  0.56007  0.56980  0.68089  1.0000
  H   H1939     1.0  0.64611  0.93071  0.66051  1.0000
  H   H1940     1.0  0.47064  0.73193  0.67728  1.0000
  C   C2402     1.0  0.34600  0.97335  0.63079  1.0000
  H   H1941     1.0  0.51609  0.71309  0.70968  1.0000
  H   H1942     1.0  0.63340  0.58031  0.53748  1.0000
  C   C2403     1.0  0.56029  0.81165  0.67628  1.0000
  C   C2404     1.0  0.54359  0.87419  0.67735  1.0000
  H   H1943     1.0  0.59017  0.88548  0.62954  1.0000
  C   C2405     1.0  0.63197  0.54249  0.71789  1.0000
  C   C2406     1.0  0.59562  0.87698  0.63785  1.0000
  C   C2407     1.0  0.46279  0.64724  0.69577  1.0000
  H   H1944     1.0  0.58615  0.85732  0.71059  1.0000
  Fe  Fe168     1.0  0.54572  0.79667  0.73419  1.0000
  C   C2408     1.0  0.60063  0.52038  0.63045  1.0000
  C   C2409     1.0  0.52523  0.80368  0.69655  1.0000
  H   H1945     1.0  0.57384  0.88288  0.65340  1.0000
  H   H1946     1.0  0.57399  0.81401  0.66870  1.0000
  H   H1947     1.0  0.48110  0.69292  0.72695  1.0000
  C   C2410     1.0  0.49405  0.50938  0.66639  1.0000
  H   H1948     1.0  0.56994  0.64804  0.54053  1.0000
  C   C2411     1.0  0.54171  0.57494  0.68594  1.0000
  H   H1949     1.0  0.50329  0.52784  0.66245  1.0000
  C   C2412     1.0  0.56803  0.88286  0.68240  1.0000
  C   C2413     1.0  0.56740  0.91917  0.69320  1.0000
  C   C2414     1.0  0.61877  0.91487  0.56942  1.0000
  C   C2415     1.0  0.62472  0.98570  0.62796  1.0000
  Fe  Fe169     1.0  0.46087  0.55398  0.72888  1.0000
  H   H1950     1.0  0.62416  0.63358  0.56232  1.0000
  C   C2416     1.0  0.52503  0.78354  0.68906  1.0000
  C   C2417     1.0  0.51712  0.71323  0.69824  1.0000
  C   C2418     1.0  0.61433  0.64226  0.56728  1.0000
  H   H1951     1.0  0.53278  0.91998  0.69134  1.0000
  H   H1952     1.0  0.58025  0.67399  0.58587  1.0000
  C   C2419     1.0  0.59731  0.61570  0.52748  1.0000
  C   C2420     1.0  0.52528  0.87673  0.72283  1.0000
  C   C2421     1.0  0.37185  0.51866  0.70351  1.0000
  H   H1953     1.0  0.46650  0.85348  0.73332  1.0000
  H   H1954     1.0  0.55697  0.63696  0.56983  1.0000
  H   H1955     1.0  0.39535  0.96611  0.68852  1.0000
  C   C2422     1.0  0.61212  0.86780  0.63503  1.0000
  S   S339      1.0  0.48207  0.95457  0.72701  1.0000
  C   C2423     1.0  0.60941  0.52198  0.64444  1.0000
  C   C2424     1.0  0.62735  0.66304  0.57647  1.0000
  C   C2425     1.0  0.39458  0.97389  0.67844  1.0000
  H   H1956     1.0  0.62940  0.50748  0.71085  1.0000
  H   H1957     1.0  0.58804  0.62626  0.52461  1.0000
  H   H1958     1.0  0.64696  0.67008  0.57848  1.0000
  C   C2426     1.0  0.36121  0.52953  0.69488  1.0000
  C   C2427     1.0  0.59367  0.86474  0.66229  1.0000
  H   H1959     1.0  0.52224  0.71253  0.65735  1.0000
  C   C2428     1.0  0.61949  0.55646  0.71927  1.0000
  C   C2429     1.0  0.63023  0.50756  0.62221  1.0000
  C   C2430     1.0  0.40300  0.67974  0.67432  1.0000
  C   C2431     1.0  0.45424  0.62295  0.69998  1.0000
  C   C2432     1.0  0.54285  0.82780  0.69386  1.0000
  C   C2433     1.0  0.54018  0.72229  0.69234  1.0000
  C   C2434     1.0  0.54205  0.72236  0.67761  1.0000
  H   H1960     1.0  0.61281  0.90436  0.55936  1.0000
  S   S340      1.0  0.58543  0.81856  0.72895  1.0000
  H   H1961     1.0  0.53394  0.85658  0.67142  1.0000
  C   C2435     1.0  0.61510  0.90266  0.58213  1.0000
  S   S341      1.0  0.49741  0.90128  0.72059  1.0000
  H   H1962     1.0  0.33521  0.52359  0.67763  1.0000
  C   C2436     1.0  0.56051  0.83208  0.68364  1.0000
  C   C2437     1.0  0.48197  0.98145  0.67972  1.0000
  H   H1963     1.0  0.63598  0.56175  0.56021  1.0000
  C   C2438     1.0  0.50656  0.59034  0.53245  1.0000
  H   H1964     1.0  0.47608  0.65388  0.68757  1.0000
  C   C2439     1.0  0.39426  0.97173  0.65274  1.0000
  H   H1965     1.0  0.54268  0.84309  0.69983  1.0000
  H   H1966     1.0  0.63527  0.51744  0.65823  1.0000
  C   C2440     1.0  0.63672  0.82973  0.69159  1.0000
  C   C2441     1.0  0.58641  0.87548  0.65143  1.0000
  H   H1967     1.0  0.63467  0.86094  0.57075  1.0000
  C   C2442     1.0  0.58894  0.63277  0.56465  1.0000
  H   H1968     1.0  0.63324  0.83413  0.70221  1.0000
  C   C2443     1.0  0.49439  0.62520  0.72771  1.0000
  H   H1969     1.0  0.45809  0.98690  0.60053  1.0000
  C   C2444     1.0  0.49765  0.70386  0.67467  1.0000
  C   C2445     1.0  0.53103  0.88765  0.68049  1.0000
  H   H1970     1.0  0.41684  0.62256  0.72602  1.0000
  C   C2446     1.0  0.54285  0.91002  0.68851  1.0000
  C   C2447     1.0  0.63011  0.94073  0.56967  1.0000
  C   C2448     1.0  0.49574  0.70468  0.68948  1.0000
  H   H1971     1.0  0.54739  0.50609  0.67116  1.0000
  H   H1972     1.0  0.61973  0.90655  0.60484  1.0000
  C   C2449     1.0  0.61946  0.85714  0.64579  1.0000
  H   H1973     1.0  0.51462  0.52778  0.70809  1.0000
  C   C2450     1.0  0.62439  0.87739  0.71707  1.0000
  H   H1974     1.0  0.38403  0.66530  0.67353  1.0000
  C   C2451     1.0  0.48423  0.85462  0.73133  1.0000
  C   C2452     1.0  0.62487  0.80212  0.67072  1.0000
  P   P79       1.0  0.46622  0.69446  0.69732  1.0000
  C   C2453     1.0  0.63273  0.88968  0.68871  1.0000
  C   C2454     1.0  0.63225  0.86405  0.52011  1.0000
  H   H1975     1.0  0.63473  0.95284  0.64284  1.0000
  H   H1976     1.0  0.46119  0.61122  0.69525  1.0000
  H   H1977     1.0  0.61799  0.62437  0.50841  1.0000
  C   C2455     1.0  0.61974  0.51835  0.71190  1.0000
  H   H1978     1.0  0.38521  0.52966  0.71192  1.0000
  C   C2456     1.0  0.59478  0.54632  0.71466  1.0000
  C   C2457     1.0  0.53380  0.63418  0.53073  1.0000
  C   C2458     1.0  0.52562  0.55984  0.69586  1.0000
  C   C2459     1.0  0.62291  0.91632  0.59510  1.0000
  C   C2460     1.0  0.58974  0.66514  0.58064  1.0000
  H   H1979     1.0  0.64023  0.60099  0.51459  1.0000
  C   C2461     1.0  0.59553  0.95259  0.61197  1.0000
  H   H1980     1.0  0.34882  0.96299  0.63909  1.0000
  C   C2462     1.0  0.48899  0.83485  0.73473  1.0000
  C   C2463     1.0  0.54534  0.55806  0.58528  1.0000
  C   C2464     1.0  0.60459  0.86852  0.70709  1.0000
  Fe  Fe170     1.0  0.46779  0.91310  0.72603  1.0000
  H   H1981     1.0  0.53952  0.89298  0.71828  1.0000
  H   H1982     1.0  0.59877  0.91281  0.69424  1.0000
  H   H1983     1.0  0.54296  0.55926  0.59657  1.0000
  H   H1984     1.0  0.62117  0.87271  0.72809  1.0000
  H   H1985     1.0  0.61633  0.84744  0.66757  1.0000
  C   C2465     1.0  0.64493  0.83214  0.51933  1.0000
  C   C2466     1.0  0.55223  0.63183  0.53843  1.0000
  C   C2467     1.0  0.61957  0.96631  0.61788  1.0000
  H   H1986     1.0  0.56029  0.59713  0.58300  1.0000
  C   C2468     1.0  0.63584  0.84590  0.52686  1.0000
  C   C2469     1.0  0.41981  0.67779  0.68376  1.0000
  C   C2470     1.0  0.47172  0.75107  0.72422  1.0000
  H   H1987     1.0  0.36650  0.54902  0.69653  1.0000
  H   H1988     1.0  0.61829  0.98821  0.48880  1.0000
  H   H1989     1.0  0.48455  0.96753  0.68524  1.0000
  C   C2471     1.0  0.31873  0.97661  0.61296  1.0000
  S   S342      1.0  0.42678  0.94508  0.73470  1.0000
  H   H1990     1.0  0.61957  0.86927  0.62459  1.0000
  C   C2472     1.0  0.53010  0.85704  0.72632  1.0000
  H   H1991     1.0  0.43117  0.66527  0.71842  1.0000
  S   S343      1.0  0.51168  0.49585  0.64300  1.0000
  C   C2473     1.0  0.32589  0.83991  0.73453  1.0000
  C   C2474     1.0  0.64675  0.85456  0.49814  1.0000
  H   H1992     1.0  0.64666  0.97445  0.58251  1.0000
  H   H1993     1.0  0.46988  0.76780  0.72353  1.0000
  S   S344      1.0  0.37620  0.87073  0.73390  1.0000
  H   H1994     1.0  0.46194  0.74037  0.70231  1.0000
  H   H1995     1.0  0.64375  0.81353  0.72371  1.0000
  H   H1996     1.0  0.33023  0.82562  0.73070  1.0000
  H   H1997     1.0  0.50935  0.98686  0.66439  1.0000
  S   S345      1.0  0.64623  0.60802  0.57649  1.0000
  H   H1998     1.0  0.45781  0.49855  0.63845  1.0000
  C   C2475     1.0  0.63484  0.94235  0.59542  1.0000
  C   C2476     1.0  0.63798  0.95443  0.58261  1.0000
  C   C2477     1.0  0.47792  0.70882  0.72605  1.0000
  H   H1999     1.0  0.63155  0.84244  0.53791  1.0000
  C   C2478     1.0  0.43771  0.61409  0.71088  1.0000
  C   C2479     1.0  0.47025  0.71403  0.71300  1.0000
  C   C2480     1.0  0.33516  0.49531  0.73206  1.0000
  C   C2481     1.0  0.51188  0.83580  0.73219  1.0000
  C   C2482     1.0  0.46735  0.73544  0.71218  1.0000
  H   H2000     1.0  0.63257  0.85036  0.64371  1.0000
  C   C2483     1.0  0.64609  0.81893  0.66392  1.0000
  H   H2001     1.0  0.62892  0.57515  0.72396  1.0000
  C   C2484     1.0  0.57702  0.95837  0.61600  1.0000
  H   H2002     1.0  0.64771  0.81805  0.52457  1.0000
  H   H2003     1.0  0.42146  0.98795  0.58970  1.0000
  H   H2004     1.0  0.56804  0.98248  0.62889  1.0000
  H   H2005     1.0  0.64640  0.54739  0.60412  1.0000
  C   C2485     1.0  0.63906  0.50931  0.63630  1.0000
  S   S346      1.0  0.56825  0.49331  0.58352  1.0000
  H   H2006     1.0  0.53240  0.51859  0.58469  1.0000
  P   P80       1.0  0.64401  0.96004  0.61219  1.0000
  P   P81       1.0  0.64292  0.49777  0.60775  1.0000
  C   C2486     1.0  0.64834  0.89205  0.71283  1.0000
  C   C2487     1.0  0.58234  0.97780  0.62595  1.0000
  C   C2488     1.0  0.65036  0.83640  0.50503  1.0000
  H   H2007     1.0  0.64951  0.81459  0.65326  1.0000
  H   H2008     1.0  0.65110  0.55033  0.72150  1.0000
  C   C2489     1.0  0.44609  0.99090  0.60712  1.0000
  H   H2009     1.0  0.57008  0.79447  0.82771  1.0000
  Fe  Fe171     1.0  0.46347  0.51714  0.74963  1.0000
  S   S347      1.0  0.44216  0.53893  0.74938  1.0000
  C   C2490     1.0  0.62502  0.66159  0.89929  1.0000
  H   H2010     1.0  0.52095  0.49550  0.81076  1.0000
  C   C2491     1.0  0.58542  0.72128  0.76678  1.0000
  H   H2011     1.0  0.53672  0.68109  0.91214  1.0000
  S   S348      1.0  0.48620  0.51855  0.76976  1.0000
  H   H2012     1.0  0.64498  0.71079  0.75150  1.0000
  C   C2492     1.0  0.46385  0.57245  0.85309  1.0000
  H   H2013     1.0  0.49873  0.98880  0.83139  1.0000
  H   H2014     1.0  0.59896  0.89856  0.92598  1.0000
  S   S349      1.0  0.44823  0.90821  0.74651  1.0000
  Fe  Fe172     1.0  0.59342  0.79915  0.74676  1.0000
  C   C2493     1.0  0.43816  0.86335  0.81137  1.0000
  S   S350      1.0  0.62714  0.82545  0.76063  1.0000
  H   H2015     1.0  0.59724  0.52150  0.82653  1.0000
  C   C2494     1.0  0.33484  0.97993  0.88597  1.0000
  H   H2016     1.0  0.51430  0.94220  0.80300  1.0000
  C   C2495     1.0  0.55729  0.85257  0.89570  1.0000
  H   H2017     1.0  0.32789  0.98818  0.89379  1.0000
  C   C2496     1.0  0.60751  0.87293  0.79886  1.0000
  C   C2497     1.0  0.48222  0.72448  0.73807  1.0000
  Fe  Fe173     1.0  0.46078  0.94947  0.74680  1.0000
  C   C2498     1.0  0.46722  0.95608  0.82268  1.0000
  C   C2499     1.0  0.64943  0.91147  0.87439  1.0000
  H   H2018     1.0  0.56339  0.85865  0.76558  1.0000
  C   C2500     1.0  0.60986  0.89111  0.83854  1.0000
  P   P82       1.0  0.46929  0.50829  0.84981  1.0000
  H   H2019     1.0  0.42834  0.50598  0.86658  1.0000
  S   S351      1.0  0.52882  0.70766  0.74451  1.0000
  C   C2501     1.0  0.60044  0.93570  0.88755  1.0000
  H   H2020     1.0  0.64500  0.82161  0.84274  1.0000
  H   H2021     1.0  0.43719  0.57950  0.86392  1.0000
  C   C2502     1.0  0.48864  0.49649  0.78079  1.0000
  C   C2503     1.0  0.62009  0.97842  0.88078  1.0000
  H   H2022     1.0  0.55113  0.52461  0.83356  1.0000
  C   C2504     1.0  0.63784  0.84652  0.83017  1.0000
  H   H2023     1.0  0.63134  0.73293  0.92911  1.0000
  H   H2024     1.0  0.60666  0.78482  0.78026  1.0000
  H   H2025     1.0  0.59924  0.87141  0.83987  1.0000
  C   C2505     1.0  0.50096  0.94592  0.80836  1.0000
  H   H2026     1.0  0.50535  0.87451  0.75885  1.0000
  C   C2506     1.0  0.64549  0.92428  0.91538  1.0000
  C   C2507     1.0  0.36971  0.98155  0.87381  1.0000
  H   H2027     1.0  0.49357  0.85146  0.81997  1.0000
  C   C2508     1.0  0.62985  0.57458  0.89697  1.0000
  C   C2509     1.0  0.63765  0.57604  0.88303  1.0000
  C   C2510     1.0  0.62316  0.55748  0.87249  1.0000
  C   C2511     1.0  0.60077  0.53689  0.87568  1.0000
  C   C2512     1.0  0.59308  0.53528  0.88965  1.0000
  C   C2513     1.0  0.60745  0.55397  0.90015  1.0000
  C   C2514     1.0  0.43114  0.91603  0.78202  1.0000
  H   H2028     1.0  0.62947  0.55902  0.86179  1.0000
  H   H2029     1.0  0.57597  0.51971  0.89236  1.0000
  P   P83       1.0  0.63760  0.71205  0.90161  1.0000
  C   C2515     1.0  0.39283  0.88723  0.76978  1.0000
  C   C2516     1.0  0.64224  0.94060  0.92484  1.0000
  H   H2030     1.0  0.58263  0.49307  0.80504  1.0000
  C   C2517     1.0  0.62740  0.50380  0.88998  1.0000
  C   C2518     1.0  0.45314  0.50933  0.82189  1.0000
  H   H2031     1.0  0.49918  0.66118  0.75729  1.0000
  C   C2519     1.0  0.50538  0.50513  0.79264  1.0000
  H   H2032     1.0  0.60189  0.78833  0.84109  1.0000
  C   C2520     1.0  0.56427  0.86714  0.92037  1.0000
  C   C2521     1.0  0.58894  0.80912  0.82853  1.0000
  S   S352      1.0  0.64690  0.59783  0.91080  1.0000
  H   H2033     1.0  0.55514  0.70458  0.89079  1.0000
  C   C2522     1.0  0.32859  0.94871  0.86763  1.0000
  H   H2034     1.0  0.52878  0.97958  0.81895  1.0000
  H   H2035     1.0  0.44421  0.93488  0.78523  1.0000
  H   H2036     1.0  0.45424  0.96044  0.82803  1.0000
  C   C2523     1.0  0.62345  0.93792  0.89181  1.0000
  C   C2524     1.0  0.51291  0.93313  0.76272  1.0000
  C   C2525     1.0  0.63880  0.92587  0.82569  1.0000
  C   C2526     1.0  0.50194  0.65671  0.74652  1.0000
  H   H2037     1.0  0.59867  0.71826  0.88617  1.0000
  S   S353      1.0  0.55398  0.77896  0.75283  1.0000
  H   H2038     1.0  0.64886  0.74422  0.85328  1.0000
  C   C2527     1.0  0.58763  0.88592  0.91740  1.0000
  H   H2039     1.0  0.64807  0.96209  0.83481  1.0000
  Fe  Fe174     1.0  0.55019  0.74806  0.73735  1.0000
  H   H2040     1.0  0.38592  0.84941  0.76770  1.0000
  C   C2528     1.0  0.50356  0.89009  0.76332  1.0000
  H   H2041     1.0  0.44119  0.51004  0.80026  1.0000
  H   H2042     1.0  0.64481  0.79529  0.74654  1.0000
  H   H2043     1.0  0.47784  0.86853  0.77860  1.0000
  H   H2044     1.0  0.43924  0.92273  0.81226  1.0000
  H   H2045     1.0  0.61708  0.62319  0.89851  1.0000
  H   H2046     1.0  0.51645  0.52488  0.79477  1.0000
  H   H2047     1.0  0.42434  0.85740  0.78095  1.0000
  H   H2048     1.0  0.57864  0.71143  0.74444  1.0000
  C   C2529     1.0  0.44431  0.49918  0.80817  1.0000
  H   H2049     1.0  0.49243  0.49543  0.87382  1.0000
  C   C2530     1.0  0.62009  0.85008  0.82240  1.0000
  C   C2531     1.0  0.63726  0.87594  0.88892  1.0000
  C   C2532     1.0  0.60364  0.50791  0.82477  1.0000
  C   C2533     1.0  0.63110  0.82449  0.83707  1.0000
  C   C2534     1.0  0.60827  0.90758  0.84859  1.0000
  C   C2535     1.0  0.51547  0.51808  0.84031  1.0000
  H   H2050     1.0  0.35341  0.90135  0.74383  1.0000
  H   H2051     1.0  0.40552  0.92647  0.77229  1.0000
  C   C2536     1.0  0.46077  0.87770  0.80520  1.0000
  H   H2052     1.0  0.49878  0.88533  0.80452  1.0000
  H   H2053     1.0  0.48854  0.72052  0.74803  1.0000
  C   C2537     1.0  0.59538  0.49185  0.81271  1.0000
  C   C2538     1.0  0.35393  0.96033  0.86558  1.0000
  H   H2054     1.0  0.45307  0.82514  0.83007  1.0000
  H   H2055     1.0  0.41473  0.53692  0.87251  1.0000
  C   C2539     1.0  0.59548  0.83132  0.82184  1.0000
  H   H2056     1.0  0.43535  0.98623  0.80211  1.0000
  C   C2540     1.0  0.43631  0.89655  0.78493  1.0000
  P   P84       1.0  0.62808  0.87912  0.81423  1.0000
  H   H2057     1.0  0.58132  0.83370  0.81614  1.0000
  C   C2541     1.0  0.34509  0.86435  0.73689  1.0000
  C   C2542     1.0  0.59657  0.88809  0.79611  1.0000
  C   C2543     1.0  0.60317  0.73437  0.77760  1.0000
  C   C2544     1.0  0.58062  0.87134  0.89269  1.0000
  C   C2545     1.0  0.61942  0.50585  0.83493  1.0000
  H   H2058     1.0  0.63227  0.71124  0.87057  1.0000
  C   C2546     1.0  0.51603  0.67610  0.73764  1.0000
  H   H2059     1.0  0.62860  0.94658  0.92247  1.0000
  H   H2060     1.0  0.44083  0.97123  0.77833  1.0000
  C   C2547     1.0  0.58065  0.88291  0.78416  1.0000
  C   C2548     1.0  0.42005  0.87249  0.77958  1.0000
  C   C2549     1.0  0.45791  0.49553  0.83200  1.0000
  H   H2061     1.0  0.62529  0.51822  0.84433  1.0000
  H   H2062     1.0  0.52159  0.95079  0.75774  1.0000
  C   C2550     1.0  0.63773  0.82026  0.77722  1.0000
  C   C2551     1.0  0.59600  0.88815  0.90352  1.0000
  P   P85       1.0  0.46472  0.90286  0.79426  1.0000
  C   C2552     1.0  0.61724  0.73499  0.74962  1.0000
  H   H2063     1.0  0.48045  0.61701  0.74864  1.0000
  S   S354      1.0  0.58315  0.51428  0.86172  1.0000
  C   C2553     1.0  0.55410  0.54706  0.85226  1.0000
  C   C2554     1.0  0.64471  0.96060  0.89047  1.0000
  H   H2064     1.0  0.57402  0.55555  0.85312  1.0000
  C   C2555     1.0  0.43538  0.84434  0.82023  1.0000
  C   C2556     1.0  0.62422  0.79895  0.78468  1.0000
  C   C2557     1.0  0.64636  0.86518  0.87899  1.0000
  C   C2558     1.0  0.33902  0.88250  0.74192  1.0000
  C   C2559     1.0  0.63882  0.89926  0.88673  1.0000
  C   C2560     1.0  0.62207  0.93314  0.84726  1.0000
  C   C2561     1.0  0.50250  0.52393  0.85047  1.0000
  C   C2562     1.0  0.64030  0.68550  0.89470  1.0000
  S   S355      1.0  0.48548  0.97942  0.76370  1.0000
  C   C2563     1.0  0.54911  0.85048  0.90954  1.0000
  C   C2564     1.0  0.31879  0.95839  0.87790  1.0000
  H   H2065     1.0  0.41779  0.83311  0.82481  1.0000
  H   H2066     1.0  0.62227  0.73513  0.73868  1.0000
  C   C2565     1.0  0.48816  0.88685  0.77461  1.0000
  C   C2566     1.0  0.45883  0.93496  0.81359  1.0000
  C   C2567     1.0  0.49127  0.63152  0.74164  1.0000
  H   H2067     1.0  0.62328  0.77909  0.80343  1.0000
  C   C2568     1.0  0.45527  0.83991  0.82323  1.0000
  C   C2569     1.0  0.64678  0.64497  0.88524  1.0000
  C   C2570     1.0  0.56632  0.70039  0.89815  1.0000
  H   H2068     1.0  0.58368  0.91864  0.88869  1.0000
  H   H2069     1.0  0.56610  0.71115  0.76913  1.0000
  H   H2070     1.0  0.52890  0.51091  0.75298  1.0000
  C   C2571     1.0  0.58656  0.84760  0.77754  1.0000
  H   H2071     1.0  0.59659  0.90056  0.85752  1.0000
  C   C2572     1.0  0.59250  0.72146  0.75282  1.0000
  H   H2072     1.0  0.52703  0.91545  0.74825  1.0000
  H   H2073     1.0  0.47365  0.59102  0.84930  1.0000
  C   C2573     1.0  0.47807  0.85470  0.81751  1.0000
  C   C2574     1.0  0.50927  0.96701  0.81748  1.0000
  C   C2575     1.0  0.47563  0.93003  0.80610  1.0000
  C   C2576     1.0  0.54118  0.52965  0.84121  1.0000
  H   H2074     1.0  0.54551  0.83964  0.88731  1.0000
  C   C2577     1.0  0.54134  0.55278  0.86252  1.0000
  H   H2075     1.0  0.58666  0.87279  0.88190  1.0000
  H   H2076     1.0  0.32109  0.97455  0.83998  1.0000
  H   H2077     1.0  0.61077  0.84082  0.79130  1.0000
  C   C2578     1.0  0.60678  0.80568  0.83611  1.0000
  H   H2078     1.0  0.55145  0.56575  0.87130  1.0000
  C   C2579     1.0  0.43845  0.52440  0.86272  1.0000
  C   C2580     1.0  0.55592  0.68714  0.91016  1.0000
  C   C2581     1.0  0.57028  0.68158  0.91960  1.0000
  C   C2582     1.0  0.59504  0.68929  0.91705  1.0000
  C   C2583     1.0  0.60573  0.70280  0.90506  1.0000
  C   C2584     1.0  0.59109  0.70814  0.89557  1.0000
  C   C2585     1.0  0.51587  0.91320  0.75735  1.0000
  C   C2586     1.0  0.63730  0.94226  0.83581  1.0000
  C   C2587     1.0  0.44332  0.56596  0.86131  1.0000
  H   H2079     1.0  0.58298  0.83208  0.77026  1.0000
  C   C2588     1.0  0.43065  0.54196  0.86613  1.0000
  C   C2589     1.0  0.48090  0.87373  0.80867  1.0000
  H   H2080     1.0  0.36142  0.95288  0.85764  1.0000
  C   C2590     1.0  0.63362  0.79582  0.79784  1.0000
  C   C2591     1.0  0.64302  0.98068  0.88487  1.0000
  C   C2592     1.0  0.48566  0.90699  0.78032  1.0000
  H   H2081     1.0  0.53101  0.83596  0.91188  1.0000
  H   H2082     1.0  0.55793  0.86557  0.93110  1.0000
  C   C2593     1.0  0.47918  0.74562  0.73715  1.0000
  C   C2594     1.0  0.39831  0.86786  0.77208  1.0000
  C   C2595     1.0  0.47172  0.55496  0.84968  1.0000
  C   C2596     1.0  0.49792  0.93005  0.77418  1.0000
  H   H2083     1.0  0.47473  0.81863  0.73932  1.0000
  H   H2084     1.0  0.64563  0.84746  0.88086  1.0000
  C   C2597     1.0  0.40935  0.91135  0.77461  1.0000
  H   H2085     1.0  0.37610  0.88363  0.76384  1.0000
  H   H2086     1.0  0.56224  0.67119  0.92889  1.0000
  H   H2087     1.0  0.60585  0.68466  0.92445  1.0000
  C   C2598     1.0  0.57565  0.86267  0.77488  1.0000
  H   H2088     1.0  0.58103  0.95444  0.87915  1.0000
  C   C2599     1.0  0.62524  0.90015  0.82704  1.0000
  H   H2089     1.0  0.49537  0.94550  0.77801  1.0000
  H   H2090     1.0  0.57224  0.89463  0.78203  1.0000
  H   H2091     1.0  0.48760  0.56025  0.84322  1.0000
  C   C2600     1.0  0.64337  0.73032  0.87438  1.0000
  H   H2092     1.0  0.61104  0.65834  0.90681  1.0000
  C   C2601     1.0  0.45903  0.53076  0.85443  1.0000
  H   H2093     1.0  0.42269  0.86684  0.80938  1.0000
  H   H2094     1.0  0.60029  0.90390  0.80311  1.0000
  H   H2095     1.0  0.59764  0.73441  0.78842  1.0000
  H   H2096     1.0  0.60113  0.55246  0.91086  1.0000
  P   P86       1.0  0.62601  0.91240  0.89938  1.0000
  C   C2602     1.0  0.45673  0.98372  0.78491  1.0000
  C   C2603     1.0  0.60236  0.85264  0.78948  1.0000
  H   H2097     1.0  0.62921  0.86621  0.89839  1.0000
  C   C2604     1.0  0.51561  0.54125  0.86166  1.0000
  H   H2098     1.0  0.48316  0.75813  0.74638  1.0000
  S   S356      1.0  0.51657  0.81007  0.73672  1.0000
  C   C2605     1.0  0.49240  0.97214  0.82458  1.0000
  C   C2606     1.0  0.63524  0.74829  0.76041  1.0000
  H   H2099     1.0  0.50595  0.54551  0.86984  1.0000
  H   H2100     1.0  0.62109  0.94590  0.85514  1.0000
  H   H2101     1.0  0.50580  0.50426  0.83186  1.0000
  C   C2607     1.0  0.59881  0.95593  0.88209  1.0000
  C   C2608     1.0  0.62800  0.74780  0.77446  1.0000
  H   H2102     1.0  0.45643  0.52799  0.82443  1.0000
  C   C2609     1.0  0.64051  0.49269  0.86343  1.0000
  C   C2610     1.0  0.52294  0.50169  0.74253  1.0000
  C   C2611     1.0  0.62828  0.64145  0.89456  1.0000
  C   C2612     1.0  0.64851  0.73214  0.92965  1.0000
  H   H2103     1.0  0.62216  0.50860  0.90003  1.0000
  C   C2613     1.0  0.64889  0.73627  0.88899  1.0000
  H   H2104     1.0  0.64126  0.75805  0.78300  1.0000
  H   H2105     1.0  0.64979  0.62949  0.88200  1.0000
  Fe  Fe175     1.0  0.41293  0.50666  0.73586  1.0000
  H   H2106     1.0  0.65053  0.88389  0.78618  1.0000
  H   H2107     1.0  0.65071  0.93328  0.81687  1.0000
  H   H2108     1.0  0.38935  0.99066  0.87224  1.0000
  C   C2614     1.0  0.77443  0.12266  0.10161  1.0000
  C   C2615     1.0  0.67816  0.03460  0.20721  1.0000
  Fe  Fe176     1.0  0.96096  0.01376  0.16265  1.0000
  S   S357      1.0  0.93663  0.03257  0.16570  1.0000
  Fe  Fe177     1.0  0.82865  0.09985  0.10846  1.0000
  S   S358      1.0  0.84031  0.08921  0.12894  1.0000
  S   S359      1.0  0.79338  0.08051  0.09401  1.0000
  Fe  Fe178     1.0  0.87625  0.15057  0.10861  1.0000
  S   S360      1.0  0.89100  0.14351  0.12906  1.0000
  S   S361      1.0  0.89216  0.18606  0.09594  1.0000
  Fe  Fe179     1.0  0.87803  0.10460  0.12001  1.0000
  S   S362      1.0  0.90293  0.08610  0.11914  1.0000
  Fe  Fe180     1.0  0.85237  0.12872  0.13690  1.0000
  S   S363      1.0  0.84905  0.13872  0.16022  1.0000
  S   S364      1.0  0.86564  0.11269  0.09890  1.0000
  S   S365      1.0  0.83845  0.13846  0.11710  1.0000
  C   C2616     1.0  0.77433  0.05859  0.04184  1.0000
  C   C2617     1.0  0.74176  0.09054  0.11436  1.0000
  S   S366      1.0  0.89522  0.44511  0.21474  1.0000
  H   H2109     1.0  0.72408  0.99309  0.00563  1.0000
  C   C2618     1.0  0.92756  0.34193  0.22965  1.0000
  Fe  Fe181     1.0  0.93322  0.46691  0.22473  1.0000
  H   H2110     1.0  0.95281  0.46951  0.16257  1.0000
  Fe  Fe182     1.0  0.77586  0.18134  0.21584  1.0000
  S   S367      1.0  0.74999  0.19714  0.22075  1.0000
  S   S368      1.0  0.77577  0.16896  0.19248  1.0000
  C   C2619     1.0  0.91105  0.12341  0.16110  1.0000
  C   C2620     1.0  0.74533  0.04495  0.00529  1.0000
  C   C2621     1.0  0.93211  0.12931  0.15343  1.0000
  H   H2111     1.0  0.87271  0.44706  0.18661  1.0000
  C   C2622     1.0  0.88945  0.45267  0.16632  1.0000
  C   C2623     1.0  0.75447  0.06104  0.03588  1.0000
  C   C2624     1.0  0.78955  0.07525  0.05268  1.0000
  C   C2625     1.0  0.68539  0.02221  0.03155  1.0000
  H   H2112     1.0  0.68381  0.04744  0.14397  1.0000
  C   C2626     1.0  0.91200  0.12236  0.17586  1.0000
  H   H2113     1.0  0.88492  0.99188  0.16424  1.0000
  C   C2627     1.0  0.65877  0.03879  0.02323  1.0000
  C   C2628     1.0  0.77940  0.06489  0.98969  1.0000
  C   C2629     1.0  0.82889  0.14799  0.16875  1.0000
  C   C2630     1.0  0.83299  0.15495  0.18334  1.0000
  C   C2631     1.0  0.81723  0.16185  0.19068  1.0000
  C   C2632     1.0  0.79696  0.16165  0.18355  1.0000
  C   C2633     1.0  0.79311  0.15514  0.16890  1.0000
  C   C2634     1.0  0.80898  0.14843  0.16152  1.0000
  H   H2114     1.0  0.84840  0.15487  0.18903  1.0000
  H   H2115     1.0  0.82042  0.16678  0.20193  1.0000
  H   H2116     1.0  0.77777  0.15530  0.16319  1.0000
  H   H2117     1.0  0.80584  0.14365  0.15026  1.0000
  C   C2635     1.0  0.92722  0.04708  0.15254  1.0000
  C   C2636     1.0  0.93596  0.05010  0.13880  1.0000
  C   C2637     1.0  0.92814  0.06185  0.12874  1.0000
  C   C2638     1.0  0.91145  0.07070  0.13222  1.0000
  C   C2639     1.0  0.90249  0.06741  0.14592  1.0000
  C   C2640     1.0  0.91048  0.05585  0.15603  1.0000
  H   H2118     1.0  0.94890  0.04356  0.13595  1.0000
  H   H2119     1.0  0.93516  0.06420  0.11818  1.0000
  H   H2120     1.0  0.88944  0.07380  0.14873  1.0000
  H   H2121     1.0  0.90358  0.05362  0.16661  1.0000
  H   H2122     1.0  0.98355  0.18645  0.16611  1.0000
  H   H2123     1.0  0.80422  0.07273  0.05769  1.0000
  C   C2641     1.0  0.67725  0.05473  0.01466  1.0000
  C   C2642     1.0  0.95443  0.13444  0.16052  1.0000
  H   H2124     1.0  0.80468  0.11920  0.20461  1.0000
  C   C2643     1.0  0.95766  0.34687  0.10452  1.0000
  C   C2644     1.0  0.96544  0.21564  0.08774  1.0000
  C   C2645     1.0  0.94209  0.20059  0.09313  1.0000
  C   C2646     1.0  0.92206  0.20441  0.08938  1.0000
  C   C2647     1.0  0.92584  0.22364  0.08027  1.0000
  C   C2648     1.0  0.94929  0.23891  0.07504  1.0000
  H   H2125     1.0  0.77068  0.11384  0.21966  1.0000
  H   H2126     1.0  0.93950  0.18601  0.10016  1.0000
  H   H2127     1.0  0.91053  0.22684  0.07730  1.0000
  H   H2128     1.0  0.95186  0.25366  0.06813  1.0000
  H   H2129     1.0  0.87105  0.32577  0.22026  1.0000
  C   C2649     1.0  0.72789  0.02233  0.07961  1.0000
  C   C2650     1.0  0.74830  0.04612  0.08205  1.0000
  C   C2651     1.0  0.76788  0.05011  0.09164  1.0000
  C   C2652     1.0  0.76663  0.02994  0.09887  1.0000
  C   C2653     1.0  0.68390  0.12533  0.20464  1.0000
  H   H2130     1.0  0.71296  0.01969  0.07230  1.0000
  H   H2131     1.0  0.74885  0.06157  0.07650  1.0000
  H   H2132     1.0  0.78150  0.03263  0.10624  1.0000
  C   C2654     1.0  0.96660  0.48002  0.17085  1.0000
  C   C2655     1.0  0.96927  0.23492  0.07872  1.0000
  H   H2133     1.0  0.79886  0.07650  0.98825  1.0000
  C   C2656     1.0  0.94833  0.25608  0.01812  1.0000
  C   C2657     1.0  0.98216  0.30169  0.99608  1.0000
  C   C2658     1.0  0.95913  0.15644  0.06375  1.0000
  H   H2134     1.0  0.95028  0.12416  0.10120  1.0000
  C   C2659     1.0  0.95391  0.38294  0.12191  1.0000
  P   P87       1.0  0.97701  0.20134  0.02999  1.0000
  C   C2660     1.0  0.95475  0.36609  0.09845  1.0000
  H   H2135     1.0  0.96889  0.16826  0.09480  1.0000
  H   H2136     1.0  0.94107  0.46577  0.18780  1.0000
  C   C2661     1.0  0.67913  0.00919  0.10937  1.0000
  C   C2662     1.0  0.72747  0.08613  0.15804  1.0000
  C   C2663     1.0  0.75449  0.06466  0.13649  1.0000
  C   C2664     1.0  0.77414  0.08156  0.14548  1.0000
  C   C2665     1.0  0.79175  0.07533  0.15088  1.0000
  C   C2666     1.0  0.79002  0.05223  0.14729  1.0000
  C   C2667     1.0  0.77075  0.03542  0.13822  1.0000
  C   C2668     1.0  0.75304  0.04155  0.13285  1.0000
  H   H2137     1.0  0.92107  0.13731  0.99459  1.0000
  C   C2669     1.0  0.96289  0.30297  0.98837  1.0000
  C   C2670     1.0  0.72537  0.12340  0.16525  1.0000
  C   C2671     1.0  0.66021  0.00973  0.20678  1.0000
  H   H2138     1.0  0.78013  0.10990  0.12156  1.0000
  S   S369      1.0  0.87594  0.37474  0.22466  1.0000
  C   C2672     1.0  0.94559  0.16513  0.01007  1.0000
  H   H2139     1.0  0.77602  0.09967  0.14827  1.0000
  H   H2140     1.0  0.80714  0.08869  0.15754  1.0000
  H   H2141     1.0  0.80404  0.04768  0.15121  1.0000
  C   C2673     1.0  0.95526  0.13351  0.17539  1.0000
  C   C2674     1.0  0.69565  0.04450  0.21861  1.0000
  C   C2675     1.0  0.76711  0.10075  0.21080  1.0000
  C   C2676     1.0  0.93409  0.12735  0.18301  1.0000
  C   C2677     1.0  0.75755  0.12016  0.09072  1.0000
  C   C2678     1.0  0.72720  0.09167  0.14370  1.0000
  H   H2142     1.0  0.67290  0.16278  0.22631  1.0000
  C   C2679     1.0  0.97537  0.01047  0.23170  1.0000
  C   C2680     1.0  0.86371  0.21030  0.22449  1.0000
  H   H2143     1.0  0.93154  0.16968  0.01367  1.0000
  H   H2144     1.0  0.67834  0.04617  0.19868  1.0000
  C   C2681     1.0  0.87321  0.25939  0.22192  1.0000
  C   C2682     1.0  0.86879  0.24406  0.20964  1.0000
  C   C2683     1.0  0.86371  0.21934  0.21103  1.0000
  P   P88       1.0  0.86626  0.25536  0.19253  1.0000
  C   C2684     1.0  0.86519  0.23456  0.17818  1.0000
  C   C2685     1.0  0.83819  0.25780  0.19292  1.0000
  C   C2686     1.0  0.81561  0.23610  0.19295  1.0000
  C   C2687     1.0  0.79367  0.23738  0.19415  1.0000
  C   C2688     1.0  0.79414  0.26039  0.19564  1.0000
  C   C2689     1.0  0.81656  0.28213  0.19573  1.0000
  C   C2690     1.0  0.83856  0.28089  0.19449  1.0000
  C   C2691     1.0  0.84708  0.22682  0.16710  1.0000
  C   C2692     1.0  0.84668  0.21090  0.15602  1.0000
  C   C2693     1.0  0.86446  0.20282  0.15580  1.0000
  C   C2694     1.0  0.88274  0.21073  0.16664  1.0000
  C   C2695     1.0  0.88329  0.22675  0.17771  1.0000
  C   C2696     1.0  0.89290  0.28450  0.18962  1.0000
  C   C2697     1.0  0.89206  0.29925  0.17872  1.0000
  C   C2698     1.0  0.91276  0.32166  0.17620  1.0000
  C   C2699     1.0  0.93461  0.32917  0.18429  1.0000
  C   C2700     1.0  0.93582  0.31417  0.19485  1.0000
  C   C2701     1.0  0.91505  0.29189  0.19752  1.0000
  Fe  Fe183     1.0  0.88847  0.41604  0.23084  1.0000
  C   C2702     1.0  0.67702  0.00418  0.22903  1.0000
  C   C2703     1.0  0.72678  0.10207  0.16876  1.0000
  C   C2704     1.0  0.95742  0.14046  0.99466  1.0000
  H   H2145     1.0  0.85900  0.20675  0.20183  1.0000
  H   H2146     1.0  0.81503  0.21813  0.19225  1.0000
  H   H2147     1.0  0.77635  0.22046  0.19420  1.0000
  H   H2148     1.0  0.77720  0.26137  0.19710  1.0000
  H   H2149     1.0  0.81696  0.29995  0.19737  1.0000
  H   H2150     1.0  0.85571  0.29796  0.19533  1.0000
  H   H2151     1.0  0.83320  0.23293  0.16696  1.0000
  H   H2152     1.0  0.83234  0.20445  0.14769  1.0000
  H   H2153     1.0  0.86378  0.18999  0.14738  1.0000
  H   H2154     1.0  0.89621  0.20403  0.16652  1.0000
  H   H2155     1.0  0.89762  0.23276  0.18602  1.0000
  H   H2156     1.0  0.87537  0.29346  0.17220  1.0000
  H   H2157     1.0  0.91186  0.33318  0.16792  1.0000
  C   C2705     1.0  0.90498  0.47010  0.15707  1.0000
  C   C2706     1.0  0.73944  0.06472  0.19608  1.0000
  H   H2158     1.0  0.91645  0.28036  0.20560  1.0000
  Fe  Fe184     1.0  0.88348  0.46451  0.23145  1.0000
  H   H2159     1.0  0.95290  0.31980  0.20094  1.0000
  C   C2707     1.0  0.96489  0.13294  0.12276  1.0000
  C   C2708     1.0  0.72437  0.12868  0.15101  1.0000
  C   C2709     1.0  0.69989  0.05458  0.01460  1.0000
  C   C2710     1.0  0.75065  0.08092  0.04063  1.0000
  H   H2160     1.0  0.70969  0.02354  0.99454  1.0000
  H   H2161     1.0  0.72507  0.11769  0.12931  1.0000
  C   C2711     1.0  0.72475  0.08871  0.10356  1.0000
  H   H2162     1.0  0.88088  0.43308  0.16333  1.0000
  H   H2163     1.0  0.95294  0.39716  0.12862  1.0000
  P   P89       1.0  0.73135  0.07275  0.13003  1.0000
  H   H2164     1.0  0.89381  0.11930  0.15559  1.0000
  C   C2712     1.0  0.98200  0.35835  0.05609  1.0000
  H   H2165     1.0  0.68798  0.00920  0.03798  1.0000
  H   H2166     1.0  0.95686  0.36263  0.13946  1.0000
  S   S370      1.0  0.86157  0.48329  0.22220  1.0000
  H   H2167     1.0  0.72354  0.14539  0.14834  1.0000
  P   P90       1.0  0.96139  0.32410  0.09368  1.0000
  C   C2713     1.0  0.96427  0.23864  0.03568  1.0000
  H   H2168     1.0  0.92774  0.14477  0.07693  1.0000
  C   C2714     1.0  0.92754  0.16909  0.06097  1.0000
  S   S371      1.0  0.80725  0.21076  0.22937  1.0000
  H   H2169     1.0  0.93613  0.34384  0.21956  1.0000
  Fe  Fe185     1.0  0.78095  0.22502  0.23546  1.0000
  H   H2170     1.0  0.72899  0.06989  0.16093  1.0000
  C   C2715     1.0  0.78226  0.08819  0.19031  1.0000
  C   C2716     1.0  0.93958  0.14671  0.99932  1.0000
  C   C2717     1.0  0.76661  0.10796  0.11341  1.0000
  H   H2171     1.0  0.93155  0.19319  0.04416  1.0000
  H   H2172     1.0  0.71405  0.06718  0.00796  1.0000
  H   H2173     1.0  0.95339  0.31204  0.99332  1.0000
  C   C2718     1.0  0.74351  0.08075  0.20800  1.0000
  C   C2719     1.0  0.96585  0.22276  0.02517  1.0000
  C   C2720     1.0  0.81464  0.29621  0.23468  1.0000
  H   H2174     1.0  0.83838  0.28345  0.22540  1.0000
  C   C2721     1.0  0.89637  0.48573  0.18355  1.0000
  H   H2175     1.0  0.66875  0.07168  0.22097  1.0000
  C   C2722     1.0  0.78643  0.10409  0.20216  1.0000
  C   C2723     1.0  0.70405  0.03813  0.02295  1.0000
  H   H2176     1.0  0.73555  0.08331  0.03625  1.0000
  H   H2177     1.0  0.95676  0.11366  0.12536  1.0000
  H   H2178     1.0  0.79728  0.09126  0.18350  1.0000
  C   C2724     1.0  0.76612  0.09772  0.05135  1.0000
  C   C2725     1.0  0.70092  0.03077  0.11304  1.0000
  H   H2179     1.0  0.94633  0.24273  0.99650  1.0000
  C   C2726     1.0  0.87307  0.25026  0.23536  1.0000
  H   H2180     1.0  0.73854  0.02822  0.12575  1.0000
  S   S372      1.0  0.97026  0.48919  0.21433  1.0000
  C   C2727     1.0  0.96583  0.34054  0.04603  1.0000
  H   H2181     1.0  0.79379  0.13543  0.10072  1.0000
  C   C2728     1.0  0.98124  0.15246  0.00086  1.0000
  H   H2182     1.0  0.87602  0.27817  0.22110  1.0000
  H   H2183     1.0  0.67394  0.06701  0.00795  1.0000
  C   C2729     1.0  0.96136  0.13887  0.10900  1.0000
  C   C2730     1.0  0.73269  0.10324  0.09171  1.0000
  C   C2731     1.0  0.93724  0.15568  0.06807  1.0000
  C   C2732     1.0  0.96209  0.18475  0.04542  1.0000
  H   H2184     1.0  0.96002  0.33070  0.12421  1.0000
  C   C2733     1.0  0.77056  0.05987  0.00340  1.0000
  H   H2185     1.0  0.95456  0.26758  0.04030  1.0000
  S   S373      1.0  0.97298  0.00535  0.14187  1.0000
  H   H2186     1.0  0.93478  0.12635  0.19445  1.0000
  C   C2734     1.0  0.72956  0.00796  0.02736  1.0000
  P   P91       1.0  0.73337  0.03807  0.02286  1.0000
  C   C2735     1.0  0.93974  0.18337  0.04961  1.0000
  C   C2736     1.0  0.89206  0.26599  0.09575  1.0000
  C   C2737     1.0  0.89601  0.24850  0.10302  1.0000
  C   C2738     1.0  0.91974  0.25416  0.10788  1.0000
  C   C2739     1.0  0.93966  0.27704  0.10519  1.0000
  C   C2740     1.0  0.93600  0.29437  0.09739  1.0000
  C   C2741     1.0  0.91193  0.28895  0.09308  1.0000
  C   C2742     1.0  0.68280  0.03697  0.13431  1.0000
  C   C2743     1.0  0.96241  0.33037  0.07502  1.0000
  C   C2744     1.0  0.67991  0.08823  0.21538  1.0000
  H   H2187     1.0  0.93070  0.12963  0.14198  1.0000
  C   C2745     1.0  0.95986  0.47788  0.18517  1.0000
  C   C2746     1.0  0.85470  0.32359  0.22540  1.0000
  H   H2188     1.0  0.72144  0.04937  0.19350  1.0000
  H   H2189     1.0  0.77770  0.04344  0.03839  1.0000
  H   H2190     1.0  0.95064  0.34652  0.18229  1.0000
  C   C2747     1.0  0.98083  0.00398  0.21828  1.0000
  H   H2191     1.0  0.72569  0.13617  0.17357  1.0000
  C   C2748     1.0  0.94807  0.31757  0.05039  1.0000
  C   C2749     1.0  0.94648  0.31236  0.06481  1.0000
  H   H2192     1.0  0.76290  0.11280  0.05512  1.0000
  H   H2193     1.0  0.91062  0.16859  0.06440  1.0000
  H   H2194     1.0  0.76383  0.13124  0.08149  1.0000
  H   H2195     1.0  0.67782  0.99833  0.09976  1.0000
  H   H2196     1.0  0.87362  0.26160  0.09206  1.0000
  H   H2197     1.0  0.88079  0.23039  0.10476  1.0000
  H   H2198     1.0  0.92274  0.24043  0.11339  1.0000
  C   C2750     1.0  0.83616  0.29951  0.22825  1.0000
  H   H2199     1.0  0.90862  0.30236  0.08745  1.0000
  H   H2200     1.0  0.72803  0.09834  0.17981  1.0000
  C   C2751     1.0  0.85225  0.34484  0.22909  1.0000
  C   C2752     1.0  0.72920  0.03511  0.99330  1.0000
  H   H2201     1.0  0.73838  0.12405  0.20497  1.0000
  C   C2753     1.0  0.72967  0.00222  0.04167  1.0000
  H   H2202     1.0  0.79695  0.10725  0.06611  1.0000
  C   C2754     1.0  0.78543  0.09477  0.05745  1.0000
  C   C2755     1.0  0.95540  0.25512  0.03218  1.0000
  H   H2203     1.0  0.93621  0.30351  0.04250  1.0000
  H   H2204     1.0  0.93340  0.29406  0.06781  1.0000
  H   H2205     1.0  0.71629  0.03646  0.10615  1.0000
  H   H2206     1.0  0.95142  0.39926  0.10242  1.0000
  C   C2756     1.0  0.95074  0.24104  0.00750  1.0000
  H   H2207     1.0  0.72012  0.15041  0.19796  1.0000
  H   H2208     1.0  0.73194  0.01563  0.05009  1.0000
  C   C2757     1.0  0.72677  0.00211  0.08675  1.0000
  C   C2758     1.0  0.95970  0.22459  0.01096  1.0000
  C   C2759     1.0  0.74620  0.00618  0.09646  1.0000
  H   H2209     1.0  0.85915  0.19104  0.22554  1.0000
  H   H2210     1.0  0.71957  0.10129  0.08327  1.0000
  H   H2211     1.0  0.76977  0.01776  0.13512  1.0000
  C   C2760     1.0  0.72529  0.11291  0.14025  1.0000
  H   H2212     1.0  0.96212  0.21372  0.00249  1.0000
  H   H2213     1.0  0.96653  0.14586  0.06917  1.0000
  P   P92       1.0  0.71854  0.07678  0.21918  1.0000
  C   C2761     1.0  0.75876  0.06849  0.18726  1.0000
  H   H2214     1.0  0.94200  0.26928  0.01535  1.0000
  H   H2215     1.0  0.75560  0.05616  0.17805  1.0000
  H   H2216     1.0  0.89555  0.11758  0.18170  1.0000
  C   C2762     1.0  0.66290  0.02268  0.03174  1.0000
  C   C2763     1.0  0.66949  0.10304  0.21103  1.0000
  C   C2764     1.0  0.97163  0.16364  0.10545  1.0000
  H   H2217     1.0  0.78342  0.06765  0.01244  1.0000
  H   H2218     1.0  0.70534  0.07603  0.10421  1.0000
  H   H2219     1.0  0.96774  0.34413  0.03481  1.0000
  C   C2765     1.0  0.92138  0.36000  0.23450  1.0000
  C   C2766     1.0  0.70474  0.09532  0.21301  1.0000
  C   C2767     1.0  0.71904  0.11771  0.20654  1.0000
  C   C2768     1.0  0.70869  0.13271  0.20247  1.0000
  C   C2769     1.0  0.70299  0.04480  0.12555  1.0000
  H   H2220     1.0  0.97227  0.13746  0.18111  1.0000
  C   C2770     1.0  0.95616  0.36352  0.12801  1.0000
  C   C2771     1.0  0.96965  0.17775  0.01607  1.0000
  H   H2221     1.0  0.95777  0.28086  0.10913  1.0000
  C   C2772     1.0  0.98039  0.35325  0.07050  1.0000
  C   C2773     1.0  0.66093  0.01539  0.13057  1.0000
  C   C2774     1.0  0.97143  0.17078  0.05241  1.0000
  C   C2775     1.0  0.69500  0.02906  0.22950  1.0000
  C   C2776     1.0  0.95307  0.38414  0.10715  1.0000
  H   H2222     1.0  0.95395  0.36743  0.08707  1.0000
  H   H2223     1.0  0.67603  0.13725  0.20181  1.0000
  H   H2224     1.0  0.97692  0.01128  0.20880  1.0000
  C   C2777     1.0  0.65931  0.14597  0.23075  1.0000
  C   C2778     1.0  0.95794  0.34549  0.11936  1.0000
  H   H2225     1.0  0.90211  0.99456  0.14056  1.0000
  C   C2779     1.0  0.97844  0.15170  0.13314  1.0000
  H   H2226     1.0  0.98268  0.29153  0.08631  1.0000
  H   H2227     1.0  0.97276  0.10122  0.16882  1.0000
  H   H2228     1.0  0.98076  0.21241  0.09054  1.0000
  C   C2780     1.0  0.65911  0.00150  0.11812  1.0000
  H   H2229     1.0  0.96729  0.02279  0.23242  1.0000
  C   C2781     1.0  0.98419  0.10141  0.16026  1.0000
  S   S374      1.0  0.76246  0.15455  0.23338  1.0000
  H   H2230     1.0  0.97002  0.23832  0.04656  1.0000
  H   H2231     1.0  0.92485  0.37569  0.22811  1.0000
  P   P93       1.0  0.98224  0.14348  0.15092  1.0000
  H   H2232     1.0  0.92727  0.30744  0.23400  1.0000
  C   C2782     1.0  0.88496  0.46052  0.17948  1.0000
  H   H2233     1.0  0.90854  0.46402  0.14689  1.0000
  H   H2234     1.0  0.75190  0.48535  0.22246  1.0000
  C   C2783     1.0  0.74551  0.49019  0.23207  1.0000
  C   C2784     1.0  0.65237  0.00038  0.98839  1.0000
  H   H2235     1.0  0.95276  0.12624  0.98630  1.0000
  C   C2785     1.0  0.65961  0.99453  0.21770  1.0000
  C   C2786     1.0  0.75923  0.09176  0.25669  1.0000
  C   C2787     1.0  0.70622  0.45844  0.30754  1.0000
  S   S375      1.0  0.95635  0.03158  0.32930  1.0000
  Fe  Fe186     1.0  0.87869  0.13340  0.35402  1.0000
  S   S376      1.0  0.87303  0.12803  0.33017  1.0000
  S   S377      1.0  0.91425  0.16199  0.36588  1.0000
  Fe  Fe187     1.0  0.83112  0.08475  0.35888  1.0000
  S   S378      1.0  0.82233  0.07611  0.33544  1.0000
  S   S379      1.0  0.81060  0.06324  0.37802  1.0000
  Fe  Fe188     1.0  0.86289  0.08811  0.33354  1.0000
  S   S380      1.0  0.87524  0.06708  0.31810  1.0000
  Fe  Fe189     1.0  0.83322  0.11666  0.33365  1.0000
  S   S381      1.0  0.80789  0.12831  0.32133  1.0000
  S   S382      1.0  0.87090  0.09394  0.35705  1.0000
  S   S383      1.0  0.83944  0.12466  0.35748  1.0000
  Fe  Fe190     1.0  0.91397  0.45594  0.25499  1.0000
  S   S384      1.0  0.92396  0.45713  0.27874  1.0000
  H   H2236     1.0  0.86576  0.15889  0.38416  1.0000
  S   S385      1.0  0.87418  0.43382  0.24688  1.0000
  Fe  Fe191     1.0  0.79198  0.18487  0.24746  1.0000
  S   S386      1.0  0.76713  0.20054  0.25425  1.0000
  S   S387      1.0  0.82039  0.18029  0.26169  1.0000
  H   H2237     1.0  0.84194  0.09410  0.40628  1.0000
  C   C2788     1.0  0.86348  0.14389  0.44201  1.0000
  H   H2238     1.0  0.86791  0.07809  0.39572  1.0000
  C   C2789     1.0  0.92269  0.13956  0.43515  1.0000
  C   C2790     1.0  0.95739  0.47241  0.30165  1.0000
  C   C2791     1.0  0.66256  0.04855  0.36787  1.0000
  H   H2239     1.0  0.74049  0.00249  0.40354  1.0000
  P   P94       1.0  0.91116  0.22393  0.32046  1.0000
  C   C2792     1.0  0.95504  0.22613  0.43442  1.0000
  H   H2240     1.0  0.95234  0.41280  0.28845  1.0000
  C   C2793     1.0  0.81188  0.14271  0.30468  1.0000
  C   C2794     1.0  0.83315  0.14985  0.29699  1.0000
  C   C2795     1.0  0.83531  0.16109  0.28383  1.0000
  C   C2796     1.0  0.81633  0.16540  0.27817  1.0000
  C   C2797     1.0  0.79514  0.15838  0.28590  1.0000
  C   C2798     1.0  0.79297  0.14715  0.29905  1.0000
  H   H2241     1.0  0.84787  0.14660  0.30114  1.0000
  H   H2242     1.0  0.85179  0.16637  0.27797  1.0000
  H   H2243     1.0  0.78043  0.16166  0.28177  1.0000
  H   H2244     1.0  0.77647  0.14181  0.30489  1.0000
  H   H2245     1.0  0.69199  0.08636  0.36857  1.0000
  S   S388      1.0  0.79035  0.26625  0.23848  1.0000
  C   C2799     1.0  0.93424  0.04192  0.32585  1.0000
  C   C2800     1.0  0.92197  0.03782  0.31259  1.0000
  C   C2801     1.0  0.90454  0.04634  0.31030  1.0000
  C   C2802     1.0  0.89897  0.05882  0.32124  1.0000
  C   C2803     1.0  0.91134  0.06305  0.33450  1.0000
  C   C2804     1.0  0.92886  0.05462  0.33677  1.0000
  H   H2246     1.0  0.92595  0.02816  0.30408  1.0000
  H   H2247     1.0  0.89521  0.04312  0.30001  1.0000
  H   H2248     1.0  0.90723  0.07256  0.34303  1.0000
  H   H2249     1.0  0.93828  0.05792  0.34706  1.0000
  C   C2805     1.0  0.92247  0.32146  0.23776  1.0000
  H   H2250     1.0  0.87972  0.19743  0.42492  1.0000
  C   C2806     1.0  0.93834  0.12897  0.43377  1.0000
  C   C2807     1.0  0.95004  0.24394  0.38214  1.0000
  C   C2808     1.0  0.96104  0.22903  0.38517  1.0000
  C   C2809     1.0  0.94976  0.20401  0.38015  1.0000
  C   C2810     1.0  0.92751  0.19362  0.37193  1.0000
  C   C2811     1.0  0.91672  0.20862  0.36875  1.0000
  C   C2812     1.0  0.92772  0.23348  0.37399  1.0000
  H   H2251     1.0  0.89317  0.18788  0.46854  1.0000
  H   H2252     1.0  0.95845  0.19268  0.38256  1.0000
  H   H2253     1.0  0.90016  0.20116  0.36206  1.0000
  H   H2254     1.0  0.91890  0.24472  0.37170  1.0000
  C   C2813     1.0  0.88806  0.22155  0.29431  1.0000
  H   H2255     1.0  0.73364  0.99272  0.35810  1.0000
  C   C2814     1.0  0.77131  0.02886  0.39210  1.0000
  C   C2815     1.0  0.78123  0.03668  0.37875  1.0000
  C   C2816     1.0  0.76749  0.02345  0.36651  1.0000
  C   C2817     1.0  0.87133  0.99602  0.28171  1.0000
  C   C2818     1.0  0.74787  0.00825  0.39322  1.0000
  H   H2256     1.0  0.78179  0.03888  0.40165  1.0000
  H   H2257     1.0  0.77481  0.02921  0.35617  1.0000
  H   H2258     1.0  0.77200  0.09831  0.43708  1.0000
  H   H2259     1.0  0.87842  0.17988  0.33604  1.0000
  C   C2819     1.0  0.88416  0.37624  0.27486  1.0000
  H   H2260     1.0  0.77467  0.08961  0.26083  1.0000
  H   H2261     1.0  0.69983  0.46133  0.27185  1.0000
  C   C2820     1.0  0.73364  0.05748  0.36878  1.0000
  C   C2821     1.0  0.87076  0.38941  0.27499  1.0000
  C   C2822     1.0  0.98179  0.21097  0.47340  1.0000
  H   H2262     1.0  0.90300  0.12816  0.43344  1.0000
  C   C2823     1.0  0.65717  0.08465  0.36311  1.0000
  C   C2824     1.0  0.90447  0.33697  0.25556  1.0000
  H   H2263     1.0  0.70820  0.03613  0.23842  1.0000
  H   H2264     1.0  0.93078  0.10937  0.43099  1.0000
  C   C2825     1.0  0.93245  0.16488  0.43866  1.0000
  H   H2265     1.0  0.91922  0.21561  0.40421  1.0000
  H   H2266     1.0  0.97815  0.23675  0.39146  1.0000
  C   C2826     1.0  0.67243  0.07429  0.36672  1.0000
  C   C2827     1.0  0.67643  0.99309  0.35659  1.0000
  H   H2267     1.0  0.75181  0.48963  0.26791  1.0000
  H   H2268     1.0  0.84397  0.00735  0.28654  1.0000
  H   H2269     1.0  0.82841  0.21044  0.40176  1.0000
  H   H2270     1.0  0.69123  0.43088  0.29028  1.0000
  C   C2828     1.0  0.86957  0.19138  0.33461  1.0000
  H   H2271     1.0  0.69119  0.05307  0.34340  1.0000
  H   H2272     1.0  0.88026  0.40944  0.27646  1.0000
  P   P95       1.0  0.68277  0.03551  0.37229  1.0000
  H   H2273     1.0  0.90401  0.38644  0.27627  1.0000
  C   C2829     1.0  0.71740  0.48373  0.31139  1.0000
  C   C2830     1.0  0.87747  0.18507  0.43338  1.0000
  C   C2831     1.0  0.87555  0.09779  0.39826  1.0000
  H   H2274     1.0  0.92008  0.36864  0.32103  1.0000
  H   H2275     1.0  0.83197  0.18066  0.41755  1.0000
  C   C2832     1.0  0.88617  0.22974  0.28089  1.0000
  H   H2276     1.0  0.94477  0.45511  0.30607  1.0000
  H   H2277     1.0  0.88807  0.34827  0.30182  1.0000
  H   H2278     1.0  0.81313  0.34138  0.26927  1.0000
  H   H2279     1.0  0.94054  0.19702  0.41779  1.0000
  C   C2833     1.0  0.83349  0.19714  0.33729  1.0000
  H   H2280     1.0  0.84290  0.21408  0.37717  1.0000
  C   C2834     1.0  0.72941  0.10656  0.25989  1.0000
  H   H2281     1.0  0.77285  0.07510  0.36600  1.0000
  H   H2282     1.0  0.72175  0.11601  0.26637  1.0000
  C   C2835     1.0  0.92957  0.22480  0.41398  1.0000
  C   C2836     1.0  0.95800  0.24965  0.43844  1.0000
  C   C2837     1.0  0.85759  0.26415  0.28838  1.0000
  C   C2838     1.0  0.84087  0.24977  0.27736  1.0000
  C   C2839     1.0  0.83899  0.26086  0.26499  1.0000
  C   C2840     1.0  0.85393  0.28624  0.26358  1.0000
  C   C2841     1.0  0.87067  0.30090  0.27460  1.0000
  C   C2842     1.0  0.87247  0.28964  0.28703  1.0000
  P   P96       1.0  0.88984  0.33368  0.27232  1.0000
  H   H2283     1.0  0.92012  0.17280  0.43980  1.0000
  C   C2843     1.0  0.87206  0.35031  0.27263  1.0000
  C   C2844     1.0  0.84629  0.33783  0.27080  1.0000
  H   H2284     1.0  0.91119  0.10678  0.39036  1.0000
  H   H2285     1.0  0.90468  0.37153  0.25063  1.0000
  H   H2286     1.0  0.93254  0.20317  0.34078  1.0000
  C   C2845     1.0  0.92503  0.36433  0.31075  1.0000
  C   C2846     1.0  0.85654  0.00341  0.33742  1.0000
  H   H2287     1.0  0.69987  0.02711  0.46949  1.0000
  C   C2847     1.0  0.91328  0.34742  0.28646  1.0000
  C   C2848     1.0  0.93795  0.35376  0.28414  1.0000
  H   H2288     1.0  0.96955  0.25976  0.44765  1.0000
  C   C2849     1.0  0.89990  0.11390  0.39527  1.0000
  H   H2289     1.0  0.82927  0.23001  0.27839  1.0000
  H   H2290     1.0  0.85223  0.29456  0.25395  1.0000
  H   H2291     1.0  0.88529  0.30036  0.29568  1.0000
  H   H2292     1.0  0.83626  0.31796  0.26898  1.0000
  H   H2293     1.0  0.94907  0.41830  0.26272  1.0000
  C   C2850     1.0  0.66694  0.13359  0.24032  1.0000
  C   C2851     1.0  0.94744  0.27962  0.35105  1.0000
  C   C2852     1.0  0.94953  0.37062  0.30836  1.0000
  C   C2853     1.0  0.93218  0.24800  0.41824  1.0000
  H   H2294     1.0  0.96112  0.29737  0.45811  1.0000
  H   H2295     1.0  0.94346  0.35016  0.27389  1.0000
  C   C2854     1.0  0.91843  0.16404  0.30542  1.0000
  H   H2296     1.0  0.66495  0.10450  0.36217  1.0000
  C   C2855     1.0  0.94877  0.22114  0.46885  1.0000
  H   H2297     1.0  0.72901  0.07575  0.33018  1.0000
  C   C2856     1.0  0.92900  0.26173  0.34193  1.0000
  C   C2857     1.0  0.87364  0.15422  0.45553  1.0000
  C   C2858     1.0  0.75327  0.07714  0.34736  1.0000
  C   C2859     1.0  0.73024  0.07078  0.34100  1.0000
  C   C2860     1.0  0.70891  0.05800  0.34854  1.0000
  C   C2861     1.0  0.71049  0.05167  0.36260  1.0000
  C   C2862     1.0  0.88550  0.17992  0.45801  1.0000
  C   C2863     1.0  0.69015  0.03982  0.39122  1.0000
  C   C2864     1.0  0.91800  0.19823  0.31906  1.0000
  C   C2865     1.0  0.90543  0.25143  0.27617  1.0000
  C   C2866     1.0  0.69960  0.04439  0.42079  1.0000
  C   C2867     1.0  0.70162  0.02597  0.41272  1.0000
  C   C2868     1.0  0.69697  0.02373  0.39802  1.0000
  H   H2298     1.0  0.76983  0.08704  0.34149  1.0000
  C   C2869     1.0  0.68706  0.01086  0.47476  1.0000
  C   C2870     1.0  0.70496  0.46780  0.28285  1.0000
  C   C2871     1.0  0.84519  0.37688  0.27299  1.0000
  S   S389      1.0  0.69866  0.14443  0.24574  1.0000
  H   H2299     1.0  0.70263  0.04562  0.43224  1.0000
  H   H2300     1.0  0.70627  0.01301  0.41792  1.0000
  C   C2872     1.0  0.97932  0.48868  0.30942  1.0000
  C   C2873     1.0  0.94608  0.22282  0.48347  1.0000
  H   H2301     1.0  0.87227  0.14230  0.46412  1.0000
  H   H2302     1.0  0.92402  0.25679  0.41175  1.0000
  C   C2874     1.0  0.83668  0.19925  0.39802  1.0000
  C   C2875     1.0  0.88761  0.19534  0.44691  1.0000
  H   H2303     1.0  0.85688  0.03668  0.34585  1.0000
  H   H2304     1.0  0.94948  0.27897  0.43339  1.0000
  H   H2305     1.0  0.75778  0.07419  0.23640  1.0000
  C   C2876     1.0  0.94764  0.28589  0.47907  1.0000
  H   H2306     1.0  0.81626  0.11043  0.39233  1.0000
  H   H2307     1.0  0.97503  0.37044  0.29321  1.0000
  H   H2308     1.0  0.69208  0.00512  0.35065  1.0000
  C   C2877     1.0  0.90946  0.13934  0.39818  1.0000
  H   H2309     1.0  0.90747  0.30321  0.25695  1.0000
  C   C2878     1.0  0.97178  0.28414  0.35017  1.0000
  C   C2879     1.0  0.69338  0.06090  0.41410  1.0000
  C   C2880     1.0  0.83891  0.18251  0.40696  1.0000
  C   C2881     1.0  0.95188  0.47816  0.28812  1.0000
  C   C2882     1.0  0.66808  0.00264  0.36769  1.0000
  H   H2310     1.0  0.92815  0.15188  0.39550  1.0000
  H   H2311     1.0  0.75676  0.11041  0.27586  1.0000
  H   H2312     1.0  0.87788  0.24558  0.32092  1.0000
  H   H2313     1.0  0.83491  0.38720  0.27284  1.0000
  C   C2883     1.0  0.68873  0.05871  0.39937  1.0000
  C   C2884     1.0  0.86475  0.15923  0.43092  1.0000
  H   H2314     1.0  0.87546  0.00481  0.27162  1.0000
  C   C2885     1.0  0.84572  0.18310  0.33928  1.0000
  C   C2886     1.0  0.89452  0.14875  0.40372  1.0000
  S   S390      1.0  0.97355  0.01076  0.26076  1.0000
  P   P97       1.0  0.97033  0.21266  0.44485  1.0000
  C   C2887     1.0  0.93461  0.17317  0.32973  1.0000
  C   C2888     1.0  0.83296  0.35110  0.27101  1.0000
  H   H2315     1.0  0.92979  0.28450  0.47656  1.0000
  H   H2316     1.0  0.89713  0.21531  0.44876  1.0000
  H   H2317     1.0  0.81515  0.13063  0.43651  1.0000
  H   H2318     1.0  0.85438  0.12393  0.44022  1.0000
  H   H2319     1.0  0.87284  0.20478  0.29784  1.0000
  H   H2320     1.0  0.90388  0.18698  0.29728  1.0000
  H   H2321     1.0  0.93689  0.22457  0.46169  1.0000
  C   C2889     1.0  0.93486  0.24823  0.33179  1.0000
  H   H2322     1.0  0.86082  0.18773  0.36848  1.0000
  S   S391      1.0  0.92202  0.48750  0.24078  1.0000
  C   C2890     1.0  0.85355  0.99737  0.29009  1.0000
  H   H2323     1.0  0.90190  0.16857  0.40535  1.0000
  C   C2891     1.0  0.86069  0.10709  0.40408  1.0000
  C   C2892     1.0  0.95597  0.36531  0.29507  1.0000
  H   H2324     1.0  0.73531  0.05184  0.37934  1.0000
  C   C2893     1.0  0.96680  0.21541  0.46369  1.0000
  C   C2894     1.0  0.84480  0.20129  0.38417  1.0000
  C   C2895     1.0  0.92949  0.15889  0.31705  1.0000
  C   C2896     1.0  0.75495  0.07047  0.36122  1.0000
  H   H2325     1.0  0.69828  0.00911  0.39199  1.0000
  H   H2326     1.0  0.93338  0.14333  0.31641  1.0000
  S   S392      1.0  0.96303  0.27544  0.38846  1.0000
  C   C2897     1.0  0.94658  0.26052  0.43040  1.0000
  H   H2327     1.0  0.90385  0.25777  0.26579  1.0000
  H   H2328     1.0  0.91389  0.15250  0.29573  1.0000
  C   C2898     1.0  0.85513  0.18660  0.37929  1.0000
  C   C2899     1.0  0.90696  0.35278  0.29986  1.0000
  H   H2329     1.0  0.85898  0.25545  0.29795  1.0000
  H   H2330     1.0  0.75090  0.07185  0.41544  1.0000
  H   H2331     1.0  0.68370  0.07153  0.39449  1.0000
  H   H2332     1.0  0.82006  0.01419  0.36009  1.0000
  H   H2333     1.0  0.77319  0.07833  0.39315  1.0000
  C   C2900     1.0  0.78181  0.10094  0.42736  1.0000
  C   C2901     1.0  0.76984  0.08613  0.41518  1.0000
  C   C2902     1.0  0.78233  0.08978  0.40260  1.0000
  C   C2903     1.0  0.80688  0.10789  0.40221  1.0000
  C   C2904     1.0  0.81939  0.12216  0.41453  1.0000
  C   C2905     1.0  0.80645  0.11908  0.42703  1.0000
  P   P98       1.0  0.85107  0.14554  0.41361  1.0000
  C   C2906     1.0  0.86995  0.13275  0.40659  1.0000
  C   C2907     1.0  0.84989  0.16817  0.40223  1.0000
  C   C2908     1.0  0.85785  0.17019  0.38828  1.0000
  C   C2909     1.0  0.73015  0.08665  0.23733  1.0000
  H   H2334     1.0  0.82574  0.24985  0.25651  1.0000
  C   C2910     1.0  0.81224  0.31744  0.23840  1.0000
  C   C2911     1.0  0.90938  0.23481  0.30308  1.0000
  H   H2335     1.0  0.81473  0.19016  0.34055  1.0000
  H   H2336     1.0  0.72218  0.48989  0.32246  1.0000
  C   C2912     1.0  0.74916  0.10352  0.26519  1.0000
  C   C2913     1.0  0.97354  0.16899  0.43957  1.0000
  C   C2914     1.0  0.90983  0.35754  0.24737  1.0000
  C   C2915     1.0  0.92879  0.19266  0.33076  1.0000
  C   C2916     1.0  0.86911  0.22816  0.32612  1.0000
  H   H2337     1.0  0.83631  0.16533  0.34404  1.0000
  C   C2917     1.0  0.88135  0.21389  0.32785  1.0000
  C   C2918     1.0  0.94146  0.21416  0.42182  1.0000
  C   C2919     1.0  0.92667  0.26486  0.28486  1.0000
  H   H2338     1.0  0.97766  0.48329  0.34706  1.0000
  H   H2339     1.0  0.94529  0.26718  0.30483  1.0000
  H   H2340     1.0  0.69185  0.07520  0.42038  1.0000
  Fe  Fe192     1.0  0.97732  0.99915  0.28313  1.0000
  H   H2341     1.0  0.91021  0.25802  0.34320  1.0000
  H   H2342     1.0  0.96355  0.37977  0.31680  1.0000
  C   C2920     1.0  0.69997  0.45049  0.29328  1.0000
  C   C2921     1.0  0.91110  0.31904  0.25071  1.0000
  H   H2343     1.0  0.79573  0.31525  0.24337  1.0000
  C   C2922     1.0  0.91267  0.18360  0.30639  1.0000
  H   H2344     1.0  0.86961  0.21922  0.27422  1.0000
  C   C2923     1.0  0.95800  0.17995  0.44041  1.0000
  C   C2924     1.0  0.96538  0.29310  0.46852  1.0000
  C   C2925     1.0  0.84526  0.21978  0.33080  1.0000
  Fe  Fe193     1.0  0.73799  0.17167  0.23900  1.0000
  H   H2345     1.0  0.83568  0.23057  0.32916  1.0000
  H   H2346     1.0  0.94248  0.16872  0.33892  1.0000
  Fe  Fe194     1.0  0.96693  0.00930  0.31361  1.0000
  H   H2347     1.0  0.87252  0.01342  0.33124  1.0000
  H   H2348     1.0  0.94279  0.28929  0.35929  1.0000
  C   C2926     1.0  0.73414  0.99504  0.38097  1.0000
  C   C2927     1.0  0.71981  0.09799  0.24607  1.0000
  H   H2349     1.0  0.70235  0.44500  0.31561  1.0000
  H   H2350     1.0  0.66951  0.48136  0.27480  1.0000
  H   H2351     1.0  0.70465  0.10077  0.24219  1.0000
  H   H2352     1.0  0.87567  0.26187  0.24479  1.0000
  C   C2928     1.0  0.74412  0.00276  0.36764  1.0000
  C   C2929     1.0  0.95954  0.25349  0.33065  1.0000
  C   C2930     1.0  0.96373  0.14364  0.43611  1.0000
  C   C2931     1.0  0.92870  0.25657  0.29827  1.0000
  C   C2932     1.0  0.84772  0.01659  0.34575  1.0000
  H   H2353     1.0  0.76487  0.47723  0.24590  1.0000
  H   H2354     1.0  0.86721  0.21826  0.24705  1.0000
  H   H2355     1.0  0.94163  0.28166  0.28120  1.0000
  C   C2933     1.0  0.75271  0.48549  0.24531  1.0000
  H   H2356     1.0  0.93267  0.99752  0.35572  1.0000
  H   H2357     1.0  0.97584  0.13535  0.43526  1.0000
  C   C2934     1.0  0.97787  0.27123  0.33989  1.0000
  S   S393      1.0  0.92768  0.43685  0.23968  1.0000
  C   C2935     1.0  0.98027  0.00121  0.24418  1.0000
  C   C2936     1.0  0.96553  0.43087  0.26890  1.0000
  H   H2358     1.0  0.82851  0.35755  0.23852  1.0000
  H   H2359     1.0  0.96453  0.24337  0.32290  1.0000
  C   C2937     1.0  0.74970  0.08321  0.24284  1.0000
  C   C2938     1.0  0.82696  0.00390  0.35372  1.0000
  H   H2360     1.0  0.89478  0.99606  0.34590  1.0000
  H   H2361     1.0  0.97823  0.48261  0.37332  1.0000
  C   C2939     1.0  0.96741  0.42768  0.28339  1.0000
  H   H2362     1.0  0.65423  0.10198  0.25342  1.0000
  C   C2940     1.0  0.86833  0.22572  0.23665  1.0000
  H   H2363     1.0  0.98345  0.48387  0.31971  1.0000
  H   H2364     1.0  0.67651  0.99242  0.23753  1.0000
  H   H2365     1.0  0.98393  0.37116  0.47527  1.0000
  H   H2366     1.0  0.65144  0.00518  0.42596  1.0000
  H   H2367     1.0  0.96955  0.39999  0.48517  1.0000
  H   H2368     1.0  0.98263  0.45279  0.25121  1.0000
  C   C2941     1.0  0.83087  0.34154  0.23568  1.0000
  Fe  Fe195     1.0  0.72257  0.07262  0.54716  1.0000
  S   S394      1.0  0.68229  0.05655  0.53975  1.0000
  S   S395      1.0  0.74927  0.11351  0.54308  1.0000
  Fe  Fe196     1.0  0.71319  0.02490  0.56178  1.0000
  S   S396      1.0  0.67303  0.00610  0.55553  1.0000
  Fe  Fe197     1.0  0.68477  0.02154  0.53385  1.0000
  H   H2369     1.0  0.69972  0.31525  0.68516  1.0000
  Fe  Fe198     1.0  0.67328  0.04218  0.56180  1.0000
  C   C2942     1.0  0.97427  0.17236  0.62067  1.0000
  S   S397      1.0  0.72532  0.03844  0.53989  1.0000
  S   S398      1.0  0.71319  0.06018  0.56939  1.0000
  Fe  Fe199     1.0  0.89663  0.21657  0.54870  1.0000
  S   S399      1.0  0.92142  0.23796  0.56769  1.0000
  S   S400      1.0  0.86699  0.17655  0.55217  1.0000
  Fe  Fe200     1.0  0.92738  0.25849  0.52865  1.0000
  S   S401      1.0  0.95331  0.28239  0.54655  1.0000
  S   S402      1.0  0.92917  0.27074  0.50555  1.0000
  Fe  Fe201     1.0  0.95303  0.24727  0.55355  1.0000
  H   H2370     1.0  0.90693  0.46380  0.71136  1.0000
  Fe  Fe202     1.0  0.91951  0.27147  0.55947  1.0000
  S   S403      1.0  0.91517  0.29679  0.57671  1.0000
  S   S404      1.0  0.92869  0.22389  0.53491  1.0000
  S   S405      1.0  0.89323  0.24948  0.54118  1.0000
  Fe  Fe203     1.0  0.89535  0.46503  0.60546  1.0000
  S   S406      1.0  0.88424  0.46125  0.62823  1.0000
  Fe  Fe204     1.0  0.88244  0.40871  0.60208  1.0000
  S   S407      1.0  0.86996  0.40170  0.62465  1.0000
  S   S408      1.0  0.88057  0.38090  0.58411  1.0000
  Fe  Fe205     1.0  0.85108  0.42514  0.62072  1.0000
  S   S409      1.0  0.81245  0.42000  0.62573  1.0000
  Fe  Fe206     1.0  0.90384  0.43828  0.63067  1.0000
  S   S410      1.0  0.93130  0.44063  0.64845  1.0000
  S   S411      1.0  0.86151  0.43013  0.59776  1.0000
  S   S412      1.0  0.91693  0.44386  0.60827  1.0000
  S   S413      1.0  0.73335  0.00903  0.57530  1.0000
  S   S414      1.0  0.95143  0.99422  0.67722  1.0000
  C   C2943     1.0  0.93115  0.15152  0.57252  1.0000
  H   H2371     1.0  0.85789  0.39865  0.56001  1.0000
  Fe  Fe207     1.0  0.67476  0.33587  0.65643  1.0000
  S   S415      1.0  0.71414  0.34086  0.65450  1.0000
  H   H2372     1.0  0.68329  0.16242  0.62943  1.0000
  H   H2373     1.0  0.66054  0.26641  0.68207  1.0000
  C   C2944     1.0  0.94856  0.46293  0.66243  1.0000
  C   C2945     1.0  0.88016  0.33019  0.52846  1.0000
  H   H2374     1.0  0.77452  0.45950  0.59458  1.0000
  C   C2946     1.0  0.65335  0.14017  0.57966  1.0000
  C   C2947     1.0  0.78523  0.39739  0.63357  1.0000
  C   C2948     1.0  0.76413  0.40085  0.63355  1.0000
  C   C2949     1.0  0.74223  0.38377  0.63975  1.0000
  C   C2950     1.0  0.74109  0.36293  0.64617  1.0000
  C   C2951     1.0  0.76219  0.35947  0.64619  1.0000
  C   C2952     1.0  0.78404  0.37647  0.63992  1.0000
  H   H2375     1.0  0.76471  0.41690  0.62870  1.0000
  H   H2376     1.0  0.72628  0.38680  0.63961  1.0000
  H   H2377     1.0  0.76164  0.34350  0.65112  1.0000
  H   H2378     1.0  0.80001  0.37347  0.64008  1.0000
  H   H2379     1.0  0.67944  0.37734  0.71917  1.0000
  C   C2953     1.0  0.80844  0.45554  0.53385  1.0000
  H   H2380     1.0  0.78692  0.44664  0.51416  1.0000
  C   C2954     1.0  0.90514  0.31994  0.57845  1.0000
  C   C2955     1.0  0.90926  0.33326  0.59157  1.0000
  C   C2956     1.0  0.90203  0.35195  0.59350  1.0000
  C   C2957     1.0  0.89041  0.35761  0.58233  1.0000
  C   C2958     1.0  0.88614  0.34417  0.56922  1.0000
  C   C2959     1.0  0.89342  0.32550  0.56728  1.0000
  H   H2381     1.0  0.91825  0.32919  0.60033  1.0000
  H   H2382     1.0  0.90544  0.36193  0.60367  1.0000
  H   H2383     1.0  0.87708  0.34820  0.56049  1.0000
  H   H2384     1.0  0.88989  0.31535  0.55717  1.0000
  H   H2385     1.0  0.65965  0.13203  0.55818  1.0000
  H   H2386     1.0  0.87262  0.42209  0.72621  1.0000
  C   C2960     1.0  0.94383  0.48245  0.66643  1.0000
  H   H2387     1.0  0.93281  0.40112  0.69691  1.0000
  H   H2388     1.0  0.69649  0.02948  0.49566  1.0000
  C   C2961     1.0  0.95218  0.99715  0.73358  1.0000
  C   C2962     1.0  0.78203  0.13077  0.54575  1.0000
  C   C2963     1.0  0.79432  0.15563  0.54182  1.0000
  C   C2964     1.0  0.82019  0.16994  0.54368  1.0000
  C   C2965     1.0  0.83422  0.15959  0.54952  1.0000
  C   C2966     1.0  0.82191  0.13481  0.55354  1.0000
  C   C2967     1.0  0.79607  0.12050  0.55167  1.0000
  H   H2389     1.0  0.78378  0.16382  0.53716  1.0000
  H   H2390     1.0  0.82930  0.18886  0.54049  1.0000
  H   H2391     1.0  0.83246  0.12653  0.55807  1.0000
  H   H2392     1.0  0.78702  0.10148  0.55477  1.0000
  C   C2968     1.0  0.76944  0.41849  0.52928  1.0000
  C   C2969     1.0  0.97693  0.48583  0.62092  1.0000
  C   C2970     1.0  0.96717  0.46040  0.67004  1.0000
  H   H2393     1.0  0.88965  0.48958  0.56492  1.0000
  C   C2971     1.0  0.92682  0.41449  0.70019  1.0000
  C   C2972     1.0  0.74064  0.17067  0.57114  1.0000
  C   C2973     1.0  0.72928  0.17602  0.58239  1.0000
  C   C2974     1.0  0.74158  0.19869  0.59011  1.0000
  C   C2975     1.0  0.76533  0.21602  0.58663  1.0000
  C   C2976     1.0  0.77687  0.21083  0.57531  1.0000
  C   C2977     1.0  0.76426  0.18802  0.56756  1.0000
  P   P99       1.0  0.80774  0.23274  0.57076  1.0000
  C   C2978     1.0  0.81650  0.26338  0.57846  1.0000
  C   C2979     1.0  0.82952  0.22285  0.57716  1.0000
  C   C2980     1.0  0.82292  0.19755  0.57750  1.0000
  C   C2981     1.0  0.84018  0.19013  0.58196  1.0000
  C   C2982     1.0  0.86411  0.20783  0.58613  1.0000
  C   C2983     1.0  0.87083  0.23301  0.58584  1.0000
  C   C2984     1.0  0.85378  0.24053  0.58117  1.0000
  C   C2985     1.0  0.81803  0.28252  0.56998  1.0000
  C   C2986     1.0  0.82612  0.30642  0.57599  1.0000
  C   C2987     1.0  0.83286  0.31144  0.59044  1.0000
  C   C2988     1.0  0.83136  0.29253  0.59895  1.0000
  C   C2989     1.0  0.82315  0.26858  0.59302  1.0000
  C   C2990     1.0  0.80836  0.23370  0.55165  1.0000
  C   C2991     1.0  0.78808  0.23221  0.54370  1.0000
  C   C2992     1.0  0.78835  0.23242  0.52887  1.0000
  C   C2993     1.0  0.80885  0.23418  0.52190  1.0000
  C   C2994     1.0  0.82916  0.23592  0.52976  1.0000
  C   C2995     1.0  0.82897  0.23580  0.54459  1.0000
  H   H2394     1.0  0.73127  0.15297  0.56520  1.0000
  H   H2395     1.0  0.71100  0.16257  0.58517  1.0000
  H   H2396     1.0  0.73273  0.20277  0.59883  1.0000
  H   H2397     1.0  0.77447  0.23339  0.59278  1.0000
  H   H2398     1.0  0.77274  0.18348  0.55879  1.0000
  H   H2399     1.0  0.80478  0.18340  0.57398  1.0000
  H   H2400     1.0  0.83523  0.17062  0.58169  1.0000
  H   H2401     1.0  0.87763  0.20204  0.58919  1.0000
  H   H2402     1.0  0.88950  0.24682  0.58886  1.0000
  H   H2403     1.0  0.85985  0.26019  0.58047  1.0000
  H   H2404     1.0  0.81347  0.27930  0.55871  1.0000
  H   H2405     1.0  0.82782  0.32134  0.56942  1.0000
  H   H2406     1.0  0.83973  0.33015  0.59497  1.0000
  H   H2407     1.0  0.83704  0.29662  0.61010  1.0000
  H   H2408     1.0  0.82253  0.25423  0.59972  1.0000
  H   H2409     1.0  0.77203  0.23071  0.54896  1.0000
  H   H2410     1.0  0.77253  0.23093  0.52277  1.0000
  H   H2411     1.0  0.80894  0.23399  0.51040  1.0000
  H   H2412     1.0  0.84496  0.23698  0.52437  1.0000
  H   H2413     1.0  0.84475  0.23691  0.55051  1.0000
  H   H2414     1.0  0.71963  0.20194  0.63701  1.0000
  C   C2996     1.0  0.92600  0.06627  0.67672  1.0000
  C   C2997     1.0  0.67577  0.37935  0.73015  1.0000
  C   C2998     1.0  0.89320  0.29908  0.52401  1.0000
  C   C2999     1.0  0.67130  0.11359  0.57331  1.0000
  H   H2415     1.0  0.75649  0.39371  0.54649  1.0000
  C   C3000     1.0  0.82563  0.46762  0.57723  1.0000
  H   H2416     1.0  0.92275  0.09716  0.68598  1.0000
  C   C3001     1.0  0.65640  0.38444  0.73309  1.0000
  H   H2417     1.0  0.65746  0.42916  0.62424  1.0000
  H   H2418     1.0  0.82265  0.47272  0.53011  1.0000
  C   C3002     1.0  0.91059  0.44230  0.69409  1.0000
  C   C3003     1.0  0.66142  0.12904  0.56932  1.0000
  H   H2419     1.0  0.66456  0.19996  0.59711  1.0000
  C   C3004     1.0  0.96581  0.36776  0.51474  1.0000
  S   S416      1.0  0.66464  0.36180  0.66862  1.0000
  H   H2420     1.0  0.91776  0.13177  0.61139  1.0000
  C   C3005     1.0  0.66873  0.99153  0.49669  1.0000
  H   H2421     1.0  0.71083  0.35954  0.68513  1.0000
  C   C3006     1.0  0.97603  0.41587  0.53788  1.0000
  H   H2422     1.0  0.67694  0.10439  0.56530  1.0000
  C   C3007     1.0  0.97921  0.21292  0.48803  1.0000
  H   H2423     1.0  0.93479  0.03805  0.66876  1.0000
  H   H2424     1.0  0.90216  0.42633  0.56517  1.0000
  H   H2425     1.0  0.89047  0.14409  0.59801  1.0000
  C   C3008     1.0  0.77100  0.41095  0.54294  1.0000
  C   C3009     1.0  0.96386  0.06498  0.68267  1.0000
  C   C3010     1.0  0.89868  0.45978  0.56477  1.0000
  H   H2426     1.0  0.96602  0.45138  0.56280  1.0000
  C   C3011     1.0  0.91763  0.31666  0.52723  1.0000
  C   C3012     1.0  0.67631  0.20019  0.60592  1.0000
  H   H2427     1.0  0.90412  0.45047  0.68607  1.0000
  H   H2428     1.0  0.80200  0.46409  0.61543  1.0000
  C   C3013     1.0  0.81014  0.44811  0.54761  1.0000
  C   C3014     1.0  0.97084  0.38652  0.49187  1.0000
  C   C3015     1.0  0.97240  0.08709  0.69099  1.0000
  H   H2429     1.0  0.93590  0.41405  0.72219  1.0000
  C   C3016     1.0  0.84137  0.47155  0.58911  1.0000
  C   C3017     1.0  0.70874  0.35065  0.69517  1.0000
  C   C3018     1.0  0.89097  0.00752  0.72234  1.0000
  C   C3019     1.0  0.65475  0.13557  0.59408  1.0000
  C   C3020     1.0  0.95363  0.06239  0.61694  1.0000
  C   C3021     1.0  0.87441  0.30569  0.52488  1.0000
  C   C3022     1.0  0.66555  0.44896  0.62273  1.0000
  C   C3023     1.0  0.86478  0.41856  0.56053  1.0000
  C   C3024     1.0  0.84854  0.42849  0.55899  1.0000
  C   C3025     1.0  0.94084  0.05475  0.67550  1.0000
  C   C3026     1.0  0.97294  0.35471  0.54409  1.0000
  H   H2430     1.0  0.97278  0.18038  0.61085  1.0000
  H   H2431     1.0  0.73360  0.01558  0.60987  1.0000
  C   C3027     1.0  0.98095  0.18707  0.63327  1.0000
  C   C3028     1.0  0.95274  0.28050  0.49281  1.0000
  C   C3029     1.0  0.94735  0.41151  0.56129  1.0000
  C   C3030     1.0  0.97852  0.43713  0.54535  1.0000
  H   H2432     1.0  0.70079  0.45680  0.63208  1.0000
  C   C3031     1.0  0.70241  0.32556  0.69518  1.0000
  C   C3032     1.0  0.92358  0.34127  0.53093  1.0000
  H   H2433     1.0  0.95690  0.39714  0.51000  1.0000
  C   C3033     1.0  0.91232  0.44984  0.70841  1.0000
  H   H2434     1.0  0.79215  0.41955  0.56265  1.0000
  P   P100      1.0  0.95549  0.36447  0.53270  1.0000
  H   H2435     1.0  0.91682  0.41913  0.67883  1.0000
  H   H2436     1.0  0.93641  0.40966  0.57048  1.0000
  H   H2437     1.0  0.93246  0.22773  0.48743  1.0000
  C   C3034     1.0  0.96160  0.99291  0.72091  1.0000
  C   C3035     1.0  0.69472  0.99167  0.61147  1.0000
  C   C3036     1.0  0.96401  0.38508  0.50601  1.0000
  Fe  Fe208     1.0  0.97519  0.00996  0.65847  1.0000
  H   H2438     1.0  0.96738  0.07722  0.72188  1.0000
  C   C3037     1.0  0.90469  0.34805  0.53115  1.0000
  C   C3038     1.0  0.70317  0.32745  0.72094  1.0000
  C   C3039     1.0  0.67350  0.10958  0.58766  1.0000
  C   C3040     1.0  0.97604  0.28261  0.49585  1.0000
  C   C3041     1.0  0.98098  0.47717  0.68142  1.0000
  C   C3042     1.0  0.91319  0.05651  0.60973  1.0000
  C   C3043     1.0  0.92343  0.08130  0.60608  1.0000
  P   P101      1.0  0.96253  0.12937  0.60418  1.0000
  H   H2439     1.0  0.96360  0.11571  0.69850  1.0000
  C   C3044     1.0  0.96267  0.34232  0.55641  1.0000
  H   H2440     1.0  0.88896  0.28041  0.52055  1.0000
  H   H2441     1.0  0.91139  0.08816  0.60190  1.0000
  C   C3045     1.0  0.76182  0.40200  0.72777  1.0000
  C   C3046     1.0  0.80873  0.46585  0.60478  1.0000
  C   C3047     1.0  0.92857  0.42195  0.71453  1.0000
  C   C3048     1.0  0.85726  0.45423  0.56036  1.0000
  H   H2442     1.0  0.71725  0.38365  0.70772  1.0000
  C   C3049     1.0  0.94891  0.09683  0.60785  1.0000
  H   H2443     1.0  0.95380  0.99400  0.71074  1.0000
  S   S417      1.0  0.66510  0.99224  0.51544  1.0000
  H   H2444     1.0  0.90875  0.36709  0.53327  1.0000
  H   H2445     1.0  0.85548  0.29191  0.52257  1.0000
  H   H2446     1.0  0.95960  0.22080  0.50439  1.0000
  C   C3050     1.0  0.80169  0.46412  0.57928  1.0000
  C   C3051     1.0  0.66829  0.00939  0.60472  1.0000
  C   C3052     1.0  0.90392  0.01695  0.71010  1.0000
  C   C3053     1.0  0.90834  0.00144  0.70078  1.0000
  C   C3054     1.0  0.83288  0.47047  0.60282  1.0000
  H   H2447     1.0  0.94383  0.33731  0.55871  1.0000
  P   P102      1.0  0.83614  0.46715  0.55954  1.0000
  H   H2448     1.0  0.68082  0.09727  0.59067  1.0000
  C   C3055     1.0  0.88982  0.43418  0.56346  1.0000
  H   H2449     1.0  0.86566  0.33544  0.52895  1.0000
  C   C3056     1.0  0.91781  0.42463  0.68998  1.0000
  H   H2450     1.0  0.90826  0.05833  0.67104  1.0000
  H   H2451     1.0  0.66645  0.22943  0.67800  1.0000
  H   H2452     1.0  0.69438  0.29441  0.70805  1.0000
  H   H2453     1.0  0.93511  0.15766  0.56177  1.0000
  H   H2454     1.0  0.86013  0.47509  0.58786  1.0000
  C   C3057     1.0  0.71537  0.01406  0.60889  1.0000
  C   C3058     1.0  0.71253  0.03404  0.60420  1.0000
  C   C3059     1.0  0.71243  0.22316  0.62151  1.0000
  C   C3060     1.0  0.79322  0.46301  0.59302  1.0000
  H   H2455     1.0  0.92031  0.02800  0.61824  1.0000
  C   C3061     1.0  0.79126  0.42566  0.55207  1.0000
  C   C3062     1.0  0.71235  0.36420  0.70800  1.0000
  C   C3063     1.0  0.70749  0.20144  0.62835  1.0000
  C   C3064     1.0  0.92826  0.04711  0.61523  1.0000
  C   C3065     1.0  0.88250  0.46977  0.56326  1.0000
  C   C3066     1.0  0.90606  0.14401  0.59297  1.0000
  C   C3067     1.0  0.95862  0.39229  0.54183  1.0000
  H   H2456     1.0  0.89351  0.04459  0.60839  1.0000
  H   H2457     1.0  0.82920  0.41589  0.55716  1.0000
  C   C3068     1.0  0.70966  0.35275  0.72103  1.0000
  C   C3069     1.0  0.94490  0.39031  0.55386  1.0000
  H   H2458     1.0  0.97049  0.23483  0.58658  1.0000
  C   C3070     1.0  0.69956  0.31394  0.70806  1.0000
  C   C3071     1.0  0.93422  0.08815  0.68511  1.0000
  H   H2459     1.0  0.75371  0.40710  0.52222  1.0000
  C   C3072     1.0  0.95735  0.09857  0.69220  1.0000
  H   H2460     1.0  0.70079  0.23933  0.60493  1.0000
  H   H2461     1.0  0.72855  0.05101  0.60165  1.0000
  H   H2462     1.0  0.97640  0.10081  0.58405  1.0000
  C   C3073     1.0  0.66560  0.12079  0.59802  1.0000
  C   C3074     1.0  0.92134  0.43973  0.71876  1.0000
  H   H2463     1.0  0.89915  0.15715  0.57323  1.0000
  H   H2464     1.0  0.91029  0.03617  0.70772  1.0000
  H   H2465     1.0  0.97092  0.44529  0.66713  1.0000
  C   C3075     1.0  0.78815  0.44076  0.52474  1.0000
  C   C3076     1.0  0.96395  0.08708  0.61318  1.0000
  H   H2466     1.0  0.98130  0.14528  0.65610  1.0000
  C   C3077     1.0  0.94174  0.13683  0.59399  1.0000
  H   H2467     1.0  0.88725  0.01942  0.72950  1.0000
  C   C3078     1.0  0.92148  0.13692  0.60047  1.0000
  C   C3079     1.0  0.97935  0.15287  0.64622  1.0000
  H   H2468     1.0  0.97496  0.05567  0.68145  1.0000
  C   C3080     1.0  0.78277  0.42481  0.72647  1.0000
  C   C3081     1.0  0.67085  0.17846  0.61301  1.0000
  H   H2469     1.0  0.70073  0.31800  0.73073  1.0000
  H   H2470     1.0  0.93234  0.37232  0.55760  1.0000
  C   C3082     1.0  0.97043  0.14785  0.62069  1.0000
  C   C3083     1.0  0.96404  0.43495  0.55697  1.0000
  H   H2471     1.0  0.66761  0.11754  0.60908  1.0000
  C   C3084     1.0  0.91092  0.15136  0.57901  1.0000
  H   H2472     1.0  0.84481  0.47250  0.61195  1.0000
  C   C3085     1.0  0.68683  0.17912  0.62408  1.0000
  H   H2473     1.0  0.79773  0.42587  0.72021  1.0000
  H   H2474     1.0  0.93193  0.31116  0.52641  1.0000
  H   H2475     1.0  0.91787  0.00856  0.69114  1.0000
  H   H2476     1.0  0.92940  0.48444  0.66083  1.0000
  H   H2477     1.0  0.68672  0.04699  0.59818  1.0000
  C   C3086     1.0  0.94648  0.14424  0.57993  1.0000
  C   C3087     1.0  0.68900  0.03173  0.60217  1.0000
  C   C3088     1.0  0.96141  0.21892  0.49306  1.0000
  H   H2478     1.0  0.72829  0.24052  0.62493  1.0000
  C   C3089     1.0  0.69692  0.22249  0.61025  1.0000
  S   S418      1.0  0.98040  0.04751  0.65131  1.0000
  C   C3090     1.0  0.68996  0.46456  0.62720  1.0000
  H   H2479     1.0  0.96530  0.05517  0.62136  1.0000
  C   C3091     1.0  0.97279  0.13815  0.63362  1.0000
  H   H2480     1.0  0.78942  0.46194  0.57032  1.0000
  H   H2481     1.0  0.96220  0.14491  0.57469  1.0000
  H   H2482     1.0  0.93717  0.00163  0.73303  1.0000
  C   C3092     1.0  0.97975  0.09605  0.72572  1.0000
  H   H2483     1.0  0.91794  0.47191  0.56755  1.0000
  C   C3093     1.0  0.68523  0.01227  0.48965  1.0000
  H   H2484     1.0  0.96970  0.11933  0.63412  1.0000
  H   H2485     1.0  0.96852  0.32677  0.57541  1.0000
  C   C3094     1.0  0.66150  0.48441  0.61475  1.0000
  H   H2486     1.0  0.97621  0.46886  0.61662  1.0000
  H   H2487     1.0  0.98037  0.27852  0.50630  1.0000
  H   H2488     1.0  0.76097  0.38554  0.72259  1.0000
  C   C3095     1.0  0.78436  0.44622  0.73319  1.0000
  C   C3096     1.0  0.98362  0.17739  0.64603  1.0000
  C   C3097     1.0  0.97312  0.35094  0.50886  1.0000
  C   C3098     1.0  0.65135  0.45878  0.61654  1.0000
  C   C3099     1.0  0.97672  0.33647  0.56595  1.0000
  H   H2489     1.0  0.80059  0.46389  0.73217  1.0000
  H   H2490     1.0  0.97320  0.33634  0.51507  1.0000
  C   C3100     1.0  0.97983  0.35236  0.49473  1.0000
  H   H2491     1.0  0.98367  0.09873  0.61472  1.0000
  C   C3101     1.0  0.70021  0.49007  0.62553  1.0000
  C   C3102     1.0  0.97886  0.37025  0.48626  1.0000
  Fe  Fe209     1.0  0.67637  0.03982  0.90898  1.0000
  S   S419      1.0  0.71320  0.04318  0.90250  1.0000
  C   C3103     1.0  0.71214  0.08138  0.96852  1.0000
  Fe  Fe210     1.0  0.68379  0.02649  0.93973  1.0000
  S   S420      1.0  0.72043  0.02927  0.93501  1.0000
  S   S421      1.0  0.66684  0.01863  0.96183  1.0000
  Fe  Fe211     1.0  0.72858  0.06405  0.92358  1.0000
  S   S422      1.0  0.76720  0.09612  0.92981  1.0000
  Fe  Fe212     1.0  0.70268  0.00837  0.91427  1.0000
  S   S423      1.0  0.69256  0.06270  0.92949  1.0000
  S   S424      1.0  0.66523  0.00363  0.91961  1.0000
  Fe  Fe213     1.0  0.88854  0.22995  0.91099  1.0000
  S   S425      1.0  0.90038  0.26423  0.92543  1.0000
  S   S426      1.0  0.84880  0.19865  0.90615  1.0000
  Fe  Fe214     1.0  0.93949  0.25195  0.89728  1.0000
  S   S427      1.0  0.95421  0.28767  0.91057  1.0000
  S   S428      1.0  0.95693  0.24101  0.87884  1.0000
  Fe  Fe215     1.0  0.93655  0.26347  0.92905  1.0000
  S   S429      1.0  0.96015  0.26805  0.94968  1.0000
  Fe  Fe216     1.0  0.91726  0.28637  0.90610  1.0000
  S   S430      1.0  0.90986  0.31967  0.90232  1.0000
  S   S431      1.0  0.92347  0.22755  0.91570  1.0000
  S   S432      1.0  0.90379  0.25236  0.89167  1.0000
  Fe  Fe217     1.0  0.67457  0.32174  0.80929  1.0000
  C   C3104     1.0  0.95193  0.11951  0.83279  1.0000
  S   S433      1.0  0.71384  0.32837  0.81539  1.0000
  C   C3105     1.0  0.74400  0.42206  0.74252  1.0000
  H   H2492     1.0  0.98054  0.28581  0.86279  1.0000
  H   H2493     1.0  0.72929  0.42136  0.74887  1.0000
  H   H2494     1.0  0.67865  0.09631  0.88850  1.0000
  Fe  Fe218     1.0  0.85607  0.43291  0.84002  1.0000
  S   S434      1.0  0.87579  0.43507  0.86100  1.0000
  S   S435      1.0  0.81481  0.42219  0.83839  1.0000
  Fe  Fe219     1.0  0.90505  0.45663  0.82433  1.0000
  S   S436      1.0  0.92756  0.45974  0.84418  1.0000
  C   C3106     1.0  0.85084  0.00071  0.84855  1.0000
  Fe  Fe220     1.0  0.89808  0.42111  0.84860  1.0000
  S   S437      1.0  0.90788  0.38969  0.85313  1.0000
  Fe  Fe221     1.0  0.90371  0.47357  0.85523  1.0000
  S   S438      1.0  0.87684  0.41710  0.82783  1.0000
  S   S439      1.0  0.88272  0.47235  0.83519  1.0000
  S   S440      1.0  0.95229  0.01558  0.80293  1.0000
  H   H2495     1.0  0.98190  0.37295  0.87052  1.0000
  C   C3107     1.0  0.85050  0.41165  0.75939  1.0000
  C   C3108     1.0  0.72805  0.33431  0.77683  1.0000
  C   C3109     1.0  0.74189  0.35519  0.82113  1.0000
  C   C3110     1.0  0.74249  0.37719  0.82625  1.0000
  C   C3111     1.0  0.76494  0.39740  0.83137  1.0000
  C   C3112     1.0  0.78723  0.39615  0.83132  1.0000
  C   C3113     1.0  0.78672  0.37431  0.82595  1.0000
  C   C3114     1.0  0.76421  0.35399  0.82098  1.0000
  H   H2496     1.0  0.72559  0.37851  0.82650  1.0000
  H   H2497     1.0  0.76502  0.41414  0.83548  1.0000
  H   H2498     1.0  0.80363  0.37300  0.82570  1.0000
  H   H2499     1.0  0.76413  0.33722  0.81696  1.0000
  H   H2500     1.0  0.92995  0.16686  0.84181  1.0000
  C   C3115     1.0  0.73807  0.04007  0.97963  1.0000
  P   P103      1.0  0.96703  0.15561  0.85508  1.0000
  C   C3116     1.0  0.80510  0.00121  0.87896  1.0000
  C   C3117     1.0  0.96786  0.28098  0.96762  1.0000
  C   C3118     1.0  0.90869  0.33833  0.88830  1.0000
  C   C3119     1.0  0.90351  0.35802  0.89160  1.0000
  C   C3120     1.0  0.90258  0.37351  0.88100  1.0000
  C   C3121     1.0  0.90687  0.36963  0.86687  1.0000
  C   C3122     1.0  0.91175  0.34976  0.86352  1.0000
  C   C3123     1.0  0.91260  0.33420  0.87411  1.0000
  H   H2501     1.0  0.90044  0.36147  0.90249  1.0000
  H   H2502     1.0  0.89907  0.38880  0.88383  1.0000
  H   H2503     1.0  0.91508  0.34649  0.85265  1.0000
  H   H2504     1.0  0.91626  0.31903  0.87126  1.0000
  C   C3124     1.0  0.95568  0.29259  0.97434  1.0000
  H   H2505     1.0  0.93192  0.48874  0.77458  1.0000
  H   H2506     1.0  0.89369  0.14716  0.89365  1.0000
  C   C3125     1.0  0.79005  0.12406  0.92269  1.0000
  C   C3126     1.0  0.78724  0.13181  0.90926  1.0000
  C   C3127     1.0  0.80559  0.15440  0.90435  1.0000
  C   C3128     1.0  0.82721  0.16947  0.91264  1.0000
  C   C3129     1.0  0.83023  0.16149  0.92596  1.0000
  C   C3130     1.0  0.81172  0.13905  0.93096  1.0000
  H   H2507     1.0  0.77092  0.12047  0.90266  1.0000
  H   H2508     1.0  0.80298  0.16031  0.89404  1.0000
  H   H2509     1.0  0.84659  0.17286  0.93254  1.0000
  H   H2510     1.0  0.81420  0.13333  0.94135  1.0000
  C   C3131     1.0  0.70491  0.32418  0.76986  1.0000
  C   C3132     1.0  0.70136  0.33500  0.75777  1.0000
  C   C3133     1.0  0.72097  0.35594  0.75246  1.0000
  H   H2511     1.0  0.66836  0.46378  0.82579  1.0000
  C   C3134     1.0  0.74217  0.40051  0.73568  1.0000
  C   C3135     1.0  0.97610  0.10444  0.73896  1.0000
  H   H2512     1.0  0.66748  0.42297  0.82403  1.0000
  H   H2513     1.0  0.96151  0.32174  0.95040  1.0000
  H   H2514     1.0  0.72539  0.03243  0.97044  1.0000
  C   C3136     1.0  0.65923  0.45048  0.83377  1.0000
  C   C3137     1.0  0.77463  0.01052  0.88972  1.0000
  H   H2515     1.0  0.67498  0.25005  0.90787  1.0000
  C   C3138     1.0  0.96172  0.99515  0.74691  1.0000
  H   H2516     1.0  0.69537  0.18211  0.97839  1.0000
  H   H2517     1.0  0.92911  0.11313  0.86964  1.0000
  C   C3139     1.0  0.96924  0.33170  0.94097  1.0000
  S   S441      1.0  0.91770  0.46916  0.80182  1.0000
  H   H2518     1.0  0.91198  0.44383  0.76704  1.0000
  C   C3140     1.0  0.88752  0.01253  0.86985  1.0000
  H   H2519     1.0  0.74997  0.09067  0.96533  1.0000
  C   C3141     1.0  0.84425  0.99624  0.86276  1.0000
  H   H2520     1.0  0.68952  0.30826  0.77402  1.0000
  H   H2521     1.0  0.68316  0.32742  0.75275  1.0000
  S   S442      1.0  0.94828  0.99931  0.76251  1.0000
  H   H2522     1.0  0.96214  0.39698  0.86149  1.0000
  H   H2523     1.0  0.97916  0.23022  0.85503  1.0000
  H   H2524     1.0  0.94923  0.39677  0.76394  1.0000
  C   C3142     1.0  0.78845  0.99280  0.84548  1.0000
  C   C3143     1.0  0.94874  0.19447  0.82677  1.0000
  C   C3144     1.0  0.68958  0.37633  0.74126  1.0000
  H   H2525     1.0  0.95088  0.06340  0.82923  1.0000
  C   C3145     1.0  0.92776  0.12960  0.87270  1.0000
  H   H2526     1.0  0.79475  0.01060  0.85106  1.0000
  H   H2527     1.0  0.67481  0.07526  0.96872  1.0000
  H   H2528     1.0  0.83706  0.99587  0.84003  1.0000
  C   C3146     1.0  0.89528  0.43424  0.74570  1.0000
  C   C3147     1.0  0.84409  0.37370  0.88600  1.0000
  C   C3148     1.0  0.83484  0.38900  0.88082  1.0000
  C   C3149     1.0  0.82159  0.38288  0.86780  1.0000
  C   C3150     1.0  0.81748  0.36142  0.85998  1.0000
  C   C3151     1.0  0.82612  0.34554  0.86527  1.0000
  C   C3152     1.0  0.83978  0.35207  0.87827  1.0000
  P   P104      1.0  0.81983  0.31735  0.85524  1.0000
  C   C3153     1.0  0.82133  0.29516  0.86697  1.0000
  C   C3154     1.0  0.78954  0.30544  0.84672  1.0000
  C   C3155     1.0  0.77049  0.30662  0.85407  1.0000
  C   C3156     1.0  0.74777  0.29991  0.84711  1.0000
  C   C3157     1.0  0.74374  0.29161  0.83286  1.0000
  C   C3158     1.0  0.76236  0.28975  0.82558  1.0000
  C   C3159     1.0  0.78520  0.29668  0.83245  1.0000
  C   C3160     1.0  0.79990  0.27460  0.87109  1.0000
  C   C3161     1.0  0.80162  0.25747  0.87998  1.0000
  C   C3162     1.0  0.82467  0.26079  0.88483  1.0000
  C   C3163     1.0  0.84603  0.28123  0.88079  1.0000
  C   C3164     1.0  0.84438  0.29826  0.87186  1.0000
  C   C3165     1.0  0.84237  0.32371  0.84192  1.0000
  C   C3166     1.0  0.85426  0.34712  0.83614  1.0000
  C   C3167     1.0  0.87169  0.35182  0.82583  1.0000
  C   C3168     1.0  0.87737  0.33326  0.82123  1.0000
  C   C3169     1.0  0.86536  0.30979  0.82679  1.0000
  C   C3170     1.0  0.84782  0.30496  0.83704  1.0000
  H   H2529     1.0  0.85491  0.37876  0.89592  1.0000
  H   H2530     1.0  0.83845  0.40593  0.88672  1.0000
  H   H2531     1.0  0.81488  0.39502  0.86360  1.0000
  H   H2532     1.0  0.80753  0.35730  0.84980  1.0000
  H   H2533     1.0  0.84733  0.34072  0.88250  1.0000
  H   H2534     1.0  0.77349  0.31355  0.86503  1.0000
  H   H2535     1.0  0.73347  0.30183  0.85263  1.0000
  H   H2536     1.0  0.72641  0.28725  0.82735  1.0000
  H   H2537     1.0  0.75928  0.28363  0.81447  1.0000
  H   H2538     1.0  0.79955  0.29575  0.82648  1.0000
  H   H2539     1.0  0.78191  0.27165  0.86743  1.0000
  H   H2540     1.0  0.78510  0.24156  0.88311  1.0000
  H   H2541     1.0  0.82609  0.24757  0.89172  1.0000
  H   H2542     1.0  0.86393  0.28395  0.88464  1.0000
  H   H2543     1.0  0.86113  0.31399  0.86881  1.0000
  H   H2544     1.0  0.85068  0.36202  0.83979  1.0000
  H   H2545     1.0  0.88146  0.37021  0.82180  1.0000
  C   C3171     1.0  0.87552  0.01080  0.84506  1.0000
  H   H2546     1.0  0.86985  0.29542  0.82328  1.0000
  H   H2547     1.0  0.83870  0.28666  0.84122  1.0000
  H   H2548     1.0  0.97779  0.47954  0.74412  1.0000
  C   C3172     1.0  0.74777  0.35506  0.77159  1.0000
  H   H2549     1.0  0.69407  0.37654  0.76421  1.0000
  H   H2550     1.0  0.65945  0.99832  0.88413  1.0000
  H   H2551     1.0  0.90748  0.48187  0.75294  1.0000
  C   C3173     1.0  0.96858  0.17644  0.84150  1.0000
  H   H2552     1.0  0.75559  0.00580  0.89132  1.0000
  H   H2553     1.0  0.93836  0.33810  0.93617  1.0000
  C   C3174     1.0  0.87292  0.42251  0.73770  1.0000
  C   C3175     1.0  0.94817  0.09693  0.82647  1.0000
  H   H2554     1.0  0.78871  0.04357  0.90333  1.0000
  C   C3176     1.0  0.66516  0.99964  0.97634  1.0000
  H   H2555     1.0  0.85804  0.99787  0.88430  1.0000
  C   C3177     1.0  0.79308  0.48574  0.93676  1.0000
  C   C3178     1.0  0.79997  0.19285  0.94917  1.0000
  C   C3179     1.0  0.80858  0.20157  0.93584  1.0000
  C   C3180     1.0  0.79224  0.19403  0.92401  1.0000
  C   C3181     1.0  0.76738  0.17737  0.92540  1.0000
  C   C3182     1.0  0.75871  0.16785  0.93868  1.0000
  C   C3183     1.0  0.77507  0.17632  0.95063  1.0000
  P   P105      1.0  0.72642  0.14719  0.94076  1.0000
  C   C3184     1.0  0.71376  0.16642  0.94760  1.0000
  C   C3185     1.0  0.71131  0.13168  0.92407  1.0000
  C   C3186     1.0  0.68755  0.12792  0.92028  1.0000
  C   C3187     1.0  0.94367  0.15265  0.86734  1.0000
  C   C3188     1.0  0.68779  0.10629  0.89838  1.0000
  C   C3189     1.0  0.71104  0.10921  0.90232  1.0000
  C   C3190     1.0  0.72266  0.12165  0.91518  1.0000
  C   C3191     1.0  0.96156  0.08662  0.84844  1.0000
  C   C3192     1.0  0.69937  0.18209  0.96726  1.0000
  C   C3193     1.0  0.89498  0.43465  0.76061  1.0000
  C   C3194     1.0  0.70101  0.19795  0.94387  1.0000
  C   C3195     1.0  0.71029  0.18250  0.93862  1.0000
  C   C3196     1.0  0.72138  0.12230  0.95224  1.0000
  C   C3197     1.0  0.74014  0.11603  0.95526  1.0000
  C   C3198     1.0  0.73555  0.09574  0.96343  1.0000
  C   C3199     1.0  0.92323  0.17152  0.88101  1.0000
  C   C3200     1.0  0.96882  0.48712  0.80124  1.0000
  H   H2556     1.0  0.91962  0.40587  0.75069  1.0000
  H   H2557     1.0  0.81271  0.19875  0.95832  1.0000
  H   H2558     1.0  0.82799  0.21388  0.93458  1.0000
  H   H2559     1.0  0.79914  0.20062  0.91367  1.0000
  H   H2560     1.0  0.75513  0.17186  0.91607  1.0000
  H   H2561     1.0  0.76864  0.16990  0.96105  1.0000
  H   H2562     1.0  0.67777  0.13418  0.92732  1.0000
  H   H2563     1.0  0.97206  0.11368  0.86577  1.0000
  C   C3201     1.0  0.96055  0.12580  0.84702  1.0000
  H   H2564     1.0  0.71981  0.10129  0.89556  1.0000
  H   H2565     1.0  0.74032  0.12310  0.91834  1.0000
  H   H2566     1.0  0.96118  0.09207  0.74531  1.0000
  H   H2567     1.0  0.76999  0.05891  0.96718  1.0000
  C   C3202     1.0  0.86278  0.00186  0.87335  1.0000
  H   H2568     1.0  0.69829  0.21025  0.93687  1.0000
  H   H2569     1.0  0.71486  0.18312  0.92755  1.0000
  H   H2570     1.0  0.75810  0.12612  0.95088  1.0000
  C   C3203     1.0  0.65901  0.42752  0.83279  1.0000
  H   H2571     1.0  0.94851  0.13214  0.82648  1.0000
  C   C3204     1.0  0.67590  0.11534  0.90743  1.0000
  H   H2572     1.0  0.83325  0.40297  0.76471  1.0000
  H   H2573     1.0  0.77937  0.47236  0.94333  1.0000
  C   C3205     1.0  0.65532  0.23782  0.90688  1.0000
  H   H2574     1.0  0.84297  0.02870  0.88407  1.0000
  C   C3206     1.0  0.87269  0.42345  0.76741  1.0000
  C   C3207     1.0  0.74432  0.36581  0.75941  1.0000
  H   H2575     1.0  0.95500  0.35921  0.91423  1.0000
  C   C3208     1.0  0.93388  0.48312  0.73771  1.0000
  S   S443      1.0  0.65228  0.04345  0.89078  1.0000
  C   C3209     1.0  0.85061  0.41114  0.74455  1.0000
  C   C3210     1.0  0.96588  0.35313  0.92054  1.0000
  H   H2576     1.0  0.93253  0.19616  0.82374  1.0000
  H   H2577     1.0  0.91292  0.02429  0.85286  1.0000
  C   C3211     1.0  0.93860  0.42007  0.75207  1.0000
  C   C3212     1.0  0.89386  0.01682  0.85569  1.0000
  H   H2578     1.0  0.95432  0.42468  0.87774  1.0000
  H   H2579     1.0  0.89131  0.33722  0.81350  1.0000
  H   H2580     1.0  0.97223  0.22215  0.81272  1.0000
  C   C3213     1.0  0.97116  0.46135  0.74828  1.0000
  C   C3214     1.0  0.96784  0.39885  0.87264  1.0000
  C   C3215     1.0  0.94633  0.44353  0.74650  1.0000
  C   C3216     1.0  0.78876  0.48439  0.92206  1.0000
  C   C3217     1.0  0.81792  0.03818  0.89443  1.0000
  H   H2581     1.0  0.87275  0.42414  0.77894  1.0000
  C   C3218     1.0  0.97874  0.38499  0.87786  1.0000
  C   C3219     1.0  0.98154  0.40314  0.90148  1.0000
  C   C3220     1.0  0.69776  0.10750  0.95716  1.0000
  C   C3221     1.0  0.69322  0.08719  0.96533  1.0000
  H   H2582     1.0  0.76559  0.36306  0.77717  1.0000
  C   C3222     1.0  0.95629  0.34103  0.93300  1.0000
  H   H2583     1.0  0.92163  0.18789  0.88425  1.0000
  C   C3223     1.0  0.68364  0.37850  0.75538  1.0000
  H   H2584     1.0  0.95302  0.19156  0.86758  1.0000
  H   H2585     1.0  0.96591  0.07416  0.85436  1.0000
  S   S444      1.0  0.66486  0.33921  0.79113  1.0000
  C   C3224     1.0  0.79334  0.03186  0.89652  1.0000
  C   C3225     1.0  0.94113  0.17355  0.87155  1.0000
  H   H2586     1.0  0.83238  0.05495  0.89959  1.0000
  H   H2587     1.0  0.65913  0.38418  0.76918  1.0000
  H   H2588     1.0  0.70833  0.06520  0.97449  1.0000
  H   H2589     1.0  0.95526  0.33111  0.88515  1.0000
  H   H2590     1.0  0.94065  0.29356  0.96874  1.0000
  H   H2591     1.0  0.90178  0.01702  0.87805  1.0000
  H   H2592     1.0  0.89757  0.10984  0.88627  1.0000
  H   H2593     1.0  0.65741  0.11204  0.90459  1.0000
  C   C3226     1.0  0.70866  0.16663  0.96203  1.0000
  H   H2594     1.0  0.83340  0.40200  0.73834  1.0000
  H   H2595     1.0  0.65423  0.26954  0.83405  1.0000
  C   C3227     1.0  0.96346  0.41456  0.88182  1.0000
  C   C3228     1.0  0.82382  0.02302  0.88566  1.0000
  H   H2596     1.0  0.73058  0.32631  0.78645  1.0000
  C   C3229     1.0  0.94741  0.17801  0.83710  1.0000
  H   H2597     1.0  0.76630  0.46141  0.74651  1.0000
  C   C3230     1.0  0.90754  0.14858  0.88631  1.0000
  H   H2598     1.0  0.68269  0.11120  0.95433  1.0000
  C   C3231     1.0  0.76317  0.05497  0.97781  1.0000
  C   C3232     1.0  0.96512  0.10906  0.85484  1.0000
  H   H2599     1.0  0.71206  0.15508  0.96929  1.0000
  H   H2600     1.0  0.75979  0.38209  0.75571  1.0000
  C   C3233     1.0  0.90978  0.12762  0.88215  1.0000
  C   C3234     1.0  0.66398  0.38315  0.75828  1.0000
  Fe  Fe222     1.0  0.95730  0.99295  0.78517  1.0000
  C   C3235     1.0  0.78042  0.99536  0.88089  1.0000
  H   H2601     1.0  0.88043  0.01334  0.83403  1.0000
  H   H2602     1.0  0.94670  0.29480  0.86929  1.0000
  C   C3236     1.0  0.69546  0.19768  0.95818  1.0000
  H   H2603     1.0  0.96822  0.48161  0.81208  1.0000
  H   H2604     1.0  0.85192  0.47323  0.88075  1.0000
  H   H2605     1.0  0.94197  0.09234  0.81542  1.0000
  C   C3237     1.0  0.95312  0.08056  0.83426  1.0000
  H   H2606     1.0  0.96696  0.42898  0.90332  1.0000
  C   C3238     1.0  0.97029  0.32771  0.88209  1.0000
  C   C3239     1.0  0.97107  0.20907  0.82054  1.0000
  H   H2607     1.0  0.77169  0.46996  0.91722  1.0000
  H   H2608     1.0  0.65554  0.23091  0.88443  1.0000
  C   C3240     1.0  0.96538  0.30713  0.87315  1.0000
  P   P106      1.0  0.92426  0.45025  0.73719  1.0000
  H   H2609     1.0  0.68835  0.20971  0.96226  1.0000
  C   C3241     1.0  0.97042  0.41681  0.89622  1.0000
  C   C3242     1.0  0.95534  0.41477  0.75954  1.0000
  P   P107      1.0  0.71540  0.37089  0.73755  1.0000
  H   H2610     1.0  0.77201  0.00249  0.82797  1.0000
  C   C3243     1.0  0.94710  0.48338  0.79406  1.0000
  C   C3244     1.0  0.97994  0.43276  0.76143  1.0000
  C   C3245     1.0  0.76502  0.44483  0.74124  1.0000
  H   H2611     1.0  0.85146  0.49055  0.85748  1.0000
  C   C3246     1.0  0.98442  0.30194  0.86959  1.0000
  H   H2612     1.0  0.69648  0.49031  0.85382  1.0000
  C   C3247     1.0  0.85139  0.49066  0.88030  1.0000
  S   S445      1.0  0.66669  0.92838  0.05079  1.0000
  H   H2613     1.0  0.89272  0.92083  0.14309  1.0000
  Fe  Fe223     1.0  0.66710  0.95321  0.06908  1.0000
  S   S446      1.0  0.67282  0.72921  0.04531  1.0000
  H   H2614     1.0  0.71832  0.82700  0.15294  1.0000
  Fe  Fe224     1.0  0.66620  0.70657  0.06463  1.0000
  S   S447      1.0  0.69475  0.69815  0.07608  1.0000
  H   H2615     1.0  0.85212  0.87836  0.19626  1.0000
  C   C3248     1.0  0.70974  0.89108  0.00642  1.0000
  P   P108      1.0  0.92652  0.53605  0.17950  1.0000
  H   H2616     1.0  0.74568  0.67470  0.16363  1.0000
  Fe  Fe225     1.0  0.96357  0.96788  0.15034  1.0000
  S   S448      1.0  0.94154  0.93406  0.13524  1.0000
  C   C3249     1.0  0.72669  0.97901  0.04527  1.0000
  Fe  Fe226     1.0  0.86927  0.73997  0.11140  1.0000
  S   S449      1.0  0.88245  0.74936  0.13440  1.0000
  S   S450      1.0  0.88244  0.72374  0.09337  1.0000
  Fe  Fe227     1.0  0.83109  0.75857  0.11430  1.0000
  S   S451      1.0  0.84219  0.76998  0.13739  1.0000
  S   S452      1.0  0.80303  0.76788  0.10318  1.0000
  Fe  Fe228     1.0  0.88133  0.78529  0.13107  1.0000
  S   S453      1.0  0.91295  0.82013  0.14183  1.0000
  Fe  Fe229     1.0  0.84233  0.73337  0.13934  1.0000
  S   S454      1.0  0.82299  0.71472  0.15946  1.0000
  S   S455      1.0  0.87056  0.77685  0.10782  1.0000
  S   S456      1.0  0.82887  0.72115  0.11648  1.0000
  Fe  Fe230     1.0  0.79028  0.60295  0.21315  1.0000
  S   S457      1.0  0.76768  0.56118  0.21375  1.0000
  S   S458      1.0  0.81061  0.62026  0.19304  1.0000
  C   C3250     1.0  0.77564  0.73160  0.15007  1.0000
  C   C3251     1.0  0.66073  0.78471  0.09247  1.0000
  H   H2617     1.0  0.72642  0.59277  0.18615  1.0000
  S   S459      1.0  0.70150  0.97159  0.08424  1.0000
  H   H2618     1.0  0.92056  0.69330  0.02214  1.0000
  H   H2619     1.0  0.82911  0.91565  0.16592  1.0000
  C   C3252     1.0  0.73237  0.89216  0.06269  1.0000
  H   H2620     1.0  0.78325  0.75103  0.15326  1.0000
  H   H2621     1.0  0.71605  0.69220  0.04749  1.0000
  C   C3253     1.0  0.70416  0.67995  0.03890  1.0000
  C   C3254     1.0  0.70794  0.87652  0.03587  1.0000
  C   C3255     1.0  0.69807  0.89328  0.99396  1.0000
  H   H2622     1.0  0.76195  0.71880  0.17063  1.0000
  C   C3256     1.0  0.89034  0.57776  0.18021  1.0000
  C   C3257     1.0  0.72499  0.76217  0.02097  1.0000
  C   C3258     1.0  0.81395  0.64680  0.18402  1.0000
  C   C3259     1.0  0.82840  0.65377  0.17198  1.0000
  C   C3260     1.0  0.83143  0.67446  0.16435  1.0000
  C   C3261     1.0  0.81990  0.68841  0.16863  1.0000
  C   C3262     1.0  0.80526  0.68130  0.18060  1.0000
  C   C3263     1.0  0.80236  0.66071  0.18829  1.0000
  H   H2623     1.0  0.83735  0.64309  0.16854  1.0000
  H   H2624     1.0  0.84271  0.67962  0.15518  1.0000
  H   H2625     1.0  0.79601  0.69175  0.18392  1.0000
  H   H2626     1.0  0.79100  0.65547  0.19743  1.0000
  C   C3264     1.0  0.93358  0.90247  0.13745  1.0000
  C   C3265     1.0  0.91658  0.88431  0.12768  1.0000
  C   C3266     1.0  0.90983  0.85902  0.12894  1.0000
  C   C3267     1.0  0.92013  0.85163  0.13998  1.0000
  C   C3268     1.0  0.93726  0.86982  0.14970  1.0000
  C   C3269     1.0  0.94393  0.89509  0.14847  1.0000
  H   H2627     1.0  0.90852  0.88983  0.11909  1.0000
  H   H2628     1.0  0.89678  0.84529  0.12132  1.0000
  H   H2629     1.0  0.94541  0.86431  0.15824  1.0000
  H   H2630     1.0  0.95697  0.90884  0.15607  1.0000
  H   H2631     1.0  0.84542  0.88875  0.14344  1.0000
  H   H2632     1.0  0.88335  0.92880  0.20021  1.0000
  H   H2633     1.0  0.79132  0.90433  0.17894  1.0000
  C   C3270     1.0  0.95518  0.72039  0.08747  1.0000
  C   C3271     1.0  0.93841  0.71541  0.07602  1.0000
  C   C3272     1.0  0.91639  0.71673  0.07802  1.0000
  C   C3273     1.0  0.91084  0.72305  0.09144  1.0000
  C   C3274     1.0  0.92758  0.72795  0.10290  1.0000
  C   C3275     1.0  0.94958  0.72660  0.10091  1.0000
  H   H2634     1.0  0.94226  0.71025  0.06569  1.0000
  H   H2635     1.0  0.90350  0.71271  0.06910  1.0000
  H   H2636     1.0  0.92351  0.73258  0.11332  1.0000
  C   C3276     1.0  0.84643  0.50017  0.22882  1.0000
  C   C3277     1.0  0.72564  0.71783  0.08246  1.0000
  C   C3278     1.0  0.73646  0.74363  0.08213  1.0000
  C   C3279     1.0  0.76021  0.75858  0.08837  1.0000
  C   C3280     1.0  0.77359  0.74797  0.09492  1.0000
  C   C3281     1.0  0.76310  0.72213  0.09486  1.0000
  C   C3282     1.0  0.73928  0.70718  0.08869  1.0000
  H   H2637     1.0  0.72629  0.75202  0.07733  1.0000
  H   H2638     1.0  0.76814  0.77851  0.08828  1.0000
  H   H2639     1.0  0.77333  0.71368  0.09957  1.0000
  H   H2640     1.0  0.73130  0.68725  0.08881  1.0000
  C   C3283     1.0  0.90722  0.56897  0.18299  1.0000
  H   H2641     1.0  0.88184  0.86446  0.17407  1.0000
  H   H2642     1.0  0.95735  0.87446  0.09767  1.0000
  C   C3284     1.0  0.71840  0.82947  0.14161  1.0000
  H   H2643     1.0  0.67300  0.80010  0.08638  1.0000
  H   H2644     1.0  0.90629  0.95900  0.13013  1.0000
  S   S460      1.0  0.66149  0.78484  0.05472  1.0000
  C   C3285     1.0  0.77738  0.67486  0.99689  1.0000
  C   C3286     1.0  0.85488  0.66390  0.22172  1.0000
  C   C3287     1.0  0.97909  0.86315  0.12854  1.0000
  H   H2645     1.0  0.68227  0.72064  0.00646  1.0000
  H   H2646     1.0  0.68370  0.95846  0.98814  1.0000
  H   H2647     1.0  0.77450  0.68231  0.06340  1.0000
  C   C3288     1.0  0.88753  0.68664  0.01015  1.0000
  C   C3289     1.0  0.76232  0.71214  0.03676  1.0000
  H   H2648     1.0  0.98199  0.80698  0.13328  1.0000
  H   H2649     1.0  0.65875  0.63751  0.00870  1.0000
  H   H2650     1.0  0.77780  0.68514  0.01885  1.0000
  H   H2651     1.0  0.81763  0.53253  0.21604  1.0000
  C   C3290     1.0  0.72546  0.98971  0.01672  1.0000
  C   C3291     1.0  0.75441  0.77008  0.00273  1.0000
  C   C3292     1.0  0.80038  0.88514  0.19494  1.0000
  H   H2652     1.0  0.75013  0.87020  0.05713  1.0000
  C   C3293     1.0  0.91549  0.53691  0.20801  1.0000
  H   H2653     1.0  0.72937  0.85698  0.03339  1.0000
  H   H2654     1.0  0.88329  0.73952  0.21975  1.0000
  C   C3294     1.0  0.66209  0.97094  0.00034  1.0000
  C   C3295     1.0  0.86901  0.54437  0.16251  1.0000
  C   C3296     1.0  0.91614  0.49536  0.16101  1.0000
  H   H2655     1.0  0.97557  0.66157  0.00507  1.0000
  C   C3297     1.0  0.98321  0.76762  0.06162  1.0000
  H   H2656     1.0  0.78372  0.88013  0.20062  1.0000
  H   H2657     1.0  0.94741  0.57893  0.10160  1.0000
  C   C3298     1.0  0.87744  0.68751  0.99684  1.0000
  H   H2658     1.0  0.77758  0.75213  0.03653  1.0000
  H   H2659     1.0  0.85762  0.75568  0.18073  1.0000
  C   C3299     1.0  0.84619  0.68126  0.22268  1.0000
  H   H2660     1.0  0.74536  0.79089  0.12216  1.0000
  C   C3300     1.0  0.97406  0.80222  0.12255  1.0000
  C   C3301     1.0  0.69679  0.73826  0.10798  1.0000
  C   C3302     1.0  0.68425  0.81867  0.02191  1.0000
  H   H2661     1.0  0.71524  0.72935  0.03251  1.0000
  H   H2662     1.0  0.72036  0.94306  0.03740  1.0000
  H   H2663     1.0  0.68337  0.77347  0.99958  1.0000
  H   H2664     1.0  0.89182  0.59390  0.18614  1.0000
  H   H2665     1.0  0.96645  0.52531  0.17176  1.0000
  H   H2666     1.0  0.85778  0.68074  0.99554  1.0000
  H   H2667     1.0  0.72661  0.97473  0.05636  1.0000
  H   H2668     1.0  0.83954  0.50936  0.20786  1.0000
  H   H2669     1.0  0.94208  0.78868  0.04040  1.0000
  C   C3303     1.0  0.75363  0.69427  0.00610  1.0000
  H   H2670     1.0  0.89113  0.75506  0.19551  1.0000
  C   C3304     1.0  0.83715  0.51116  0.21908  1.0000
  C   C3305     1.0  0.88574  0.97593  0.15950  1.0000
  H   H2671     1.0  0.87165  0.95388  0.17759  1.0000
  C   C3306     1.0  0.66418  0.64668  0.03116  1.0000
  H   H2672     1.0  0.94310  0.64878  0.06553  1.0000
  H   H2673     1.0  0.90670  0.53724  0.22993  1.0000
  H   H2674     1.0  0.89691  0.53206  0.20429  1.0000
  C   C3307     1.0  0.73719  0.87651  0.05369  1.0000
  H   H2675     1.0  0.94784  0.84097  0.11442  1.0000
  H   H2676     1.0  0.71163  0.91218  0.06530  1.0000
  C   C3308     1.0  0.73896  0.77684  0.01020  1.0000
  H   H2677     1.0  0.79983  0.72564  0.07274  1.0000
  H   H2678     1.0  0.67379  0.90337  0.01709  1.0000
  H   H2679     1.0  0.80114  0.76027  0.05931  1.0000
  H   H2680     1.0  0.97099  0.54537  0.19667  1.0000
  C   C3309     1.0  0.93356  0.53947  0.19840  1.0000
  C   C3310     1.0  0.96396  0.85886  0.11640  1.0000
  H   H2681     1.0  0.95435  0.65376  0.11071  1.0000
  H   H2682     1.0  0.65960  0.61504  0.10021  1.0000
  C   C3311     1.0  0.92100  0.53990  0.22262  1.0000
  C   C3312     1.0  0.67669  0.70670  0.99791  1.0000
  C   C3313     1.0  0.94683  0.65209  0.08835  1.0000
  H   H2683     1.0  0.74404  0.90689  0.01905  1.0000
  C   C3314     1.0  0.75785  0.81995  0.07734  1.0000
  C   C3315     1.0  0.74602  0.80987  0.06411  1.0000
  C   C3316     1.0  0.72106  0.79262  0.06330  1.0000
  C   C3317     1.0  0.70792  0.78539  0.07568  1.0000
  C   C3318     1.0  0.73319  0.77138  0.11985  1.0000
  C   C3319     1.0  0.97544  0.67156  0.99583  1.0000
  H   H2684     1.0  0.79009  0.66750  0.99867  1.0000
  C   C3320     1.0  0.91227  0.50338  0.17440  1.0000
  H   H2685     1.0  0.80810  0.72603  0.21448  1.0000
  H   H2686     1.0  0.94580  0.75182  0.03181  1.0000
  H   H2687     1.0  0.76799  0.74378  0.00015  1.0000
  C   C3321     1.0  0.71197  0.80920  0.13207  1.0000
  C   C3322     1.0  0.72419  0.85590  0.12191  1.0000
  H   H2688     1.0  0.66397  0.86621  0.06154  1.0000
  H   H2689     1.0  0.68211  0.83739  0.06008  1.0000
  S   S461      1.0  0.69831  0.55435  0.22321  1.0000
  H   H2690     1.0  0.67893  0.88036  0.99135  1.0000
  H   H2691     1.0  0.76527  0.78144  0.99438  1.0000
  H   H2692     1.0  0.75622  0.81513  0.05452  1.0000
  H   H2693     1.0  0.71177  0.78461  0.05311  1.0000
  H   H2694     1.0  0.69957  0.84791  0.99070  1.0000
  C   C3323     1.0  0.71200  0.68216  0.02488  1.0000
  H   H2695     1.0  0.67600  0.78077  0.02464  1.0000
  C   C3324     1.0  0.89555  0.97751  0.14613  1.0000
  H   H2696     1.0  0.85245  0.65340  0.21180  1.0000
  H   H2697     1.0  0.85402  0.53469  0.15468  1.0000
  H   H2698     1.0  0.68069  0.82137  0.03283  1.0000
  C   C3325     1.0  0.74120  0.73333  0.01650  1.0000
  C   C3326     1.0  0.71558  0.90020  0.05829  1.0000
  C   C3327     1.0  0.68049  0.66207  0.04201  1.0000
  C   C3328     1.0  0.72232  0.96643  0.02034  1.0000
  P   P109      1.0  0.69256  0.86710  0.01850  1.0000
  H   H2699     1.0  0.91845  0.90650  0.16804  1.0000
  C   C3329     1.0  0.90485  0.54752  0.17571  1.0000
  C   C3330     1.0  0.83110  0.74164  0.19697  1.0000
  C   C3331     1.0  0.66243  0.83017  0.05858  1.0000
  C   C3332     1.0  0.93832  0.78584  0.10641  1.0000
  H   H2700     1.0  0.96490  0.81229  0.06233  1.0000
  H   H2701     1.0  0.71835  0.95220  0.01211  1.0000
  C   C3333     1.0  0.74008  0.75403  0.12469  1.0000
  C   C3334     1.0  0.76362  0.71344  0.15983  1.0000
  C   C3335     1.0  0.67950  0.60494  0.11556  1.0000
  H   H2702     1.0  0.91982  0.94150  0.21639  1.0000
  C   C3336     1.0  0.81752  0.87782  0.19976  1.0000
  C   C3337     1.0  0.72520  0.86888  0.04027  1.0000
  C   C3338     1.0  0.69083  0.83789  0.01248  1.0000
  C   C3339     1.0  0.86873  0.74054  0.21360  1.0000
  C   C3340     1.0  0.78963  0.72186  0.06263  1.0000
  C   C3341     1.0  0.79040  0.74142  0.05501  1.0000
  H   H2703     1.0  0.95471  0.91909  0.18442  1.0000
  C   C3342     1.0  0.68167  0.79561  0.01729  1.0000
  C   C3343     1.0  0.73455  0.90813  0.00954  1.0000
  H   H2704     1.0  0.94663  0.53823  0.09949  1.0000
  C   C3344     1.0  0.96287  0.57700  0.10589  1.0000
  C   C3345     1.0  0.69479  0.83361  0.99828  1.0000
  H   H2705     1.0  0.74155  0.89801  0.07311  1.0000
  C   C3346     1.0  0.85439  0.74971  0.19155  1.0000
  Fe  Fe231     1.0  0.74038  0.56852  0.22612  1.0000
  S   S462      1.0  0.76193  0.60993  0.22394  1.0000
  H   H2706     1.0  0.93687  0.78933  0.12912  1.0000
  H   H2707     1.0  0.91855  0.77741  0.10461  1.0000
  P   P110      1.0  0.70289  0.78611  0.10503  1.0000
  C   C3347     1.0  0.72507  0.72879  0.12144  1.0000
  C   C3348     1.0  0.67167  0.64891  0.01719  1.0000
  H   H2708     1.0  0.85785  0.57200  0.16805  1.0000
  C   C3349     1.0  0.76173  0.69259  0.04449  1.0000
  C   C3350     1.0  0.70342  0.89239  0.04494  1.0000
  H   H2709     1.0  0.81639  0.74129  0.19026  1.0000
  C   C3351     1.0  0.65424  0.68505  0.99850  1.0000
  C   C3352     1.0  0.66797  0.52905  0.22512  1.0000
  H   H2710     1.0  0.68884  0.77137  0.07486  1.0000
  H   H2711     1.0  0.75022  0.67353  0.04073  1.0000
  H   H2712     1.0  0.97204  0.73837  0.04541  1.0000
  H   H2713     1.0  0.69013  0.89841  0.04187  1.0000
  C   C3353     1.0  0.72618  0.74055  0.02415  1.0000
  C   C3354     1.0  0.71246  0.60941  0.17102  1.0000
  C   C3355     1.0  0.73002  0.60331  0.17665  1.0000
  C   C3356     1.0  0.75239  0.61102  0.17010  1.0000
  C   C3357     1.0  0.75728  0.62483  0.15793  1.0000
  C   C3358     1.0  0.73953  0.63060  0.15202  1.0000
  C   C3359     1.0  0.71722  0.62312  0.15880  1.0000
  P   P111      1.0  0.74586  0.64907  0.13652  1.0000
  C   C3360     1.0  0.75734  0.68131  0.14195  1.0000
  C   C3361     1.0  0.76906  0.64612  0.12646  1.0000
  C   C3362     1.0  0.79404  0.66078  0.13042  1.0000
  C   C3363     1.0  0.81222  0.65899  0.12264  1.0000
  C   C3364     1.0  0.80561  0.64256  0.11080  1.0000
  C   C3365     1.0  0.78077  0.62769  0.10683  1.0000
  C   C3366     1.0  0.76252  0.62939  0.11464  1.0000
  C   C3367     1.0  0.76965  0.69971  0.13227  1.0000
  C   C3368     1.0  0.77850  0.72470  0.13627  1.0000
  C   C3369     1.0  0.71826  0.63848  0.12520  1.0000
  C   C3370     1.0  0.70063  0.61332  0.12448  1.0000
  H   H2714     1.0  0.82985  0.73330  0.98854  1.0000
  C   C3371     1.0  0.96280  0.63024  0.07368  1.0000
  C   C3372     1.0  0.69349  0.64650  0.10765  1.0000
  C   C3373     1.0  0.71458  0.65497  0.11661  1.0000
  H   H2715     1.0  0.69520  0.60355  0.17620  1.0000
  H   H2716     1.0  0.76609  0.60650  0.17458  1.0000
  H   H2717     1.0  0.77502  0.63106  0.15332  1.0000
  H   H2718     1.0  0.70355  0.62799  0.15470  1.0000
  H   H2719     1.0  0.79949  0.67371  0.13951  1.0000
  H   H2720     1.0  0.83147  0.67062  0.12572  1.0000
  H   H2721     1.0  0.81979  0.64146  0.10469  1.0000
  H   H2722     1.0  0.77567  0.61491  0.09766  1.0000
  H   H2723     1.0  0.74343  0.61771  0.11137  1.0000
  H   H2724     1.0  0.77259  0.69473  0.12165  1.0000
  H   H2725     1.0  0.78797  0.73873  0.12870  1.0000
  H   H2726     1.0  0.70329  0.60009  0.13070  1.0000
  C   C3374     1.0  0.73080  0.50193  0.23127  1.0000
  C   C3375     1.0  0.97893  0.79974  0.09710  1.0000
  H   H2727     1.0  0.69084  0.65928  0.10096  1.0000
  H   H2728     1.0  0.72795  0.67430  0.11660  1.0000
  C   C3376     1.0  0.84619  0.85482  0.13799  1.0000
  C   C3377     1.0  0.85385  0.83771  0.14213  1.0000
  C   C3378     1.0  0.86663  0.84129  0.15516  1.0000
  C   C3379     1.0  0.87210  0.86218  0.16398  1.0000
  C   C3380     1.0  0.86526  0.87997  0.15965  1.0000
  C   C3381     1.0  0.85160  0.87573  0.14678  1.0000
  P   P112      1.0  0.87151  0.90672  0.17106  1.0000
  C   C3382     1.0  0.84381  0.89861  0.18046  1.0000
  C   C3383     1.0  0.89756  0.91512  0.18323  1.0000
  C   C3384     1.0  0.89838  0.92571  0.19680  1.0000
  C   C3385     1.0  0.91904  0.93304  0.20598  1.0000
  C   C3386     1.0  0.93907  0.93012  0.20162  1.0000
  C   C3387     1.0  0.93873  0.92036  0.18798  1.0000
  C   C3388     1.0  0.91814  0.91312  0.17876  1.0000
  C   C3389     1.0  0.82623  0.90537  0.17545  1.0000
  C   C3390     1.0  0.80468  0.89880  0.18275  1.0000
  C   C3391     1.0  0.72314  0.96117  0.03460  1.0000
  C   C3392     1.0  0.95634  0.64649  0.10051  1.0000
  C   C3393     1.0  0.83909  0.88436  0.19249  1.0000
  C   C3394     1.0  0.87989  0.93394  0.16100  1.0000
  C   C3395     1.0  0.89004  0.93579  0.14765  1.0000
  C   C3396     1.0  0.89780  0.95748  0.14024  1.0000
  C   C3397     1.0  0.71117  0.76356  0.11174  1.0000
  C   C3398     1.0  0.96924  0.87779  0.10702  1.0000
  C   C3399     1.0  0.87823  0.95436  0.16700  1.0000
  H   H2729     1.0  0.83627  0.85195  0.12788  1.0000
  H   H2730     1.0  0.85014  0.82182  0.13516  1.0000
  H   H2731     1.0  0.87276  0.82806  0.15826  1.0000
  C   C3400     1.0  0.94994  0.64386  0.07495  1.0000
  H   H2732     1.0  0.81412  0.86705  0.20915  1.0000
  C   C3401     1.0  0.75446  0.68836  0.15581  1.0000
  H   H2733     1.0  0.73135  0.70042  0.99015  1.0000
  H   H2734     1.0  0.71298  0.76733  0.02677  1.0000
  H   H2735     1.0  0.87579  0.67966  0.01907  1.0000
  C   C3402     1.0  0.96662  0.79621  0.05871  1.0000
  C   C3403     1.0  0.75572  0.74853  0.00595  1.0000
  C   C3404     1.0  0.69237  0.81054  0.99369  1.0000
  C   C3405     1.0  0.93031  0.60309  0.14481  1.0000
  H   H2736     1.0  0.67461  0.66053  0.05284  1.0000
  C   C3406     1.0  0.74436  0.69353  0.99222  1.0000
  S   S463      1.0  0.94893  0.97540  0.17053  1.0000
  H   H2737     1.0  0.94469  0.78384  0.08437  1.0000
  H   H2738     1.0  0.76640  0.94050  0.00294  1.0000
  C   C3407     1.0  0.82467  0.52434  0.22370  1.0000
  C   C3408     1.0  0.95569  0.76211  0.04146  1.0000
  H   H2739     1.0  0.68080  0.73186  0.10079  1.0000
  C   C3409     1.0  0.95697  0.54434  0.20370  1.0000
  H   H2740     1.0  0.95518  0.93608  0.20869  1.0000
  C   C3410     1.0  0.74464  0.81295  0.08973  1.0000
  H   H2741     1.0  0.75741  0.76022  0.13060  1.0000
  C   C3411     1.0  0.92778  0.70254  0.00033  1.0000
  C   C3412     1.0  0.69543  0.66655  0.01403  1.0000
  H   H2742     1.0  0.97456  0.84851  0.13591  1.0000
  C   C3413     1.0  0.82652  0.73296  0.21072  1.0000
  C   C3414     1.0  0.95333  0.78950  0.09489  1.0000
  C   C3415     1.0  0.67592  0.62153  0.10717  1.0000
  C   C3416     1.0  0.91272  0.69428  0.01190  1.0000
  C   C3417     1.0  0.77032  0.68492  0.00833  1.0000
  P   P113      1.0  0.74265  0.70548  0.02089  1.0000
  C   C3418     1.0  0.95442  0.55318  0.17007  1.0000
  C   C3419     1.0  0.87323  0.74926  0.19987  1.0000
  C   C3420     1.0  0.98154  0.78869  0.06646  1.0000
  C   C3421     1.0  0.77535  0.69746  0.05735  1.0000
  C   C3422     1.0  0.68572  0.79151  0.00318  1.0000
  H   H2743     1.0  0.94719  0.70781  0.00163  1.0000
  C   C3423     1.0  0.88582  0.53549  0.16528  1.0000
  C   C3424     1.0  0.65842  0.88516  0.01829  1.0000
  C   C3425     1.0  0.69172  0.71042  0.98616  1.0000
  C   C3426     1.0  0.70347  0.72092  0.11307  1.0000
  C   C3427     1.0  0.77691  0.73665  0.04210  1.0000
  C   C3428     1.0  0.66197  0.86415  0.01938  1.0000
  C   C3429     1.0  0.94863  0.79224  0.12023  1.0000
  S   S464      1.0  0.66102  0.95267  0.01511  1.0000
  C   C3430     1.0  0.74734  0.92725  0.00041  1.0000
  C   C3431     1.0  0.97047  0.75452  0.04911  1.0000
  H   H2744     1.0  0.77733  0.83291  0.07802  1.0000
  H   H2745     1.0  0.93780  0.66360  0.08926  1.0000
  C   C3432     1.0  0.96886  0.63236  0.09935  1.0000
  H   H2746     1.0  0.98168  0.53308  0.10936  1.0000
  H   H2747     1.0  0.73060  0.71540  0.12497  1.0000
  H   H2748     1.0  0.92188  0.57867  0.19099  1.0000
  H   H2749     1.0  0.96623  0.62483  0.06326  1.0000
  H   H2750     1.0  0.66593  0.58553  0.11509  1.0000
  C   C3433     1.0  0.66357  0.50486  0.22758  1.0000
  C   C3434     1.0  0.71946  0.79586  0.08895  1.0000
  C   C3435     1.0  0.95368  0.78290  0.04629  1.0000
  H   H2751     1.0  0.83727  0.68403  0.21336  1.0000
  C   C3436     1.0  0.87118  0.56541  0.17001  1.0000
  H   H2752     1.0  0.73780  0.79342  0.00763  1.0000
  C   C3437     1.0  0.84535  0.73238  0.21915  1.0000
  H   H2753     1.0  0.69244  0.70149  0.10992  1.0000
  H   H2754     1.0  0.88366  0.51902  0.15945  1.0000
  H   H2755     1.0  0.92786  0.50852  0.15360  1.0000
  C   C3438     1.0  0.65355  0.75476  0.11037  1.0000
  H   H2756     1.0  0.92457  0.62456  0.16143  1.0000
  H   H2757     1.0  0.96229  0.73029  0.10988  1.0000
  H   H2758     1.0  0.70033  0.66819  0.00306  1.0000
  C   C3439     1.0  0.96232  0.55388  0.10470  1.0000
  H   H2759     1.0  0.94887  0.58519  0.16703  1.0000
  H   H2760     1.0  0.75417  0.82055  0.09991  1.0000
  C   C3440     1.0  0.71208  0.81229  0.11738  1.0000
  H   H2761     1.0  0.70667  0.79110  0.13615  1.0000
  C   C3441     1.0  0.67487  0.97013  0.98826  1.0000
  H   H2762     1.0  0.72554  0.50601  0.22102  1.0000
  H   H2763     1.0  0.86407  0.72292  0.98893  1.0000
  C   C3442     1.0  0.96051  0.57671  0.16512  1.0000
  C   C3443     1.0  0.97046  0.54315  0.16776  1.0000
  H   H2764     1.0  0.71706  0.83823  0.10106  1.0000
  C   C3444     1.0  0.94477  0.60351  0.13350  1.0000
  H   H2765     1.0  0.66019  0.74691  0.11845  1.0000
  H   H2766     1.0  0.67868  0.50060  0.22789  1.0000
  C   C3445     1.0  0.91777  0.70343  0.98701  1.0000
  C   C3446     1.0  0.65230  0.84665  0.05932  1.0000
  H   H2767     1.0  0.91467  0.58583  0.14741  1.0000
  H   H2768     1.0  0.93995  0.58641  0.12750  1.0000
  C   C3447     1.0  0.93589  0.62489  0.15273  1.0000
  C   C3448     1.0  0.97237  0.62465  0.08582  1.0000
  H   H2769     1.0  0.97745  0.97472  0.11632  1.0000
  S   S465      1.0  0.98292  0.71836  0.08582  1.0000
  H   H2770     1.0  0.97447  0.49498  0.08465  1.0000
  H   H2771     1.0  0.72936  0.86848  0.14391  1.0000
  C   C3449     1.0  0.95586  0.64719  0.14927  1.0000
  C   C3450     1.0  0.72458  0.85283  0.13653  1.0000
  H   H2772     1.0  0.72852  0.87390  0.11797  1.0000
  S   S466      1.0  0.81210  0.60703  0.23359  1.0000
  C   C3451     1.0  0.67004  0.77377  0.10210  1.0000
  C   C3452     1.0  0.97027  0.64772  0.13791  1.0000
  H   H2773     1.0  0.95995  0.66420  0.15525  1.0000
  C   C3453     1.0  0.96495  0.62583  0.12997  1.0000
  C   C3454     1.0  0.71782  0.83568  0.11235  1.0000
  H   H2774     1.0  0.74553  0.99076  0.10211  1.0000
  C   C3455     1.0  0.96245  0.54740  0.21832  1.0000
  C   C3456     1.0  0.73549  0.92949  0.98813  1.0000
  H   H2775     1.0  0.87236  0.64576  0.23287  1.0000
  C   C3457     1.0  0.86612  0.65963  0.23359  1.0000
  H   H2776     1.0  0.79804  0.66739  0.23284  1.0000
  C   C3458     1.0  0.98200  0.55094  0.11024  1.0000
  H   H2777     1.0  0.98044  0.55070  0.22226  1.0000
  C   C3459     1.0  0.94454  0.54540  0.22779  1.0000
  Fe  Fe232     1.0  0.78835  0.56578  0.23475  1.0000
  H   H2778     1.0  0.70893  0.72731  0.98586  1.0000
  C   C3460     1.0  0.84899  0.69482  0.23552  1.0000
  H   H2779     1.0  0.98300  0.53629  0.07622  1.0000
  C   C3461     1.0  0.98315  0.59742  0.11265  1.0000
  P   P114      1.0  0.98301  0.62689  0.11489  1.0000
  H   H2780     1.0  0.98314  0.61496  0.08456  1.0000
  C   C3462     1.0  0.98196  0.58965  0.15769  1.0000
  C   C3463     1.0  0.97746  0.49137  0.19602  1.0000
  H   H2781     1.0  0.89260  0.49122  0.19384  1.0000
  C   C3464     1.0  0.72354  0.50925  0.24369  1.0000
  H   H2782     1.0  0.94860  0.54730  0.23913  1.0000
  S   S467      1.0  0.69103  0.94646  0.42212  1.0000
  C   C3465     1.0  0.90936  0.65000  0.37068  1.0000
  Fe  Fe233     1.0  0.67971  0.95210  0.40033  1.0000
  H   H2783     1.0  0.95212  0.70017  0.42340  1.0000
  H   H2784     1.0  0.72081  0.68619  0.42525  1.0000
  H   H2785     1.0  0.87681  0.66895  0.25576  1.0000
  C   C3466     1.0  0.74982  0.68634  0.43866  1.0000
  H   H2786     1.0  0.71303  0.51921  0.24280  1.0000
  C   C3467     1.0  0.80761  0.63294  0.32662  1.0000
  H   H2787     1.0  0.91544  0.70667  0.42150  1.0000
  H   H2788     1.0  0.93284  0.52170  0.29087  1.0000
  Fe  Fe234     1.0  0.67684  0.70564  0.40494  1.0000
  S   S468      1.0  0.70816  0.69840  0.39680  1.0000
  S   S469      1.0  0.68399  0.73778  0.42010  1.0000
  H   H2789     1.0  0.67078  0.79815  0.42844  1.0000
  H   H2790     1.0  0.97093  0.56195  0.29329  1.0000
  Fe  Fe235     1.0  0.95607  0.95652  0.30364  1.0000
  S   S470      1.0  0.92735  0.91544  0.30277  1.0000
  Fe  Fe236     1.0  0.87911  0.74053  0.35922  1.0000
  S   S471      1.0  0.89850  0.75666  0.33935  1.0000
  S   S472      1.0  0.89283  0.72249  0.37585  1.0000
  Fe  Fe237     1.0  0.83435  0.74809  0.35029  1.0000
  S   S473      1.0  0.85127  0.76450  0.32949  1.0000
  S   S474      1.0  0.79752  0.74795  0.35464  1.0000
  Fe  Fe238     1.0  0.86168  0.73373  0.32778  1.0000
  S   S475      1.0  0.86386  0.71146  0.30828  1.0000
  Fe  Fe239     1.0  0.88657  0.78611  0.34253  1.0000
  S   S476      1.0  0.91482  0.82737  0.34240  1.0000
  S   S477      1.0  0.84262  0.71595  0.34759  1.0000
  S   S478      1.0  0.86937  0.77139  0.36338  1.0000
  C   C3468     1.0  0.92601  0.58845  0.32555  1.0000
  Fe  Fe240     1.0  0.78211  0.61128  0.24450  1.0000
  S   S479      1.0  0.75955  0.57051  0.24708  1.0000
  S   S480      1.0  0.78226  0.63763  0.26237  1.0000
  P   P115      1.0  0.72257  0.51551  0.27311  1.0000
  C   C3469     1.0  0.76343  0.89695  0.36921  1.0000
  C   C3470     1.0  0.73507  0.64620  0.34655  1.0000
  H   H2791     1.0  0.65795  0.63845  0.47931  1.0000
  C   C3471     1.0  0.84097  0.69111  0.29552  1.0000
  C   C3472     1.0  0.84585  0.67474  0.28698  1.0000
  C   C3473     1.0  0.82830  0.65838  0.27664  1.0000
  C   C3474     1.0  0.80577  0.65845  0.27463  1.0000
  C   C3475     1.0  0.80120  0.67522  0.28291  1.0000
  C   C3476     1.0  0.81857  0.69139  0.29334  1.0000
  H   H2792     1.0  0.86324  0.67457  0.28846  1.0000
  H   H2793     1.0  0.83211  0.64562  0.27031  1.0000
  H   H2794     1.0  0.78416  0.67585  0.28107  1.0000
  H   H2795     1.0  0.81481  0.70431  0.29952  1.0000
  H   H2796     1.0  0.83441  0.67154  0.32716  1.0000
  C   C3477     1.0  0.92396  0.89125  0.31402  1.0000
  C   C3478     1.0  0.90674  0.86663  0.30999  1.0000
  C   C3479     1.0  0.90334  0.84682  0.31859  1.0000
  C   C3480     1.0  0.91708  0.85147  0.33138  1.0000
  C   C3481     1.0  0.93394  0.87612  0.33550  1.0000
  C   C3482     1.0  0.93755  0.89589  0.32687  1.0000
  H   H2797     1.0  0.89602  0.86283  0.30012  1.0000
  H   H2798     1.0  0.89025  0.82800  0.31527  1.0000
  H   H2799     1.0  0.94415  0.87988  0.34551  1.0000
  H   H2800     1.0  0.95070  0.91469  0.33021  1.0000
  H   H2801     1.0  0.88735  0.62920  0.43442  1.0000
  C   C3483     1.0  0.87939  0.97296  0.29969  1.0000
  H   H2802     1.0  0.93080  0.51808  0.33614  1.0000
  C   C3484     1.0  0.96809  0.75297  0.37768  1.0000
  C   C3485     1.0  0.94395  0.74895  0.37440  1.0000
  C   C3486     1.0  0.92375  0.72900  0.37997  1.0000
  C   C3487     1.0  0.92810  0.71328  0.38890  1.0000
  C   C3488     1.0  0.95224  0.71729  0.39215  1.0000
  C   C3489     1.0  0.84307  0.50269  0.24330  1.0000
  H   H2803     1.0  0.94098  0.76125  0.36755  1.0000
  H   H2804     1.0  0.91267  0.69768  0.39315  1.0000
  C   C3490     1.0  0.73358  0.71356  0.38557  1.0000
  C   C3491     1.0  0.73530  0.73175  0.37634  1.0000
  C   C3492     1.0  0.75499  0.74202  0.36705  1.0000
  C   C3493     1.0  0.77346  0.73455  0.36692  1.0000
  C   C3494     1.0  0.77185  0.71650  0.37623  1.0000
  C   C3495     1.0  0.75202  0.70604  0.38542  1.0000
  H   H2805     1.0  0.72126  0.73766  0.37621  1.0000
  H   H2806     1.0  0.75593  0.75590  0.35990  1.0000
  H   H2807     1.0  0.78574  0.71041  0.37625  1.0000
  H   H2808     1.0  0.75086  0.69187  0.39241  1.0000
  H   H2809     1.0  0.82780  0.51729  0.25911  1.0000
  H   H2810     1.0  0.77617  0.68755  0.45437  1.0000
  C   C3496     1.0  0.86179  0.97449  0.30827  1.0000
  H   H2811     1.0  0.76692  0.97627  0.41763  1.0000
  C   C3497     1.0  0.96063  0.55143  0.32846  1.0000
  H   H2812     1.0  0.79888  0.96816  0.35946  1.0000
  C   C3498     1.0  0.90981  0.58960  0.33531  1.0000
  C   C3499     1.0  0.68798  0.88146  0.38237  1.0000
  C   C3500     1.0  0.71044  0.84303  0.38753  1.0000
  S   S481      1.0  0.66813  0.71608  0.45838  1.0000
  C   C3501     1.0  0.93368  0.65390  0.36994  1.0000
  C   C3502     1.0  0.97787  0.51754  0.37619  1.0000
  H   H2813     1.0  0.92222  0.54583  0.34906  1.0000
  C   C3503     1.0  0.66975  0.69730  0.47214  1.0000
  H   H2814     1.0  0.98438  0.71331  0.35597  1.0000
  H   H2815     1.0  0.69742  0.68972  0.44544  1.0000
  H   H2816     1.0  0.97359  0.52306  0.24253  1.0000
  H   H2817     1.0  0.72043  0.91358  0.44144  1.0000
  Fe  Fe241     1.0  0.65741  0.70907  0.43437  1.0000
  C   C3504     1.0  0.73511  0.66044  0.33512  1.0000
  H   H2818     1.0  0.82128  0.62670  0.32814  1.0000
  C   C3505     1.0  0.72769  0.68701  0.43607  1.0000
  H   H2819     1.0  0.88037  0.70402  0.40738  1.0000
  C   C3506     1.0  0.85531  0.74061  0.25081  1.0000
  C   C3507     1.0  0.83042  0.51571  0.24790  1.0000
  C   C3508     1.0  0.84871  0.98658  0.30329  1.0000
  C   C3509     1.0  0.68535  0.61035  0.29744  1.0000
  H   H2820     1.0  0.67770  0.55875  0.25481  1.0000
  C   C3510     1.0  0.78669  0.91656  0.39117  1.0000
  C   C3511     1.0  0.72769  0.90519  0.42032  1.0000
  C   C3512     1.0  0.75308  0.73703  0.48428  1.0000
  C   C3513     1.0  0.69382  0.60304  0.28549  1.0000
  C   C3514     1.0  0.74498  0.94668  0.43112  1.0000
  H   H2821     1.0  0.75734  0.73910  0.47317  1.0000
  C   C3515     1.0  0.77247  0.64944  0.32230  1.0000
  C   C3516     1.0  0.72415  0.67598  0.33659  1.0000
  H   H2822     1.0  0.74878  0.87269  0.41634  1.0000
  H   H2823     1.0  0.93033  0.65428  0.46949  1.0000
  C   C3517     1.0  0.92895  0.51808  0.31343  1.0000
  C   C3518     1.0  0.67201  0.84635  0.47351  1.0000
  H   H2824     1.0  0.89175  0.57388  0.33614  1.0000
  C   C3519     1.0  0.71318  0.89706  0.38093  1.0000
  C   C3520     1.0  0.70210  0.62755  0.30760  1.0000
  C   C3521     1.0  0.89330  0.67860  0.43611  1.0000
  C   C3522     1.0  0.76396  0.90386  0.38360  1.0000
  H   H2825     1.0  0.73100  0.52059  0.30418  1.0000
  C   C3523     1.0  0.91686  0.61101  0.34401  1.0000
  C   C3524     1.0  0.70343  0.81859  0.39092  1.0000
  H   H2826     1.0  0.89652  0.59590  0.42614  1.0000
  H   H2827     1.0  0.80153  0.74303  0.48472  1.0000
  C   C3525     1.0  0.87719  0.69228  0.41635  1.0000
  C   C3526     1.0  0.91117  0.64685  0.39618  1.0000
  H   H2828     1.0  0.86229  0.69996  0.25755  1.0000
  H   H2829     1.0  0.74603  0.88648  0.36330  1.0000
  C   C3527     1.0  0.90618  0.63244  0.43493  1.0000
  C   C3528     1.0  0.76592  0.66967  0.23912  1.0000
  C   C3529     1.0  0.72616  0.86281  0.39688  1.0000
  C   C3530     1.0  0.94936  0.65840  0.44125  1.0000
  H   H2830     1.0  0.94617  0.72402  0.46600  1.0000
  H   H2831     1.0  0.66611  0.78954  0.46361  1.0000
  C   C3531     1.0  0.95792  0.60078  0.37633  1.0000
  C   C3532     1.0  0.89717  0.69367  0.42445  1.0000
  H   H2832     1.0  0.96384  0.50569  0.27248  1.0000
  H   H2833     1.0  0.93397  0.65881  0.32270  1.0000
  C   C3533     1.0  0.97413  0.88297  0.29124  1.0000
  H   H2834     1.0  0.81402  0.94480  0.34450  1.0000
  C   C3534     1.0  0.80677  0.70499  0.23946  1.0000
  H   H2835     1.0  0.76445  0.72200  0.25092  1.0000
  C   C3535     1.0  0.86085  0.75069  0.27626  1.0000
  C   C3536     1.0  0.87963  0.77437  0.27385  1.0000
  C   C3537     1.0  0.88615  0.78134  0.25997  1.0000
  C   C3538     1.0  0.93225  0.58855  0.37567  1.0000
  S   S482      1.0  0.67595  0.98828  0.44786  1.0000
  Fe  Fe242     1.0  0.65946  0.90754  0.41961  1.0000
  H   H2836     1.0  0.96148  0.60815  0.31653  1.0000
  H   H2837     1.0  0.68083  0.58980  0.27761  1.0000
  C   C3539     1.0  0.98136  0.67655  0.35666  1.0000
  H   H2838     1.0  0.87936  0.77041  0.23783  1.0000
  C   C3540     1.0  0.98267  0.93381  0.36299  1.0000
  H   H2839     1.0  0.74655  0.95902  0.44003  1.0000
  H   H2840     1.0  0.85593  0.74518  0.28704  1.0000
  H   H2841     1.0  0.88912  0.78728  0.28278  1.0000
  H   H2842     1.0  0.90065  0.79978  0.25813  1.0000
  C   C3541     1.0  0.78479  0.73846  0.30197  1.0000
  H   H2843     1.0  0.87978  0.64448  0.38428  1.0000
  C   C3542     1.0  0.89081  0.94428  0.32878  1.0000
  C   C3543     1.0  0.68024  0.92955  0.46368  1.0000
  H   H2844     1.0  0.89814  0.98291  0.28004  1.0000
  H   H2845     1.0  0.69055  0.80328  0.38397  1.0000
  P   P116      1.0  0.75785  0.69381  0.48224  1.0000
  C   C3544     1.0  0.75984  0.69414  0.29772  1.0000
  C   C3545     1.0  0.87406  0.76455  0.24846  1.0000
  C   C3546     1.0  0.96166  0.55302  0.30270  1.0000
  H   H2846     1.0  0.91632  0.68169  0.30983  1.0000
  S   S483      1.0  0.65161  0.67685  0.41975  1.0000
  H   H2847     1.0  0.97138  0.86198  0.33845  1.0000
  H   H2848     1.0  0.96428  0.67549  0.44570  1.0000
  C   C3547     1.0  0.72882  0.83325  0.41260  1.0000
  C   C3548     1.0  0.80861  0.92286  0.38433  1.0000
  C   C3549     1.0  0.73076  0.50472  0.25704  1.0000
  C   C3550     1.0  0.71909  0.61297  0.28366  1.0000
  H   H2849     1.0  0.78751  0.92132  0.40240  1.0000
  H   H2850     1.0  0.70341  0.84630  0.37764  1.0000
  C   C3551     1.0  0.97242  0.73727  0.38662  1.0000
  H   H2851     1.0  0.83779  0.67501  0.41349  1.0000
  C   C3552     1.0  0.94911  0.60888  0.32429  1.0000
  C   C3553     1.0  0.88415  0.98373  0.28648  1.0000
  C   C3554     1.0  0.94023  0.53031  0.30133  1.0000
  C   C3555     1.0  0.69676  0.86097  0.47032  1.0000
  H   H2852     1.0  0.67893  0.83973  0.43813  1.0000
  H   H2853     1.0  0.75536  0.63764  0.29218  1.0000
  P   P117      1.0  0.74964  0.65956  0.31880  1.0000
  P   P118      1.0  0.85584  0.96089  0.32546  1.0000
  H   H2854     1.0  0.82498  0.92086  0.36475  1.0000
  C   C3556     1.0  0.83261  0.92884  0.32312  1.0000
  C   C3557     1.0  0.83185  0.91140  0.33273  1.0000
  C   C3558     1.0  0.81405  0.88655  0.33088  1.0000
  C   C3559     1.0  0.79660  0.87900  0.31959  1.0000
  C   C3560     1.0  0.79695  0.89632  0.31013  1.0000
  C   C3561     1.0  0.81487  0.92117  0.31188  1.0000
  H   H2855     1.0  0.87994  0.92976  0.32085  1.0000
  C   C3562     1.0  0.91117  0.67560  0.46508  1.0000
  C   C3563     1.0  0.79756  0.66650  0.32400  1.0000
  H   H2856     1.0  0.96544  0.65749  0.38243  1.0000
  H   H2857     1.0  0.97318  0.64219  0.43738  1.0000
  H   H2858     1.0  0.71315  0.69216  0.47008  1.0000
  C   C3564     1.0  0.93248  0.56132  0.35648  1.0000
  C   C3565     1.0  0.93545  0.61700  0.43102  1.0000
  C   C3566     1.0  0.71039  0.84984  0.46493  1.0000
  H   H2859     1.0  0.79812  0.75067  0.32361  1.0000
  H   H2860     1.0  0.73589  0.82933  0.42228  1.0000
  H   H2861     1.0  0.82612  0.93267  0.39022  1.0000
  C   C3567     1.0  0.80761  0.72911  0.48373  1.0000
  S   S484      1.0  0.80493  0.54252  0.24473  1.0000
  C   C3568     1.0  0.67170  0.49870  0.27094  1.0000
  C   C3569     1.0  0.78770  0.73488  0.31631  1.0000
  H   H2862     1.0  0.84521  0.91690  0.34156  1.0000
  H   H2863     1.0  0.81392  0.87307  0.33815  1.0000
  H   H2864     1.0  0.78291  0.85969  0.31812  1.0000
  H   H2865     1.0  0.78346  0.89045  0.30134  1.0000
  C   C3570     1.0  0.98111  0.84047  0.35221  1.0000
  C   C3571     1.0  0.72750  0.63741  0.30588  1.0000
  C   C3572     1.0  0.72346  0.69038  0.46139  1.0000
  H   H2866     1.0  0.74586  0.61050  0.32182  1.0000
  C   C3573     1.0  0.81502  0.65823  0.32609  1.0000
  C   C3574     1.0  0.82377  0.96478  0.34488  1.0000
  C   C3575     1.0  0.83287  0.73664  0.48398  1.0000
  H   H2867     1.0  0.78622  0.66668  0.47961  1.0000
  H   H2868     1.0  0.98270  0.76403  0.46289  1.0000
  C   C3576     1.0  0.66750  0.90392  0.46507  1.0000
  H   H2869     1.0  0.94544  0.65098  0.40522  1.0000
  C   C3577     1.0  0.67601  0.54235  0.25983  1.0000
  C   C3578     1.0  0.69521  0.51876  0.26944  1.0000
  C   C3579     1.0  0.69713  0.54051  0.26369  1.0000
  C   C3580     1.0  0.93523  0.65036  0.39555  1.0000
  C   C3581     1.0  0.69551  0.94505  0.47486  1.0000
  H   H2870     1.0  0.65414  0.66292  0.45969  1.0000
  H   H2871     1.0  0.80877  0.73993  0.24652  1.0000
  H   H2872     1.0  0.92228  0.59428  0.38292  1.0000
  H   H2873     1.0  0.89919  0.65030  0.36122  1.0000
  C   C3582     1.0  0.74811  0.54477  0.27940  1.0000
  C   C3583     1.0  0.74392  0.56266  0.28678  1.0000
  C   C3584     1.0  0.76356  0.58597  0.29058  1.0000
  C   C3585     1.0  0.78754  0.59149  0.28734  1.0000
  C   C3586     1.0  0.79198  0.57353  0.28046  1.0000
  C   C3587     1.0  0.77241  0.55021  0.27661  1.0000
  C   C3588     1.0  0.67053  0.88412  0.37387  1.0000
  H   H2874     1.0  0.71489  0.55581  0.26169  1.0000
  H   H2875     1.0  0.74889  0.67876  0.29035  1.0000
  H   H2876     1.0  0.89177  0.69735  0.46476  1.0000
  C   C3589     1.0  0.97743  0.53742  0.36947  1.0000
  C   C3590     1.0  0.92055  0.98218  0.34856  1.0000
  H   H2877     1.0  0.72545  0.55889  0.28927  1.0000
  H   H2878     1.0  0.76019  0.60008  0.29567  1.0000
  H   H2879     1.0  0.80259  0.60986  0.28989  1.0000
  H   H2880     1.0  0.81048  0.57788  0.27761  1.0000
  H   H2881     1.0  0.77637  0.53699  0.27089  1.0000
  H   H2882     1.0  0.72466  0.63695  0.36813  1.0000
  C   C3591     1.0  0.77187  0.71019  0.24693  1.0000
  C   C3592     1.0  0.79696  0.72026  0.24446  1.0000
  C   C3593     1.0  0.89821  0.64657  0.38375  1.0000
  C   C3594     1.0  0.85318  0.67592  0.41980  1.0000
  H   H2883     1.0  0.74361  0.63432  0.34586  1.0000
  C   C3595     1.0  0.73585  0.85775  0.40925  1.0000
  C   C3596     1.0  0.78538  0.90319  0.36241  1.0000
  C   C3597     1.0  0.69940  0.82411  0.46263  1.0000
  S   S485      1.0  0.70459  0.96882  0.38165  1.0000
  H   H2884     1.0  0.86554  0.65032  0.44836  1.0000
  H   H2885     1.0  0.92060  0.57181  0.31886  1.0000
  H   H2886     1.0  0.69518  0.63303  0.31675  1.0000
  C   C3598     1.0  0.95831  0.57373  0.35693  1.0000
  C   C3599     1.0  0.86904  0.66218  0.43947  1.0000
  H   H2887     1.0  0.73697  0.67689  0.24638  1.0000
  C   C3600     1.0  0.66865  0.83256  0.42813  1.0000
  H   H2888     1.0  0.97200  0.91704  0.29255  1.0000
  H   H2889     1.0  0.94414  0.96504  0.34866  1.0000
  H   H2890     1.0  0.72414  0.68738  0.32802  1.0000
  P   P119      1.0  0.94845  0.66009  0.35307  1.0000
  P   P120      1.0  0.65364  0.86048  0.47964  1.0000
  H   H2891     1.0  0.83045  0.64823  0.43403  1.0000
  H   H2892     1.0  0.97823  0.51876  0.33510  1.0000
  H   H2893     1.0  0.95526  0.70478  0.39874  1.0000
  C   C3601     1.0  0.70312  0.91929  0.36320  1.0000
  C   C3602     1.0  0.93908  0.52853  0.32693  1.0000
  C   C3603     1.0  0.91130  0.61346  0.43025  1.0000
  C   C3604     1.0  0.94588  0.70928  0.44474  1.0000
  C   C3605     1.0  0.77083  0.71809  0.29268  1.0000
  H   H2894     1.0  0.92118  0.72375  0.34809  1.0000
  S   S486      1.0  0.65365  0.96546  0.40836  1.0000
  C   C3606     1.0  0.71358  0.67743  0.34932  1.0000
  P   P121      1.0  0.91891  0.67977  0.44663  1.0000
  H   H2895     1.0  0.86082  0.72490  0.48310  1.0000
  H   H2896     1.0  0.76212  0.94835  0.39702  1.0000
  C   C3607     1.0  0.91774  0.70420  0.32813  1.0000
  C   C3608     1.0  0.71450  0.68897  0.44744  1.0000
  H   H2897     1.0  0.76004  0.68497  0.42979  1.0000
  H   H2898     1.0  0.98267  0.89934  0.35841  1.0000
  H   H2899     1.0  0.97886  0.85042  0.29294  1.0000
  C   C3609     1.0  0.92530  0.65528  0.44021  1.0000
  C   C3610     1.0  0.95829  0.71415  0.43198  1.0000
  C   C3611     1.0  0.94652  0.65401  0.38251  1.0000
  C   C3612     1.0  0.91953  0.56873  0.36581  1.0000
  H   H2900     1.0  0.72581  0.60761  0.27433  1.0000
  C   C3613     1.0  0.71246  0.81368  0.40349  1.0000
  H   H2901     1.0  0.78480  0.89771  0.35132  1.0000
  C   C3614     1.0  0.71357  0.66317  0.36060  1.0000
  H   H2902     1.0  0.68180  0.86747  0.39020  1.0000
  C   C3615     1.0  0.97087  0.59343  0.36703  1.0000
  C   C3616     1.0  0.67809  0.90310  0.36432  1.0000
  H   H2903     1.0  0.89961  0.55903  0.36542  1.0000
  H   H2904     1.0  0.83409  0.71565  0.26684  1.0000
  C   C3617     1.0  0.73044  0.92111  0.43197  1.0000
  H   H2905     1.0  0.71549  0.88555  0.42099  1.0000
  C   C3618     1.0  0.84910  0.66089  0.43136  1.0000
  H   H2906     1.0  0.76853  0.72083  0.28157  1.0000
  C   C3619     1.0  0.95444  0.63944  0.43659  1.0000
  C   C3620     1.0  0.81504  0.97798  0.35332  1.0000
  C   C3621     1.0  0.72063  0.91642  0.37153  1.0000
  H   H2907     1.0  0.80390  0.68618  0.32352  1.0000
  C   C3622     1.0  0.67476  0.80947  0.46570  1.0000
  C   C3623     1.0  0.93790  0.67832  0.34301  1.0000
  C   C3624     1.0  0.73977  0.91472  0.40778  1.0000
  S   S487      1.0  0.94319  0.98319  0.29585  1.0000
  S   S488      1.0  0.66620  0.87649  0.42840  1.0000
  C   C3625     1.0  0.91231  0.94513  0.33457  1.0000
  C   C3626     1.0  0.74580  0.69003  0.46412  1.0000
  C   C3627     1.0  0.80797  0.91617  0.36996  1.0000
  C   C3628     1.0  0.75637  0.68486  0.24432  1.0000
  C   C3629     1.0  0.73584  0.63006  0.29380  1.0000
  C   C3630     1.0  0.76335  0.69034  0.31204  1.0000
  C   C3631     1.0  0.92432  0.70977  0.34257  1.0000
  C   C3632     1.0  0.72431  0.64759  0.35923  1.0000
  H   H2908     1.0  0.79330  0.75704  0.29813  1.0000
  C   C3633     1.0  0.93156  0.67304  0.32841  1.0000
  C   C3634     1.0  0.75645  0.95639  0.41851  1.0000
  H   H2909     1.0  0.93949  0.60234  0.42745  1.0000
  H   H2910     1.0  0.90959  0.71395  0.32248  1.0000
  H   H2911     1.0  0.72934  0.86120  0.46223  1.0000
  C   C3635     1.0  0.75373  0.94050  0.40685  1.0000
  H   H2912     1.0  0.77690  0.59619  0.32556  1.0000
  C   C3636     1.0  0.94022  0.63146  0.34300  1.0000
  P   P122      1.0  0.73557  0.89449  0.39248  1.0000
  H   H2913     1.0  0.70650  0.79463  0.40618  1.0000
  H   H2914     1.0  0.70547  0.88095  0.47166  1.0000
  H   H2915     1.0  0.84996  0.49437  0.25094  1.0000
  H   H2916     1.0  0.90398  0.61160  0.35141  1.0000
  C   C3637     1.0  0.92151  0.68596  0.32103  1.0000
  C   C3638     1.0  0.78265  0.61582  0.32516  1.0000
  H   H2917     1.0  0.70890  0.93477  0.35633  1.0000
  C   C3639     1.0  0.93450  0.69703  0.34996  1.0000
  H   H2918     1.0  0.70584  0.69002  0.35060  1.0000
  C   C3640     1.0  0.75888  0.68782  0.45263  1.0000
  C   C3641     1.0  0.76513  0.62401  0.32302  1.0000
  H   H2919     1.0  0.66452  0.90578  0.35817  1.0000
  H   H2920     1.0  0.93931  0.70148  0.36117  1.0000
  C   C3642     1.0  0.88380  0.96226  0.33298  1.0000
  H   H2921     1.0  0.96797  0.61577  0.38421  1.0000
  H   H2922     1.0  0.73986  0.92973  0.37090  1.0000
  H   H2923     1.0  0.81491  0.93428  0.30441  1.0000
  C   C3643     1.0  0.77716  0.71095  0.32132  1.0000
  H   H2924     1.0  0.77976  0.70856  0.33247  1.0000
  C   C3644     1.0  0.66109  0.82052  0.47108  1.0000
  C   C3645     1.0  0.89753  0.68634  0.47109  1.0000
  H   H2925     1.0  0.91772  0.93139  0.33112  1.0000
  C   C3646     1.0  0.66012  0.84696  0.42079  1.0000
  H   H2926     1.0  0.90274  0.64489  0.40633  1.0000
  C   C3647     1.0  0.84860  0.73396  0.26479  1.0000
  S   S489      1.0  0.97758  0.98152  0.32238  1.0000
  H   H2927     1.0  0.83501  0.98808  0.30964  1.0000
  H   H2928     1.0  0.70566  0.66462  0.37053  1.0000
  C   C3648     1.0  0.96821  0.50073  0.28264  1.0000
  H   H2929     1.0  0.67180  0.96025  0.34491  1.0000
  C   C3649     1.0  0.95479  0.72747  0.45588  1.0000
  C   C3650     1.0  0.95610  0.63040  0.33286  1.0000
  C   C3651     1.0  0.91908  0.66207  0.47365  1.0000
  H   H2930     1.0  0.98353  0.76843  0.37328  1.0000
  C   C3652     1.0  0.86857  0.67264  0.24647  1.0000
  C   C3653     1.0  0.84460  0.97745  0.33682  1.0000
  C   C3654     1.0  0.84124  0.71903  0.48278  1.0000
  C   C3655     1.0  0.97745  0.49780  0.36811  1.0000
  H   H2931     1.0  0.70976  0.81548  0.45819  1.0000
  C   C3656     1.0  0.67001  0.89359  0.47771  1.0000
  C   C3657     1.0  0.82110  0.52666  0.23817  1.0000
  P   P123      1.0  0.97552  0.56310  0.34587  1.0000
  H   H2932     1.0  0.88974  0.96377  0.30318  1.0000
  H   H2933     1.0  0.96948  0.92635  0.37122  1.0000
  C   C3658     1.0  0.97730  0.51831  0.34656  1.0000
  H   H2934     1.0  0.96241  0.82538  0.35212  1.0000
  C   C3659     1.0  0.65602  0.96795  0.47368  1.0000
  C   C3660     1.0  0.72242  0.50111  0.30098  1.0000
  C   C3661     1.0  0.89900  0.98136  0.34284  1.0000
  Fe  Fe243     1.0  0.66322  0.95739  0.43027  1.0000
  C   C3662     1.0  0.92716  0.96404  0.34447  1.0000
  C   C3663     1.0  0.97671  0.53774  0.35458  1.0000
  C   C3664     1.0  0.86011  0.69021  0.24745  1.0000
  H   H2935     1.0  0.67800  0.93750  0.45398  1.0000
  H   H2936     1.0  0.66574  0.60272  0.29881  1.0000
  H   H2937     1.0  0.97377  0.64634  0.33141  1.0000
  H   H2938     1.0  0.96366  0.87680  0.28121  1.0000
  H   H2939     1.0  0.70490  0.96498  0.47382  1.0000
  H   H2940     1.0  0.91287  0.50001  0.31230  1.0000
  C   C3665     1.0  0.66403  0.80893  0.42267  1.0000
  C   C3666     1.0  0.79052  0.70384  0.48227  1.0000
  C   C3667     1.0  0.66184  0.67189  0.46999  1.0000
  H   H2941     1.0  0.71029  0.64847  0.47718  1.0000
  C   C3668     1.0  0.66495  0.96757  0.35327  1.0000
  C   C3669     1.0  0.97191  0.56350  0.31618  1.0000
  C   C3670     1.0  0.97883  0.90570  0.29766  1.0000
  C   C3671     1.0  0.97554  0.75029  0.45416  1.0000
  H   H2942     1.0  0.97890  0.51762  0.38769  1.0000
  H   H2943     1.0  0.97793  0.55258  0.37593  1.0000
  C   C3672     1.0  0.97871  0.73711  0.43020  1.0000
  C   C3673     1.0  0.66404  0.65804  0.48117  1.0000
  H   H2944     1.0  0.65575  0.89232  0.45625  1.0000
  C   C3674     1.0  0.97704  0.49814  0.35330  1.0000
  C   C3675     1.0  0.79908  0.68627  0.48087  1.0000
  C   C3676     1.0  0.67261  0.98871  0.46665  1.0000
  C   C3677     1.0  0.71634  0.49326  0.28662  1.0000
  H   H2945     1.0  0.83080  0.68017  0.48035  1.0000
  C   C3678     1.0  0.82434  0.69385  0.48121  1.0000
  H   H2946     1.0  0.75398  0.64995  0.23735  1.0000
  P   P124      1.0  0.83917  0.71844  0.23622  1.0000
  C   C3679     1.0  0.79102  0.67965  0.23663  1.0000
  C   C3680     1.0  0.89151  0.68319  0.48537  1.0000
  C   C3681     1.0  0.98260  0.86813  0.29788  1.0000
  C   C3682     1.0  0.74535  0.49268  0.25776  1.0000
  C   C3683     1.0  0.65275  0.52241  0.26150  1.0000
  H   H2947     1.0  0.84598  0.75617  0.48517  1.0000
  Fe  Fe244     1.0  0.69048  0.65621  0.53171  1.0000
  S   S490      1.0  0.72949  0.68175  0.53955  1.0000
  S   S491      1.0  0.67633  0.65065  0.50833  1.0000
  Fe  Fe245     1.0  0.67547  0.63336  0.56113  1.0000
  S   S492      1.0  0.71355  0.65833  0.57074  1.0000
  C   C3684     1.0  0.88262  0.98264  0.72530  1.0000
  Fe  Fe246     1.0  0.71229  0.68916  0.55888  1.0000
  S   S493      1.0  0.73098  0.72981  0.56741  1.0000
  Fe  Fe247     1.0  0.72806  0.64932  0.55088  1.0000
  S   S494      1.0  0.75699  0.63587  0.55378  1.0000
  S   S495      1.0  0.67327  0.66515  0.55041  1.0000
  S   S496      1.0  0.69001  0.62280  0.54188  1.0000
  Fe  Fe248     1.0  0.89731  0.66028  0.54337  1.0000
  S   S497      1.0  0.90209  0.62723  0.53643  1.0000
  S   S498      1.0  0.86721  0.66936  0.53482  1.0000
  Fe  Fe249     1.0  0.94663  0.68387  0.56121  1.0000
  S   S499      1.0  0.95463  0.65241  0.55524  1.0000
  Fe  Fe250     1.0  0.94162  0.65531  0.53290  1.0000
  S   S500      1.0  0.95956  0.64982  0.51282  1.0000
  Fe  Fe251     1.0  0.91486  0.62667  0.55913  1.0000
  S   S501      1.0  0.89937  0.59422  0.57442  1.0000
  S   S502      1.0  0.93628  0.68840  0.53877  1.0000
  S   S503      1.0  0.90736  0.65807  0.56610  1.0000
  H   H2948     1.0  0.68986  0.61028  0.49016  1.0000
  C   C3685     1.0  0.65125  0.93069  0.64961  1.0000
  H   H2949     1.0  0.87213  0.97555  0.73466  1.0000
  S   S504      1.0  0.95654  0.94385  0.67105  1.0000
  H   H2950     1.0  0.68844  0.90174  0.49857  1.0000
  H   H2951     1.0  0.67256  0.58200  0.58963  1.0000
  H   H2952     1.0  0.73677  0.73022  0.52396  1.0000
  S   S505      1.0  0.88972  0.93426  0.66589  1.0000
  Fe  Fe252     1.0  0.71059  0.83379  0.61490  1.0000
  S   S506      1.0  0.73207  0.84759  0.63599  1.0000
  S   S507      1.0  0.69391  0.79375  0.60550  1.0000
  Fe  Fe253     1.0  0.70796  0.88265  0.61132  1.0000
  S   S508      1.0  0.72908  0.89953  0.63192  1.0000
  S   S509      1.0  0.68919  0.89914  0.59719  1.0000
  Fe  Fe254     1.0  0.75399  0.88365  0.62533  1.0000
  S   S510      1.0  0.79579  0.90827  0.62440  1.0000
  Fe  Fe255     1.0  0.70541  0.86232  0.64109  1.0000
  S   S511      1.0  0.68982  0.86339  0.66289  1.0000
  S   S512      1.0  0.73394  0.86881  0.60388  1.0000
  S   S513      1.0  0.68277  0.84647  0.62083  1.0000
  C   C3686     1.0  0.91285  0.65882  0.48789  1.0000
  H   H2953     1.0  0.71292  0.85708  0.56668  1.0000
  H   H2954     1.0  0.68111  0.90839  0.62847  1.0000
  C   C3687     1.0  0.98092  0.98695  0.72146  1.0000
  C   C3688     1.0  0.86386  0.92757  0.65424  1.0000
  C   C3689     1.0  0.84007  0.91134  0.65854  1.0000
  C   C3690     1.0  0.81903  0.90509  0.64960  1.0000
  C   C3691     1.0  0.82153  0.91508  0.63620  1.0000
  C   C3692     1.0  0.84534  0.93121  0.63189  1.0000
  C   C3693     1.0  0.86636  0.93745  0.64083  1.0000
  H   H2955     1.0  0.83794  0.90346  0.66884  1.0000
  H   H2956     1.0  0.80090  0.89264  0.65308  1.0000
  H   H2957     1.0  0.84754  0.93901  0.62155  1.0000
  H   H2958     1.0  0.88449  0.94983  0.63731  1.0000
  C   C3694     1.0  0.65798  0.84649  0.68481  1.0000
  C   C3695     1.0  0.66656  0.80040  0.71337  1.0000
  C   C3696     1.0  0.72589  0.94784  0.59528  1.0000
  C   C3697     1.0  0.70209  0.92972  0.59110  1.0000
  C   C3698     1.0  0.68771  0.93604  0.58197  1.0000
  C   C3699     1.0  0.69688  0.96026  0.57717  1.0000
  H   H2959     1.0  0.73715  0.94328  0.60233  1.0000
  H   H2960     1.0  0.66934  0.92215  0.57864  1.0000
  H   H2961     1.0  0.68567  0.96488  0.57013  1.0000
  C   C3700     1.0  0.66177  0.52356  0.59711  1.0000
  H   H2962     1.0  0.97472  0.53598  0.72263  1.0000
  C   C3701     1.0  0.90413  0.56863  0.57953  1.0000
  C   C3702     1.0  0.88863  0.55234  0.58948  1.0000
  C   C3703     1.0  0.89147  0.53186  0.59389  1.0000
  C   C3704     1.0  0.91001  0.52728  0.58847  1.0000
  C   C3705     1.0  0.92563  0.54367  0.57860  1.0000
  C   C3706     1.0  0.92268  0.56407  0.57410  1.0000
  H   H2963     1.0  0.87418  0.55552  0.59379  1.0000
  H   H2964     1.0  0.87945  0.51977  0.60159  1.0000
  H   H2965     1.0  0.94010  0.54050  0.57431  1.0000
  H   H2966     1.0  0.93476  0.57624  0.56644  1.0000
  C   C3707     1.0  0.67402  0.66926  0.49469  1.0000
  C   C3708     1.0  0.78983  0.92711  0.57296  1.0000
  C   C3709     1.0  0.68170  0.69460  0.49688  1.0000
  C   C3710     1.0  0.92013  0.93183  0.72235  1.0000
  C   C3711     1.0  0.66442  0.91822  0.64567  1.0000
  C   C3712     1.0  0.78751  0.64558  0.54812  1.0000
  C   C3713     1.0  0.79901  0.66452  0.53867  1.0000
  C   C3714     1.0  0.82330  0.67144  0.53468  1.0000
  C   C3715     1.0  0.83650  0.65971  0.54014  1.0000
  C   C3716     1.0  0.82496  0.64076  0.54954  1.0000
  C   C3717     1.0  0.80055  0.63357  0.55331  1.0000
  H   H2967     1.0  0.78923  0.67384  0.53448  1.0000
  H   H2968     1.0  0.83198  0.68608  0.52736  1.0000
  H   H2969     1.0  0.83469  0.63140  0.55377  1.0000
  H   H2970     1.0  0.79159  0.61845  0.56026  1.0000
  C   C3718     1.0  0.71988  0.74716  0.57778  1.0000
  C   C3719     1.0  0.73476  0.77295  0.57985  1.0000
  C   C3720     1.0  0.72730  0.78752  0.58831  1.0000
  C   C3721     1.0  0.70465  0.77644  0.59480  1.0000
  C   C3722     1.0  0.68960  0.75067  0.59258  1.0000
  C   C3723     1.0  0.69713  0.73611  0.58416  1.0000
  H   H2971     1.0  0.75215  0.78168  0.57478  1.0000
  H   H2972     1.0  0.73892  0.80731  0.58969  1.0000
  H   H2973     1.0  0.67201  0.74187  0.59748  1.0000
  H   H2974     1.0  0.68542  0.71633  0.58270  1.0000
  H   H2975     1.0  0.65375  0.50491  0.63884  1.0000
  H   H2976     1.0  0.88936  0.52347  0.67145  1.0000
  C   C3724     1.0  0.65417  0.96937  0.48857  1.0000
  H   H2977     1.0  0.75365  0.98586  0.59356  1.0000
  H   H2978     1.0  0.67083  0.86363  0.69036  1.0000
  C   C3725     1.0  0.92693  0.55168  0.66968  1.0000
  H   H2979     1.0  0.96854  0.64043  0.62746  1.0000
  C   C3726     1.0  0.92648  0.67120  0.60695  1.0000
  C   C3727     1.0  0.65249  0.89834  0.69868  1.0000
  H   H2980     1.0  0.95341  0.51393  0.68095  1.0000
  C   C3728     1.0  0.70818  0.62429  0.49364  1.0000
  C   C3729     1.0  0.66444  0.93051  0.62150  1.0000
  C   C3730     1.0  0.97721  0.52886  0.63245  1.0000
  C   C3731     1.0  0.94867  0.54555  0.65004  1.0000
  H   H2981     1.0  0.68064  0.89776  0.52706  1.0000
  C   C3732     1.0  0.90027  0.97663  0.70378  1.0000
  H   H2982     1.0  0.89345  0.73240  0.60243  1.0000
  C   C3733     1.0  0.74634  0.71465  0.50586  1.0000
  C   C3734     1.0  0.75437  0.66153  0.50342  1.0000
  S   S514      1.0  0.91486  0.50178  0.59368  1.0000
  C   C3735     1.0  0.88778  0.96716  0.71623  1.0000
  C   C3736     1.0  0.97221  0.66780  0.49762  1.0000
  H   H2983     1.0  0.66982  0.93037  0.61069  1.0000
  C   C3737     1.0  0.66928  0.87554  0.56049  1.0000
  H   H2984     1.0  0.91905  0.64841  0.49448  1.0000
  H   H2985     1.0  0.70640  0.53994  0.57281  1.0000
  C   C3738     1.0  0.71530  0.87856  0.53180  1.0000
  H   H2986     1.0  0.69973  0.84236  0.54083  1.0000
  H   H2987     1.0  0.93888  0.70570  0.61902  1.0000
  C   C3739     1.0  0.87433  0.88543  0.63495  1.0000
  C   C3740     1.0  0.84607  0.51666  0.55952  1.0000
  C   C3741     1.0  0.69126  0.56323  0.58040  1.0000
  H   H2988     1.0  0.90795  0.66848  0.60518  1.0000
  H   H2989     1.0  0.88996  0.90050  0.64066  1.0000
  C   C3742     1.0  0.93550  0.91469  0.70408  1.0000
  C   C3743     1.0  0.74313  0.66486  0.49108  1.0000
  C   C3744     1.0  0.76834  0.92160  0.58005  1.0000
  C   C3745     1.0  0.69111  0.91603  0.53209  1.0000
  C   C3746     1.0  0.71944  0.62117  0.50590  1.0000
  C   C3747     1.0  0.72258  0.94425  0.54914  1.0000
  C   C3748     1.0  0.76614  0.91326  0.55057  1.0000
  H   H2990     1.0  0.92681  0.56238  0.67902  1.0000
  C   C3749     1.0  0.74802  0.75450  0.49130  1.0000
  H   H2991     1.0  0.93996  0.57248  0.63119  1.0000
  H   H2992     1.0  0.83298  0.51238  0.56778  1.0000
  C   C3750     1.0  0.68680  0.93536  0.52769  1.0000
  H   H2993     1.0  0.73802  0.76545  0.51102  1.0000
  H   H2994     1.0  0.68917  0.78468  0.70587  1.0000
  C   C3751     1.0  0.93827  0.92618  0.71750  1.0000
  H   H2995     1.0  0.96748  0.60586  0.59183  1.0000
  C   C3752     1.0  0.85166  0.49854  0.55375  1.0000
  H   H2996     1.0  0.87301  0.49108  0.53823  1.0000
  H   H2997     1.0  0.71553  0.84309  0.49682  1.0000
  C   C3753     1.0  0.67971  0.78711  0.71484  1.0000
  C   C3754     1.0  0.69566  0.85772  0.56716  1.0000
  C   C3755     1.0  0.88066  0.52914  0.53848  1.0000
  C   C3756     1.0  0.87528  0.54713  0.54446  1.0000
  C   C3757     1.0  0.85781  0.54081  0.55484  1.0000
  Fe  Fe256     1.0  0.98005  0.96285  0.65289  1.0000
  H   H2998     1.0  0.89427  0.53412  0.53045  1.0000
  H   H2999     1.0  0.88488  0.56611  0.54121  1.0000
  H   H3000     1.0  0.85395  0.55492  0.55958  1.0000
  H   H3001     1.0  0.96930  0.69993  0.50493  1.0000
  C   C3758     1.0  0.67441  0.56521  0.58930  1.0000
  C   C3759     1.0  0.94390  0.69212  0.61479  1.0000
  H   H3002     1.0  0.96138  0.49261  0.60187  1.0000
  H   H3003     1.0  0.70002  0.82025  0.51872  1.0000
  C   C3760     1.0  0.68602  0.49999  0.61941  1.0000
  C   C3761     1.0  0.95731  0.65796  0.60296  1.0000
  H   H3004     1.0  0.66579  0.80816  0.70329  1.0000
  H   H3005     1.0  0.72908  0.98211  0.54936  1.0000
  C   C3762     1.0  0.90598  0.51597  0.65340  1.0000
  H   H3006     1.0  0.71003  0.94708  0.49612  1.0000
  H   H3007     1.0  0.68133  0.82920  0.58240  1.0000
  C   C3763     1.0  0.78874  0.92297  0.55823  1.0000
  H   H3008     1.0  0.73193  0.91137  0.51946  1.0000
  C   C3764     1.0  0.69151  0.87461  0.55921  1.0000
  H   H3009     1.0  0.94225  0.74338  0.56860  1.0000
  C   C3765     1.0  0.72070  0.97838  0.58130  1.0000
  C   C3766     1.0  0.73517  0.97199  0.59033  1.0000
  C   C3767     1.0  0.90584  0.52979  0.66543  1.0000
  H   H3010     1.0  0.90362  0.96484  0.69629  1.0000
  H   H3011     1.0  0.69409  0.51985  0.61844  1.0000
  C   C3768     1.0  0.66284  0.84125  0.67094  1.0000
  H   H3012     1.0  0.71002  0.60460  0.51182  1.0000
  H   H3013     1.0  0.80730  0.93466  0.57892  1.0000
  H   H3014     1.0  0.92328  0.94156  0.73255  1.0000
  H   H3015     1.0  0.93480  0.75411  0.59287  1.0000
  C   C3769     1.0  0.74255  0.63977  0.51078  1.0000
  H   H3016     1.0  0.90792  0.71077  0.55370  1.0000
  C   C3770     1.0  0.92729  0.52381  0.64569  1.0000
  Fe  Fe257     1.0  0.93126  0.95893  0.66363  1.0000
  H   H3017     1.0  0.68915  0.70348  0.50722  1.0000
  H   H3018     1.0  0.66368  0.89851  0.72053  1.0000
  C   C3771     1.0  0.70051  0.95916  0.53392  1.0000
  P   P125      1.0  0.87617  0.93475  0.71959  1.0000
  C   C3772     1.0  0.89892  0.92593  0.71382  1.0000
  C   C3773     1.0  0.67879  0.52173  0.58812  1.0000
  H   H3019     1.0  0.88843  0.89726  0.61437  1.0000
  H   H3020     1.0  0.74504  0.69912  0.51160  1.0000
  H   H3021     1.0  0.76572  0.91036  0.53917  1.0000
  C   C3774     1.0  0.67778  0.84182  0.57606  1.0000
  C   C3775     1.0  0.74160  0.73231  0.51291  1.0000
  C   C3776     1.0  0.89643  0.91460  0.70026  1.0000
  C   C3777     1.0  0.91452  0.90882  0.69549  1.0000
  H   H3022     1.0  0.85403  0.66935  0.61664  1.0000
  C   C3778     1.0  0.75210  0.71682  0.49149  1.0000
  H   H3023     1.0  0.88959  0.49903  0.65011  1.0000
  C   C3779     1.0  0.84756  0.91683  0.70935  1.0000
  C   C3780     1.0  0.83553  0.92857  0.70258  1.0000
  C   C3781     1.0  0.81401  0.91467  0.69419  1.0000
  C   C3782     1.0  0.80425  0.88898  0.69254  1.0000
  C   C3783     1.0  0.81605  0.87713  0.69924  1.0000
  C   C3784     1.0  0.83764  0.89097  0.70760  1.0000
  H   H3024     1.0  0.93595  0.59294  0.60995  1.0000
  H   H3025     1.0  0.96061  0.52952  0.61195  1.0000
  H   H3026     1.0  0.75104  0.63747  0.52045  1.0000
  H   H3027     1.0  0.69754  0.97631  0.61457  1.0000
  C   C3785     1.0  0.71848  0.96361  0.54454  1.0000
  H   H3028     1.0  0.66593  0.88900  0.55500  1.0000
  H   H3029     1.0  0.67290  0.93209  0.51943  1.0000
  C   C3786     1.0  0.72461  0.89143  0.51941  1.0000
  H   H3030     1.0  0.73163  0.88870  0.49731  1.0000
  H   H3031     1.0  0.77203  0.67597  0.50755  1.0000
  H   H3032     1.0  0.88099  0.91094  0.69310  1.0000
  H   H3033     1.0  0.91267  0.90069  0.68486  1.0000
  C   C3787     1.0  0.94822  0.55968  0.66195  1.0000
  H   H3034     1.0  0.77700  0.87220  0.56988  1.0000
  C   C3788     1.0  0.69832  0.93493  0.48743  1.0000
  H   H3035     1.0  0.84287  0.94848  0.70351  1.0000
  H   H3036     1.0  0.80509  0.92388  0.68875  1.0000
  H   H3037     1.0  0.78774  0.87834  0.68587  1.0000
  H   H3038     1.0  0.80863  0.85724  0.69780  1.0000
  H   H3039     1.0  0.84684  0.88159  0.71252  1.0000
  S   S515      1.0  0.95317  0.97545  0.64447  1.0000
  C   C3789     1.0  0.70667  0.85282  0.53147  1.0000
  H   H3040     1.0  0.80547  0.92744  0.55275  1.0000
  H   H3041     1.0  0.76913  0.92487  0.59148  1.0000
  H   H3042     1.0  0.73627  0.94818  0.55762  1.0000
  C   C3790     1.0  0.70676  0.84013  0.51889  1.0000
  C   C3791     1.0  0.87343  0.88361  0.62013  1.0000
  C   C3792     1.0  0.67093  0.91808  0.63159  1.0000
  C   C3793     1.0  0.86872  0.50485  0.54300  1.0000
  H   H3043     1.0  0.70247  0.57853  0.57388  1.0000
  C   C3794     1.0  0.74577  0.91196  0.57242  1.0000
  H   H3044     1.0  0.91976  0.63804  0.59480  1.0000
  C   C3795     1.0  0.74444  0.90758  0.55764  1.0000
  C   C3796     1.0  0.95269  0.49870  0.72908  1.0000
  C   C3797     1.0  0.70902  0.92030  0.54286  1.0000
  C   C3798     1.0  0.65417  0.80344  0.72486  1.0000
  H   H3045     1.0  0.92707  0.51281  0.63640  1.0000
  C   C3799     1.0  0.69344  0.54149  0.57980  1.0000
  H   H3046     1.0  0.86682  0.68789  0.56330  1.0000
  C   C3800     1.0  0.72454  0.87866  0.50683  1.0000
  C   C3801     1.0  0.71555  0.85300  0.50656  1.0000
  H   H3047     1.0  0.72936  0.90801  0.57811  1.0000
  C   C3802     1.0  0.95201  0.59024  0.61161  1.0000
  C   C3803     1.0  0.93316  0.65407  0.60108  1.0000
  C   C3804     1.0  0.67097  0.98918  0.60948  1.0000
  H   H3048     1.0  0.89462  0.66705  0.50488  1.0000
  P   P126      1.0  0.71511  0.89532  0.54794  1.0000
  C   C3805     1.0  0.74228  0.75214  0.50562  1.0000
  H   H3049     1.0  0.67108  0.90968  0.69537  1.0000
  C   C3806     1.0  0.89912  0.66938  0.49376  1.0000
  H   H3050     1.0  0.94998  0.91113  0.70014  1.0000
  H   H3051     1.0  0.69719  0.97421  0.53056  1.0000
  C   C3807     1.0  0.65959  0.54544  0.59756  1.0000
  Fe  Fe258     1.0  0.97791  0.98022  0.68340  1.0000
  C   C3808     1.0  0.78877  0.87214  0.59154  1.0000
  C   C3809     1.0  0.78305  0.86301  0.57745  1.0000
  C   C3810     1.0  0.78506  0.84197  0.57319  1.0000
  C   C3811     1.0  0.79260  0.82996  0.58304  1.0000
  C   C3812     1.0  0.79776  0.83869  0.59731  1.0000
  C   C3813     1.0  0.79594  0.85996  0.60145  1.0000
  P   P127      1.0  0.80671  0.82319  0.61044  1.0000
  C   C3814     1.0  0.81347  0.80038  0.60187  1.0000
  C   C3815     1.0  0.83338  0.84701  0.62021  1.0000
  C   C3816     1.0  0.85300  0.86456  0.61277  1.0000
  C   C3817     1.0  0.85474  0.86832  0.64243  1.0000
  C   C3818     1.0  0.83426  0.84921  0.63512  1.0000
  C   C3819     1.0  0.83771  0.80416  0.60095  1.0000
  C   C3820     1.0  0.84229  0.78615  0.59415  1.0000
  C   C3821     1.0  0.82275  0.76433  0.58825  1.0000
  C   C3822     1.0  0.79859  0.76037  0.58924  1.0000
  C   C3823     1.0  0.79394  0.77819  0.59613  1.0000
  C   C3824     1.0  0.78199  0.80616  0.62204  1.0000
  C   C3825     1.0  0.76029  0.80835  0.62163  1.0000
  C   C3826     1.0  0.74089  0.79382  0.63015  1.0000
  C   C3827     1.0  0.74300  0.77717  0.63916  1.0000
  C   C3828     1.0  0.76457  0.77496  0.63970  1.0000
  C   C3829     1.0  0.78397  0.78934  0.63114  1.0000
  H   H3052     1.0  0.78740  0.88854  0.59490  1.0000
  C   C3830     1.0  0.96857  0.49915  0.61264  1.0000
  H   H3053     1.0  0.78059  0.83480  0.56227  1.0000
  H   H3054     1.0  0.79415  0.81384  0.57944  1.0000
  H   H3055     1.0  0.79999  0.86709  0.61239  1.0000
  H   H3056     1.0  0.85236  0.86366  0.60126  1.0000
  H   H3057     1.0  0.85522  0.87039  0.65391  1.0000
  H   H3058     1.0  0.81905  0.83667  0.64115  1.0000
  H   H3059     1.0  0.85310  0.82087  0.60543  1.0000
  H   H3060     1.0  0.86102  0.78921  0.59335  1.0000
  H   H3061     1.0  0.82633  0.75055  0.58284  1.0000
  H   H3062     1.0  0.78331  0.74361  0.58457  1.0000
  H   H3063     1.0  0.77505  0.77476  0.59681  1.0000
  H   H3064     1.0  0.75797  0.82085  0.61463  1.0000
  H   H3065     1.0  0.72398  0.79522  0.62961  1.0000
  H   H3066     1.0  0.72777  0.76584  0.64562  1.0000
  H   H3067     1.0  0.76612  0.76189  0.64661  1.0000
  H   H3068     1.0  0.80046  0.78719  0.63149  1.0000
  C   C3831     1.0  0.78269  0.69374  0.58150  1.0000
  C   C3832     1.0  0.78621  0.70344  0.56803  1.0000
  C   C3833     1.0  0.80821  0.70959  0.56136  1.0000
  C   C3834     1.0  0.82662  0.70579  0.56805  1.0000
  C   C3835     1.0  0.82330  0.69613  0.58163  1.0000
  C   C3836     1.0  0.80112  0.69013  0.58828  1.0000
  P   P128      1.0  0.84664  0.69066  0.59050  1.0000
  C   C3837     1.0  0.84808  0.69934  0.60910  1.0000
  C   C3838     1.0  0.83867  0.65819  0.58860  1.0000
  C   C3839     1.0  0.81401  0.63976  0.58852  1.0000
  C   C3840     1.0  0.80810  0.61469  0.58746  1.0000
  C   C3841     1.0  0.82670  0.60783  0.58635  1.0000
  C   C3842     1.0  0.85128  0.62602  0.58652  1.0000
  C   C3843     1.0  0.85727  0.65108  0.58776  1.0000
  C   C3844     1.0  0.84602  0.72054  0.61321  1.0000
  C   C3845     1.0  0.84763  0.72768  0.62759  1.0000
  C   C3846     1.0  0.85144  0.71380  0.63794  1.0000
  C   C3847     1.0  0.85368  0.69278  0.63392  1.0000
  C   C3848     1.0  0.85206  0.68557  0.61955  1.0000
  C   C3849     1.0  0.87666  0.70881  0.58340  1.0000
  C   C3850     1.0  0.88125  0.70284  0.56970  1.0000
  C   C3851     1.0  0.90464  0.71564  0.56428  1.0000
  C   C3852     1.0  0.92389  0.73412  0.57264  1.0000
  C   C3853     1.0  0.91963  0.74010  0.58635  1.0000
  C   C3854     1.0  0.89610  0.72762  0.59172  1.0000
  H   H3069     1.0  0.76545  0.68864  0.58655  1.0000
  H   H3070     1.0  0.77174  0.70593  0.56273  1.0000
  H   H3071     1.0  0.81071  0.71667  0.55080  1.0000
  H   H3072     1.0  0.84314  0.71017  0.56244  1.0000
  H   H3073     1.0  0.79788  0.68230  0.59865  1.0000
  H   H3074     1.0  0.79922  0.64454  0.58899  1.0000
  H   H3075     1.0  0.78899  0.60060  0.58711  1.0000
  H   H3076     1.0  0.82209  0.58844  0.58521  1.0000
  H   H3077     1.0  0.86571  0.62068  0.58551  1.0000
  H   H3078     1.0  0.87642  0.66486  0.58791  1.0000
  H   H3079     1.0  0.84333  0.73162  0.60530  1.0000
  H   H3080     1.0  0.84601  0.74404  0.63070  1.0000
  H   H3081     1.0  0.85274  0.71937  0.64909  1.0000
  H   H3082     1.0  0.85673  0.68208  0.64194  1.0000
  H   H3083     1.0  0.66950  0.90849  0.65344  1.0000
  H   H3084     1.0  0.95497  0.93160  0.72394  1.0000
  C   C3855     1.0  0.65146  0.94333  0.62536  1.0000
  C   C3856     1.0  0.97503  0.69176  0.49644  1.0000
  H   H3085     1.0  0.68054  0.50492  0.58745  1.0000
  C   C3857     1.0  0.68037  0.77671  0.72777  1.0000
  C   C3858     1.0  0.65566  0.84275  0.57719  1.0000
  C   C3859     1.0  0.97967  0.65755  0.48633  1.0000
  C   C3860     1.0  0.96805  0.69598  0.61678  1.0000
  H   H3086     1.0  0.97094  0.61790  0.64811  1.0000
  S   S516      1.0  0.96627  0.71206  0.57982  1.0000
  C   C3861     1.0  0.97628  0.49671  0.68542  1.0000
  C   C3862     1.0  0.96020  0.52412  0.72936  1.0000
  C   C3863     1.0  0.96975  0.59746  0.60135  1.0000
  H   H3087     1.0  0.74814  0.76963  0.48556  1.0000
  H   H3088     1.0  0.68580  0.72808  0.48753  1.0000
  C   C3864     1.0  0.97460  0.57396  0.62552  1.0000
  C   C3865     1.0  0.65140  0.85959  0.56941  1.0000
  H   H3089     1.0  0.65736  0.82546  0.49948  1.0000
  H   H3090     1.0  0.71910  0.50215  0.62911  1.0000
  C   C3866     1.0  0.96831  0.52031  0.61842  1.0000
  C   C3867     1.0  0.95440  0.57858  0.62366  1.0000
  P   P129      1.0  0.97612  0.55584  0.64003  1.0000
  C   C3868     1.0  0.68583  0.90927  0.48881  1.0000
  H   H3091     1.0  0.96217  0.64465  0.59816  1.0000
  H   H3092     1.0  0.97757  0.63905  0.48705  1.0000
  H   H3093     1.0  0.69038  0.76623  0.72859  1.0000
  H   H3094     1.0  0.96433  0.57676  0.66535  1.0000
  C   C3869     1.0  0.97497  0.67900  0.61080  1.0000
  C   C3870     1.0  0.95750  0.49911  0.67788  1.0000
  H   H3095     1.0  0.88113  0.69157  0.49005  1.0000
  H   H3096     1.0  0.98132  0.71247  0.62271  1.0000
  H   H3097     1.0  0.96161  0.49121  0.72213  1.0000
  C   C3871     1.0  0.71985  0.64612  0.48630  1.0000
  C   C3872     1.0  0.67964  0.70849  0.48569  1.0000
  Fe  Fe259     1.0  0.71557  0.68939  0.90773  1.0000
  S   S517      1.0  0.74016  0.69833  0.92745  1.0000
  S   S518      1.0  0.72131  0.71507  0.88916  1.0000
  Fe  Fe260     1.0  0.68258  0.63516  0.91555  1.0000
  S   S519      1.0  0.70514  0.64118  0.93609  1.0000
  H   H3098     1.0  0.93482  0.81391  0.86792  1.0000
  Fe  Fe261     1.0  0.70501  0.67781  0.93924  1.0000
  S   S520      1.0  0.70505  0.69810  0.96048  1.0000
  Fe  Fe262     1.0  0.73893  0.66129  0.92319  1.0000
  S   S521      1.0  0.77079  0.65231  0.92830  1.0000
  S   S522      1.0  0.68046  0.67079  0.91959  1.0000
  S   S523      1.0  0.71634  0.65321  0.90258  1.0000
  Fe  Fe263     1.0  0.91047  0.67497  0.91126  1.0000
  S   S524      1.0  0.90783  0.63918  0.91854  1.0000
  S   S525      1.0  0.87975  0.68567  0.90679  1.0000
  Fe  Fe264     1.0  0.96649  0.69711  0.90719  1.0000
  S   S526      1.0  0.96732  0.66249  0.91426  1.0000
  Fe  Fe265     1.0  0.93239  0.64108  0.90064  1.0000
  S   S527      1.0  0.92242  0.61101  0.88253  1.0000
  Fe  Fe266     1.0  0.94303  0.66317  0.93175  1.0000
  S   S528      1.0  0.94674  0.65315  0.95482  1.0000
  S   S529      1.0  0.93325  0.67596  0.89264  1.0000
  S   S530      1.0  0.94405  0.69876  0.92542  1.0000
  H   H3099     1.0  0.77437  0.95021  0.88708  1.0000
  C   C3873     1.0  0.70341  0.91594  0.81482  1.0000
  C   C3874     1.0  0.89184  0.53515  0.81283  1.0000
  S   S531      1.0  0.93593  0.95686  0.79582  1.0000
  C   C3875     1.0  0.81930  0.70433  0.95585  1.0000
  C   C3876     1.0  0.71088  0.91249  0.98490  1.0000
  H   H3100     1.0  0.73895  0.52207  0.84979  1.0000
  S   S532      1.0  0.90058  0.97130  0.82785  1.0000
  Fe  Fe267     1.0  0.72577  0.88654  0.84973  1.0000
  S   S533      1.0  0.72687  0.87658  0.82658  1.0000
  S   S534      1.0  0.71947  0.92033  0.85301  1.0000
  Fe  Fe268     1.0  0.73298  0.84266  0.85950  1.0000
  S   S535      1.0  0.73466  0.82996  0.83713  1.0000
  S   S536      1.0  0.73655  0.82499  0.87997  1.0000
  Fe  Fe269     1.0  0.75887  0.87052  0.83331  1.0000
  S   S537      1.0  0.79140  0.88150  0.81887  1.0000
  Fe  Fe270     1.0  0.70279  0.83731  0.83206  1.0000
  H   H3101     1.0  0.66429  0.86946  0.85913  1.0000
  S   S538      1.0  0.75945  0.88298  0.85606  1.0000
  S   S539      1.0  0.69936  0.84740  0.85478  1.0000
  H   H3102     1.0  0.73180  0.75738  0.90914  1.0000
  C   C3877     1.0  0.92897  0.53106  0.81555  1.0000
  C   C3878     1.0  0.65956  0.89308  0.80873  1.0000
  C   C3879     1.0  0.82175  0.90641  0.82163  1.0000
  C   C3880     1.0  0.83978  0.90908  0.81194  1.0000
  C   C3881     1.0  0.86404  0.92869  0.81372  1.0000
  C   C3882     1.0  0.87046  0.94598  0.82516  1.0000
  C   C3883     1.0  0.85248  0.94315  0.83490  1.0000
  C   C3884     1.0  0.82832  0.92342  0.83322  1.0000
  H   H3103     1.0  0.83495  0.89589  0.80302  1.0000
  H   H3104     1.0  0.87775  0.93047  0.80623  1.0000
  H   H3105     1.0  0.85733  0.95630  0.84381  1.0000
  H   H3106     1.0  0.81481  0.92129  0.84088  1.0000
  C   C3885     1.0  0.70799  0.54841  0.83316  1.0000
  C   C3886     1.0  0.71596  0.73769  0.75312  1.0000
  C   C3887     1.0  0.91297  0.70989  0.87360  1.0000
  C   C3888     1.0  0.92423  0.79613  0.90496  1.0000
  H   H3107     1.0  0.65449  0.96260  0.94453  1.0000
  H   H3108     1.0  0.65655  0.65686  0.96685  1.0000
  C   C3889     1.0  0.71176  0.96004  0.89347  1.0000
  C   C3890     1.0  0.71635  0.93964  0.89453  1.0000
  C   C3891     1.0  0.71876  0.92724  0.88230  1.0000
  C   C3892     1.0  0.71680  0.93525  0.86883  1.0000
  C   C3893     1.0  0.71212  0.95559  0.86775  1.0000
  C   C3894     1.0  0.70948  0.96785  0.87998  1.0000
  H   H3109     1.0  0.71816  0.93347  0.90492  1.0000
  H   H3110     1.0  0.72219  0.91154  0.88329  1.0000
  H   H3111     1.0  0.71052  0.96191  0.85737  1.0000
  C   C3895     1.0  0.94240  0.55621  0.81984  1.0000
  C   C3896     1.0  0.96275  0.67094  0.97073  1.0000
  H   H3112     1.0  0.83415  0.94802  0.86510  1.0000
  C   C3897     1.0  0.66496  0.89285  0.79435  1.0000
  C   C3898     1.0  0.70070  0.71218  0.75108  1.0000
  H   H3113     1.0  0.76721  0.93010  0.82448  1.0000
  C   C3899     1.0  0.92222  0.58179  0.87990  1.0000
  C   C3900     1.0  0.93263  0.57262  0.88990  1.0000
  C   C3901     1.0  0.93197  0.54940  0.88733  1.0000
  C   C3902     1.0  0.92100  0.53497  0.87473  1.0000
  C   C3903     1.0  0.91119  0.54446  0.86453  1.0000
  C   C3904     1.0  0.91176  0.56765  0.86713  1.0000
  H   H3114     1.0  0.94126  0.58347  0.89960  1.0000
  H   H3115     1.0  0.94000  0.54252  0.89521  1.0000
  H   H3116     1.0  0.90297  0.53385  0.85470  1.0000
  H   H3117     1.0  0.90392  0.57463  0.85921  1.0000
  C   C3905     1.0  0.68477  0.69248  0.97484  1.0000
  C   C3906     1.0  0.85540  0.61704  0.95022  1.0000
  H   H3118     1.0  0.78869  0.88855  0.89100  1.0000
  C   C3907     1.0  0.69947  0.50633  0.84790  1.0000
  C   C3908     1.0  0.93049  0.57097  0.82005  1.0000
  H   H3119     1.0  0.88638  0.97146  0.88740  1.0000
  C   C3909     1.0  0.80083  0.66157  0.92186  1.0000
  C   C3910     1.0  0.81192  0.68072  0.91249  1.0000
  C   C3911     1.0  0.83600  0.68778  0.90806  1.0000
  C   C3912     1.0  0.84943  0.67588  0.91289  1.0000
  C   C3913     1.0  0.83839  0.65677  0.92228  1.0000
  C   C3914     1.0  0.81427  0.64965  0.92668  1.0000
  H   H3120     1.0  0.80194  0.69013  0.90869  1.0000
  H   H3121     1.0  0.84428  0.70258  0.90080  1.0000
  H   H3122     1.0  0.84839  0.64740  0.92609  1.0000
  H   H3123     1.0  0.80592  0.63482  0.93390  1.0000
  C   C3915     1.0  0.72491  0.74554  0.88704  1.0000
  C   C3916     1.0  0.72307  0.75297  0.87325  1.0000
  C   C3917     1.0  0.72636  0.77702  0.87090  1.0000
  C   C3918     1.0  0.73172  0.79415  0.88233  1.0000
  C   C3919     1.0  0.73344  0.78672  0.89613  1.0000
  C   C3920     1.0  0.73003  0.76260  0.89849  1.0000
  H   H3124     1.0  0.71913  0.74000  0.86430  1.0000
  H   H3125     1.0  0.72482  0.78229  0.86022  1.0000
  H   H3126     1.0  0.73756  0.79974  0.90508  1.0000
  H   H3127     1.0  0.70933  0.79220  0.80341  1.0000
  C   C3921     1.0  0.97094  0.78735  0.90016  1.0000
  H   H3128     1.0  0.71926  0.85079  0.77615  1.0000
  H   H3129     1.0  0.90350  0.80401  0.92056  1.0000
  C   C3922     1.0  0.85119  0.50046  0.86716  1.0000
  H   H3130     1.0  0.97151  0.50712  0.76226  1.0000
  H   H3131     1.0  0.84971  0.53596  0.93959  1.0000
  H   H3132     1.0  0.92160  0.52666  0.75374  1.0000
  P   P130      1.0  0.81224  0.98148  0.86732  1.0000
  H   H3133     1.0  0.89413  0.62930  0.94825  1.0000
  H   H3134     1.0  0.66329  0.68289  0.74892  1.0000
  C   C3923     1.0  0.88683  0.94347  0.76298  1.0000
  C   C3924     1.0  0.66259  0.73927  0.94244  1.0000
  C   C3925     1.0  0.88980  0.94686  0.74842  1.0000
  H   H3135     1.0  0.90053  0.95681  0.77054  1.0000
  C   C3926     1.0  0.96633  0.80864  0.87334  1.0000
  C   C3927     1.0  0.66348  0.91705  0.91871  1.0000
  H   H3136     1.0  0.91938  0.74666  0.97468  1.0000
  H   H3137     1.0  0.70161  0.91433  0.97544  1.0000
  H   H3138     1.0  0.65138  0.92958  0.87241  1.0000
  C   C3928     1.0  0.66198  0.66859  0.88058  1.0000
  H   H3139     1.0  0.69528  0.80726  0.98271  1.0000
  C   C3929     1.0  0.92148  0.73267  0.88108  1.0000
  C   C3930     1.0  0.67515  0.70268  0.75048  1.0000
  C   C3931     1.0  0.69594  0.81374  0.76746  1.0000
  S   S540      1.0  0.66844  0.80851  0.81973  1.0000
  H   H3140     1.0  0.92966  0.70897  0.97808  1.0000
  C   C3932     1.0  0.67474  0.94246  0.94060  1.0000
  C   C3933     1.0  0.82865  0.52036  0.91974  1.0000
  C   C3934     1.0  0.90381  0.52063  0.81201  1.0000
  C   C3935     1.0  0.65882  0.68876  0.88530  1.0000
  C   C3936     1.0  0.78533  0.95183  0.84360  1.0000
  C   C3937     1.0  0.97448  0.69689  0.97162  1.0000
  C   C3938     1.0  0.90162  0.71979  0.95715  1.0000
  C   C3939     1.0  0.94917  0.53424  0.73830  1.0000
  C   C3940     1.0  0.93458  0.76168  0.95483  1.0000
  C   C3941     1.0  0.93328  0.75757  0.94010  1.0000
  C   C3942     1.0  0.91613  0.73471  0.93387  1.0000
  C   C3943     1.0  0.90039  0.71585  0.94236  1.0000
  C   C3944     1.0  0.77995  0.91876  0.89026  1.0000
  H   H3141     1.0  0.89228  0.53021  0.90944  1.0000
  H   H3142     1.0  0.95493  0.53821  0.84704  1.0000
  H   H3143     1.0  0.94552  0.77209  0.93350  1.0000
  H   H3144     1.0  0.91504  0.73147  0.92245  1.0000
  H   H3145     1.0  0.88707  0.69830  0.93735  1.0000
  C   C3945     1.0  0.71149  0.83118  0.77791  1.0000
  C   C3946     1.0  0.65674  0.87744  0.86671  1.0000
  H   H3146     1.0  0.89598  0.57168  0.81733  1.0000
  C   C3947     1.0  0.93055  0.90982  0.75387  1.0000
  H   H3147     1.0  0.73577  0.74507  0.75360  1.0000
  C   C3948     1.0  0.96921  0.76660  0.90705  1.0000
  H   H3148     1.0  0.90582  0.96291  0.74498  1.0000
  H   H3149     1.0  0.69220  0.82031  0.75765  1.0000
  H   H3150     1.0  0.78878  0.93745  0.84777  1.0000
  H   H3151     1.0  0.91152  0.90562  0.75206  1.0000
  H   H3152     1.0  0.82360  0.90775  0.87505  1.0000
  C   C3949     1.0  0.89003  0.95444  0.86789  1.0000
  C   C3950     1.0  0.88447  0.95462  0.88216  1.0000
  C   C3951     1.0  0.87629  0.93298  0.88966  1.0000
  C   C3952     1.0  0.87384  0.91121  0.88291  1.0000
  C   C3953     1.0  0.87978  0.91103  0.86863  1.0000
  C   C3954     1.0  0.88749  0.93271  0.86111  1.0000
  P   P131      1.0  0.87518  0.88247  0.85991  1.0000
  C   C3955     1.0  0.89177  0.86920  0.86925  1.0000
  C   C3956     1.0  0.84235  0.86256  0.85966  1.0000
  C   C3957     1.0  0.83190  0.84285  0.86884  1.0000
  C   C3958     1.0  0.80632  0.82837  0.86898  1.0000
  C   C3959     1.0  0.79105  0.83367  0.86014  1.0000
  C   C3960     1.0  0.80131  0.85366  0.85133  1.0000
  C   C3961     1.0  0.82680  0.86824  0.85120  1.0000
  C   C3962     1.0  0.88676  0.84479  0.86570  1.0000
  C   C3963     1.0  0.89956  0.83425  0.87273  1.0000
  C   C3964     1.0  0.91787  0.84821  0.88313  1.0000
  C   C3965     1.0  0.92348  0.87277  0.88642  1.0000
  C   C3966     1.0  0.91055  0.88331  0.87948  1.0000
  C   C3967     1.0  0.88782  0.88824  0.84249  1.0000
  C   C3968     1.0  0.91301  0.90446  0.84135  1.0000
  C   C3969     1.0  0.92341  0.90926  0.82805  1.0000
  C   C3970     1.0  0.90882  0.89777  0.81578  1.0000
  C   C3971     1.0  0.88379  0.88138  0.81681  1.0000
  C   C3972     1.0  0.87331  0.87645  0.83011  1.0000
  H   H3153     1.0  0.85206  0.55418  0.87820  1.0000
  H   H3154     1.0  0.85141  0.49553  0.90291  1.0000
  H   H3155     1.0  0.87168  0.93303  0.90067  1.0000
  H   H3156     1.0  0.86715  0.89446  0.88876  1.0000
  H   H3157     1.0  0.89138  0.93300  0.84996  1.0000
  H   H3158     1.0  0.84326  0.83877  0.87608  1.0000
  H   H3159     1.0  0.79817  0.81312  0.87602  1.0000
  H   H3160     1.0  0.77125  0.82243  0.86023  1.0000
  H   H3161     1.0  0.78947  0.85792  0.84460  1.0000
  H   H3162     1.0  0.83439  0.88393  0.84447  1.0000
  H   H3163     1.0  0.87288  0.83389  0.85750  1.0000
  H   H3164     1.0  0.89532  0.81530  0.87004  1.0000
  H   H3165     1.0  0.92791  0.84009  0.88852  1.0000
  H   H3166     1.0  0.93801  0.88375  0.89428  1.0000
  H   H3167     1.0  0.91549  0.90250  0.88199  1.0000
  H   H3168     1.0  0.92465  0.91362  0.85073  1.0000
  H   H3169     1.0  0.94284  0.92194  0.82724  1.0000
  H   H3170     1.0  0.91706  0.90160  0.80551  1.0000
  H   H3171     1.0  0.87247  0.87254  0.80728  1.0000
  H   H3172     1.0  0.85400  0.86343  0.83060  1.0000
  H   H3173     1.0  0.81837  0.61008  0.95389  1.0000
  C   C3973     1.0  0.66944  0.83576  0.79649  1.0000
  C   C3974     1.0  0.72357  0.52435  0.84570  1.0000
  C   C3975     1.0  0.66480  0.71864  0.75196  1.0000
  H   H3174     1.0  0.95534  0.55400  0.73863  1.0000
  C   C3976     1.0  0.66341  0.76117  0.89361  1.0000
  C   C3977     1.0  0.75131  0.68335  0.98085  1.0000
  C   C3978     1.0  0.69078  0.78065  0.78274  1.0000
  H   H3175     1.0  0.66691  0.90506  0.91151  1.0000
  C   C3979     1.0  0.85136  0.50351  0.89283  1.0000
  H   H3176     1.0  0.75859  0.96250  0.81448  1.0000
  H   H3177     1.0  0.89364  0.50118  0.80865  1.0000
  C   C3980     1.0  0.81611  0.71685  0.96758  1.0000
  C   C3981     1.0  0.90520  0.56035  0.81681  1.0000
  C   C3982     1.0  0.94212  0.72974  0.85548  1.0000
  H   H3178     1.0  0.66646  0.91011  0.85496  1.0000
  C   C3983     1.0  0.96947  0.53493  0.84287  1.0000
  H   H3179     1.0  0.93177  0.54840  0.92301  1.0000
  H   H3180     1.0  0.74652  0.55943  0.83672  1.0000
  H   H3181     1.0  0.69550  0.74324  0.95344  1.0000
  C   C3984     1.0  0.67904  0.90497  0.81891  1.0000
  H   H3182     1.0  0.89618  0.97103  0.86191  1.0000
  C   C3985     1.0  0.86973  0.66571  0.96041  1.0000
  C   C3986     1.0  0.93941  0.89484  0.74747  1.0000
  H   H3183     1.0  0.87226  0.52686  0.81029  1.0000
  H   H3184     1.0  0.70866  0.69977  0.75000  1.0000
  H   H3185     1.0  0.93790  0.51946  0.81483  1.0000
  H   H3186     1.0  0.74361  0.68248  0.97022  1.0000
  C   C3987     1.0  0.81338  0.91747  0.87797  1.0000
  C   C3988     1.0  0.66229  0.67085  0.97541  1.0000
  C   C3989     1.0  0.88080  0.78411  0.90207  1.0000
  C   C3990     1.0  0.84835  0.90627  0.75797  1.0000
  C   C3991     1.0  0.85158  0.53638  0.87903  1.0000
  Fe  Fe271     1.0  0.93365  0.97973  0.81420  1.0000
  H   H3187     1.0  0.68417  0.79883  0.88736  1.0000
  H   H3188     1.0  0.84109  0.68910  0.94672  1.0000
  C   C3992     1.0  0.84479  0.64779  0.95983  1.0000
  H   H3189     1.0  0.91339  0.73329  0.89108  1.0000
  C   C3993     1.0  0.68941  0.90390  0.79030  1.0000
  C   C3994     1.0  0.85135  0.71706  0.97979  1.0000
  H   H3190     1.0  0.91722  0.69055  0.85531  1.0000
  H   H3191     1.0  0.66527  0.53149  0.89288  1.0000
  C   C3995     1.0  0.77301  0.94759  0.83035  1.0000
  C   C3996     1.0  0.76820  0.96583  0.82472  1.0000
  H   H3192     1.0  0.98035  0.87923  0.76965  1.0000
  C   C3997     1.0  0.91860  0.74297  0.96333  1.0000
  C   C3998     1.0  0.65262  0.74893  0.86456  1.0000
  C   C3999     1.0  0.95410  0.82006  0.86646  1.0000
  C   C4000     1.0  0.85413  0.70370  0.96822  1.0000
  C   C4001     1.0  0.88027  0.63453  0.95122  1.0000
  H   H3193     1.0  0.86268  0.76373  0.88257  1.0000
  C   C4002     1.0  0.95043  0.75266  0.86282  1.0000
  H   H3194     1.0  0.98322  0.72679  0.87372  1.0000
  C   C4003     1.0  0.76770  0.67388  0.98318  1.0000
  H   H3195     1.0  0.80277  0.50044  0.90219  1.0000
  C   C4004     1.0  0.87211  0.92996  0.73845  1.0000
  S   S541      1.0  0.92033  0.50548  0.87236  1.0000
  C   C4005     1.0  0.91940  0.55628  0.92435  1.0000
  C   C4006     1.0  0.92631  0.57713  0.93345  1.0000
  C   C4007     1.0  0.91051  0.58747  0.93501  1.0000
  C   C4008     1.0  0.88790  0.57717  0.92737  1.0000
  C   C4009     1.0  0.88103  0.55655  0.91793  1.0000
  C   C4010     1.0  0.89686  0.54600  0.91662  1.0000
  P   P132      1.0  0.85117  0.54269  0.90868  1.0000
  C   C4011     1.0  0.84324  0.56706  0.90511  1.0000
  C   C4012     1.0  0.82041  0.56511  0.90876  1.0000
  C   C4013     1.0  0.81511  0.58466  0.90643  1.0000
  C   C4014     1.0  0.83245  0.60617  0.90039  1.0000
  C   C4015     1.0  0.85512  0.60821  0.89671  1.0000
  C   C4016     1.0  0.86053  0.58880  0.89913  1.0000
  C   C4017     1.0  0.85165  0.52660  0.89232  1.0000
  H   H3196     1.0  0.95735  0.84837  0.85223  1.0000
  C   C4018     1.0  0.80551  0.95271  0.87557  1.0000
  C   C4019     1.0  0.65649  0.72368  0.91784  1.0000
  C   C4020     1.0  0.96678  0.83949  0.85749  1.0000
  H   H3197     1.0  0.94398  0.58544  0.93923  1.0000
  H   H3198     1.0  0.91599  0.60369  0.94207  1.0000
  H   H3199     1.0  0.87592  0.58545  0.92879  1.0000
  H   H3200     1.0  0.80674  0.54871  0.91350  1.0000
  H   H3201     1.0  0.79760  0.58326  0.90936  1.0000
  H   H3202     1.0  0.82843  0.62139  0.89865  1.0000
  H   H3203     1.0  0.86871  0.62502  0.89217  1.0000
  H   H3204     1.0  0.87833  0.59080  0.89644  1.0000
  H   H3205     1.0  0.83216  0.89067  0.76172  1.0000
  H   H3206     1.0  0.98351  0.75358  0.92404  1.0000
  H   H3207     1.0  0.80121  0.72161  0.96736  1.0000
  H   H3208     1.0  0.94068  0.59063  0.82278  1.0000
  H   H3209     1.0  0.67720  0.52167  0.86981  1.0000
  C   C4021     1.0  0.81926  0.94037  0.87231  1.0000
  H   H3210     1.0  0.97085  0.88917  0.74430  1.0000
  H   H3211     1.0  0.67152  0.70703  0.88197  1.0000
  H   H3212     1.0  0.71130  0.56483  0.82757  1.0000
  H   H3213     1.0  0.95639  0.74797  0.90321  1.0000
  C   C4022     1.0  0.77578  0.98837  0.83232  1.0000
  C   C4023     1.0  0.68547  0.78829  0.76978  1.0000
  H   H3214     1.0  0.74534  0.94447  0.98115  1.0000
  H   H3215     1.0  0.65598  0.74486  0.95170  1.0000
  C   C4024     1.0  0.69360  0.73157  0.93150  1.0000
  C   C4025     1.0  0.78574  0.94164  0.88458  1.0000
  P   P133      1.0  0.97519  0.56991  0.82323  1.0000
  C   C4026     1.0  0.97090  0.50136  0.77303  1.0000
  C   C4027     1.0  0.92342  0.70836  0.86088  1.0000
  C   C4028     1.0  0.86613  0.92318  0.76777  1.0000
  H   H3216     1.0  0.86420  0.78335  0.90621  1.0000
  H   H3217     1.0  0.68640  0.94997  0.95015  1.0000
  C   C4029     1.0  0.67241  0.77973  0.88377  1.0000
  H   H3218     1.0  0.98265  0.95185  0.77184  1.0000
  C   C4030     1.0  0.72784  0.54539  0.83834  1.0000
  C   C4031     1.0  0.98148  0.98987  0.74746  1.0000
  C   C4032     1.0  0.70568  0.75370  0.75459  1.0000
  C   C4033     1.0  0.83767  0.62365  0.95457  1.0000
  H   H3219     1.0  0.68693  0.85001  0.80089  1.0000
  C   C4034     1.0  0.66783  0.77961  0.73934  1.0000
  C   C4035     1.0  0.90294  0.79572  0.91015  1.0000
  C   C4036     1.0  0.94637  0.93048  0.76246  1.0000
  H   H3220     1.0  0.90689  0.67206  0.95693  1.0000
  C   C4037     1.0  0.70863  0.91526  0.80054  1.0000
  C   C4038     1.0  0.79374  0.90667  0.88696  1.0000
  H   H3221     1.0  0.85150  0.53105  0.85632  1.0000
  H   H3222     1.0  0.96535  0.50873  0.85865  1.0000
  H   H3223     1.0  0.92721  0.87898  0.74066  1.0000
  C   C4039     1.0  0.71642  0.82340  0.79082  1.0000
  C   C4040     1.0  0.97032  0.59494  0.84726  1.0000
  C   C4041     1.0  0.81509  0.50438  0.94299  1.0000
  C   C4042     1.0  0.83218  0.72331  0.97953  1.0000
  H   H3224     1.0  0.68649  0.71875  0.90964  1.0000
  H   H3225     1.0  0.72797  0.83694  0.79906  1.0000
  H   H3226     1.0  0.69245  0.92121  0.93356  1.0000
  H   H3227     1.0  0.94105  0.80485  0.91151  1.0000
  C   C4043     1.0  0.66721  0.77362  0.86926  1.0000
  C   C4044     1.0  0.88745  0.65882  0.95619  1.0000
  H   H3228     1.0  0.86376  0.92073  0.77907  1.0000
  C   C4045     1.0  0.68386  0.53039  0.83532  1.0000
  Fe  Fe272     1.0  0.97273  0.96431  0.80573  1.0000
  H   H3229     1.0  0.94788  0.77940  0.95966  1.0000
  H   H3230     1.0  0.96661  0.61397  0.86594  1.0000
  C   C4046     1.0  0.96327  0.65845  0.98297  1.0000
  C   C4047     1.0  0.92349  0.78492  0.89161  1.0000
  H   H3231     1.0  0.77283  0.66575  0.97433  1.0000
  C   C4048     1.0  0.85116  0.52325  0.86652  1.0000
  P   P134      1.0  0.66716  0.76534  0.75595  1.0000
  C   C4049     1.0  0.67941  0.50913  0.84265  1.0000
  P   P135      1.0  0.87946  0.69655  0.96790  1.0000
  C   C4050     1.0  0.70595  0.79815  0.79326  1.0000
  H   H3232     1.0  0.84993  0.59834  0.94619  1.0000
  C   C4051     1.0  0.83847  0.69816  0.95607  1.0000
  C   C4052     1.0  0.65477  0.79306  0.73778  1.0000
  H   H3233     1.0  0.80695  0.69940  0.94651  1.0000
  C   C4053     1.0  0.67955  0.72436  0.91872  1.0000
  H   H3234     1.0  0.76434  0.91009  0.89695  1.0000
  H   H3235     1.0  0.90016  0.76472  0.87317  1.0000
  C   C4054     1.0  0.80644  0.50165  0.91357  1.0000
  H   H3236     1.0  0.83708  0.89643  0.73608  1.0000
  C   C4055     1.0  0.87995  0.77309  0.88873  1.0000
  H   H3237     1.0  0.71775  0.77345  0.75614  1.0000
  H   H3238     1.0  0.72755  0.92336  0.79743  1.0000
  P   P136      1.0  0.95043  0.78383  0.88520  1.0000
  H   H3239     1.0  0.66883  0.53328  0.83134  1.0000
  H   H3240     1.0  0.71822  0.92463  0.82283  1.0000
  C   C4056     1.0  0.98232  0.54736  0.83107  1.0000
  C   C4057     1.0  0.90122  0.77361  0.88347  1.0000
  C   C4058     1.0  0.94018  0.75431  0.87570  1.0000
  C   C4059     1.0  0.92234  0.49335  0.74636  1.0000
  H   H3241     1.0  0.67095  0.85499  0.77743  1.0000
  H   H3242     1.0  0.89856  0.69329  0.87786  1.0000
  C   C4060     1.0  0.93019  0.51885  0.74678  1.0000
  H   H3243     1.0  0.66824  0.76635  0.90476  1.0000
  H   H3244     1.0  0.95167  0.58006  0.84760  1.0000
  C   C4061     1.0  0.65170  0.51674  0.88591  1.0000
  C   C4062     1.0  0.68495  0.73862  0.94342  1.0000
  C   C4063     1.0  0.97093  0.93596  0.76494  1.0000
  H   H3245     1.0  0.71092  0.73098  0.93228  1.0000
  C   C4064     1.0  0.98012  0.92127  0.75835  1.0000
  H   H3246     1.0  0.95049  0.72854  0.84572  1.0000
  H   H3247     1.0  0.67692  0.67151  0.87374  1.0000
  S   S542      1.0  0.96899  0.98486  0.82489  1.0000
  H   H3248     1.0  0.93967  0.94246  0.76710  1.0000
  C   C4065     1.0  0.65800  0.90041  0.86436  1.0000
  H   H3249     1.0  0.81845  0.50544  0.95439  1.0000
  S   S543      1.0  0.70985  0.97540  0.90933  1.0000
  H   H3250     1.0  0.68643  0.98357  0.96727  1.0000
  H   H3251     1.0  0.66260  0.96287  0.89393  1.0000
  C   C4066     1.0  0.68002  0.74428  0.75414  1.0000
  H   H3252     1.0  0.96508  0.76888  0.85847  1.0000
  H   H3253     1.0  0.69340  0.90324  0.77921  1.0000
  H   H3254     1.0  0.68306  0.76113  0.78476  1.0000
  H   H3255     1.0  0.67551  0.90562  0.83007  1.0000
  C   C4067     1.0  0.85127  0.90963  0.74338  1.0000
  H   H3256     1.0  0.70604  0.98355  0.87899  1.0000
  C   C4068     1.0  0.67804  0.92615  0.93128  1.0000
  C   C4069     1.0  0.83283  0.52167  0.93453  1.0000
  C   C4070     1.0  0.79318  0.97447  0.85126  1.0000
  C   C4071     1.0  0.97533  0.51814  0.84950  1.0000
  C   C4072     1.0  0.65832  0.51114  0.87273  1.0000
  H   H3257     1.0  0.83074  0.65227  0.96344  1.0000
  H   H3258     1.0  0.76558  0.97911  0.87553  1.0000
  C   C4073     1.0  0.96413  0.90065  0.74959  1.0000
  S   S544      1.0  0.97979  0.93075  0.80613  1.0000
  C   C4074     1.0  0.66030  0.83861  0.78322  1.0000
  C   C4075     1.0  0.65644  0.81405  0.80371  1.0000
  C   C4076     1.0  0.89261  0.69658  0.98526  1.0000
  C   C4077     1.0  0.97881  0.61400  0.85781  1.0000
  H   H3259     1.0  0.67492  0.78799  0.86164  1.0000
  C   C4078     1.0  0.65679  0.94962  0.93740  1.0000
  H   H3260     1.0  0.97431  0.70688  0.96238  1.0000
  H   H3261     1.0  0.65697  0.86038  0.83076  1.0000
  H   H3262     1.0  0.95426  0.63842  0.98250  1.0000
  C   C4079     1.0  0.67638  0.98430  0.97635  1.0000
  H   H3263     1.0  0.97897  0.54192  0.79845  1.0000
  H   H3264     1.0  0.65488  0.59146  0.88034  1.0000
  C   C4080     1.0  0.94846  0.49095  0.78003  1.0000
