data_image0
_chemical_formula_structural       FeS2FeS2FeSFeS3C2SCHS2FeSCS2CSFeSFeSFeSCFeS2FeS2FeSHCSFeCFeSH4CPC2SCH3C3H3C4H4SHC3HC3SHC6H4CHC3HC6H4C6H4CPH2C7H5C2HC3PC14HC2H3CH3PH8C3H2C4HC2HC2H2CHCHC5H2SCH5CH3C2HPH2CH2CHC2FeHC2HCPCHC4HC5HC2HCHCH2C2HCH3CPCHPH2CH2CHCH3CH2C4H4CHC2H3CHCHCH2C2H4C2H3C2H2CHCH3SHCHC2HC3HC2H3PFeCH2CHC2HC2HC7HC3H3C3H2C2H2C2H2CHCH2CHCPC3HC3HCHCH2C3HC2H4C3HCH2C4H4C3H4C2HCH2C5H3C6PC7H2CHC5HCH10C3FeH2CHFeC5H3CHC4HC2H3C4HC2HSHCHC2H2CH4C2HFeC6HSCHCH2CSFeCHFeC2H4CFeS2CHCSHSFeSFeS2Fe2S3FeS2FeS2FeSFeS3C2H2FeS2FeS2FeS2FeS2HCH4C2HCHC8HCH2CHC5H2C6H5C3FeC2H3C6H4CHC2H2C7HCH2C2H3C6H2CHCH2CHCHC2HC2PC14H10CHFeC3HC2H3C3SH2C2H2C4HPH3CHCHCHCHC2H2C6PC4HC2H3C3H2C2H8C4HCH4C3HCS2CH2CHC2H3SC3H3SC2HCHSHC3HCHPC13H2C3H2CHC3HCH6CH3PCHCSC2HCH2C2HC2HC2H3C4SC2SCFeC4HC3H3C3H2CH3C2H6C2H2PC3H2C3H3C7H2C3HC2H2FeCH2CH5C6PC4HC4H2C7H5CHCH4C2H9SH2C2H3C2SH3FeHCHCH2C3HC2PC13H2C7SH10CHCH2CHC2HCHCH6CH2CHC4HSFeHSH2C2HCH3SCHCH2CHC2FeC4HC2H3C2HCHC2H3C2H3C2H2FeS2FeSC2S2FeCSH2S2CH5FeS2FeS2FeSFeS3FeS2FeS2FeS2CSC2H2SHPSHSCHC2S2FeS2FeS2FeCFeS3C3HC2H2CFeC5HC8H4C3H3CH2C6HC8H4C6H4C4SCH2CHC6H4C3H2CHC2H3C6H5C2HC2HC4SCH2C2HCHCHCSHCH2C3HCHC2SHFeHCFeHCHS2C2H2C2HCHCHC2SH3CHC2H2C2H2C8HCH2SC8HC3PC7HCH7C5HC6PC18H18C6PC18H21PH2CFeSC2H2C2HC2HC4H3PHCHCHCH2CHC2FeCHC3HCH2CHCHC2HCH3C2FeC4H3C5HC4HCH3CHC2H5C2HCH2CSHC2SCH2CHCHCHCH2CH3CSHC2H2C6PC18H21C4HCH2C6PC18H22CH3SC3PC3HCH2CH2C2H2PC21H8C2H5CPH5C2HC2HC2H2C2H2C2H4CHCFeCHC2H3CH3C3FeHC3HCH2PHCSCFeH2CH2FeC2SC2SCHC2SH2SCH2CSCHC4SH3CHFeS2C3HSCSHFeSC2SHFeSFeS2C2FeCSCSCS2FeS2FeS2FeSFeS3C3HCH2C6H4CHCSC2HC7H4C6H5C6H4C4PC2HC5H2C4SH3C6HCH2CFeHCHPSHC4H3CH4CFeCHFeHCSHCH3C2H2CH3CHCH2CHC2HCHCH2C3H2C2HC2HCSHSCHC9PC7HC8HCH2CH6FeH8PC2HCHCH2C3FeC3HC2HC2H2CHC5H4CH2SC2FeCH2C2PC4HCHCHCHC2H3C2HC6PC4H3C8H10CH8CH2C7PC3HC14H4CHCH7CH2C2H3C3HPHC5H5C2H2CFeH2CH4SH3CSH5C3HC2FeHC2HCHC3HCH2CH5C2HC2H2C3FeH2C3H3CHC2SH3CHC2H4C6HCSCHCFeS2FeS2FeSFeS3FeSFeS2C2FeSHSH3FeS2FeS2FeSFeS3FeS2FeSCFeSFeS3HSCSHC2SHC7H4C6H5C6H4C7H5C2HC6H4C6H3C3HC6HCH2C6H4CH2SH2FeC3HCHC6PC18H21CH7C2H3C3H3CHC2H9CH2CHC2HCHC5H2C6HCHCH4CHCHCHCHC3HC5HCH2CH4CPHCH3C7PC8HC8H17C2H3CHC3H5CPCSHC2HC4HCSCHC3H2C3HC5H3C5HCHC2HCFeC2HC6PC4HC13H6CH10C2H4CH2C2H2CHC5H3C2HFeC4H3PCHPCH2C3PC5HC4H3CHSH4C3HC3H2C3H2CHCHC2HCSC2HC4PCHCH2CH3C2HC4H2CHCH2C3SC2PCHC5HC5HCSH3CHSHSHFeHSCSH4C3HS2FeS2FeS2FeS2CSCS2H2C2HCH2C6HC6H4C6HCH3C2H3C8H5C2H2CH2CH2C3HCHCH2CHC7HC4PC18HCH10C2H6CH4CH3CH2C2HCSHC7PCSHPCHCH4C4HCH2PH2PH2CH2SC2H3C2HCHCHCHCHCHC4HCHCHCHC2H4C2H3CH5PH4CHC3HS2C5HCHC2H2C9PH2SCHPC4HCHC2SC3H2C3FeHC2FeH2CHCHCHC2HC2HCPCH2CFePC3HC2FeCH2CH2C2H2C2HC2HCH2C3HCHC3HCHC3FeCHC2HFeH7C2HC3H2C2H2FeHC3H2C3HCH2C2SC2H3C2HCHCH3CH2CSCH4FeS2FeS2FeS2FeSFeS4FeS2FeS2CFeC3H2FeS2FeSCHC6H4C6HCHC5HCH2CHC6H5FeC6H2C2S2C6H3SC6PC13HCHSCH3CH13P2CH2PHC3FeH3C8HC2H2CH2CHCHC3H2C2H2C2PC2H7C4H2C2HCH3CH3C2HCHCHC2H3CHCHSHC2HC4HC3SCHCH2CHC2H2CH7CH2CHC7HCHCH4C2H2CHCHCHC3HCPCH2CHCH2C3H2C5HC2HC2H2SHCH2SC2HC5HC2HC2HC2H2CH2CHCHCHSPC14HCHC2H11C2H2C4H3CH3CSC2HCPC2H2C2HCH3CHCH3C3FeHFeHC5HCFeCH2FeH3C2HCH2CH2CH5C2HC5HC2HC2HS2H3FeS2FeSFeS2FeSFeS3H2FeS4HC2HCHFeS2FeS2FeSFeS3HC2FeS2FeSC2S2HSFeH2CH2C2H4CHC6H4C4H5C7H3C6H5CH2C6H3C6H4C6H4C6H4C6SH3C2SCH6C2HC2H2FeHSC5HCHC2H2C2HC2H5CH2CHCH2CSHC7PHC2HSC3SHCHFeHC3H4CH2CSC2H2CH3CH2CSH2SCH2FeCH6C2H2C2HC3HC2HC3HC2H2C7H2CSHCHC4PC19HFeH18C3H4C2FeC3SPC9SC8H2CH2PH3CH2C3H3C6PC8SC7HCH8CHC2HSFeHC2H2CHC2Fe2CHCHSC3H2C3HC4HFeCH2CHC3HC6H4C3HPH3CHCHCH6FeH2CHC2H2C7PC18H7C2H11C6PCH2C4H2C2HC3HC2FeC2H2CH3PHCHCHCHCHSFeHCHCHCH2C2SHCH4CFeS2HFeHFeSH3FeHSHC2FeS2FeS2FeSFeS3FeS2FeS2FeSFeS3FeS2FeS2FeSFeHS2FeCSFeHSH2CS2HFeSHS2H2C7H4C7H4C6H4C6H4C6H4C6H8CSC2HCH3C9HC8H4C6H4C3H2C6H7CH2CHCHSH2CH2S2C3HSC3HCFeC3HFeC2H2CSC4H3C3HCH2PC4H2C3H2CH4CHC2HC6FePHC7HCHSCHC2H5C2H4CH5CH2C2HCHCHSCHPC2HC6H3CHC8HC2HCSHC4SHCH2C2H4C10PC18H12CH7CHPC2H2CHC11H2C2HC4H2CHPCSHC3H2CSH2C3HC3HPC18PH6CH10C6PC3HC13H18C4PC19H16SH4CHC5H3CHSHCHSCSCH5CHC2H4CHC2HCPH6CHCHCH3C2FeHC2H3CHFeC2HCHC3H2C2PHC3HSC2HC2HC3HS3CFeSFeHS2CHCS2HSH2S2CHS2HPFeS2FeS2FeSFeS3FeS2FeSFeSFeS3FeS2FeS2FeSFeS3C2SHFeSC6H4C6H4C6H4C6H4C6HCHC7H3CHC6H3CH2CHCH3PHC2SC8H2C6H4C7H4C7H3CH2CHCHPC7HC3H2CH5CH2CH2CHPC3HC14FeSC2H2CHCH11CHC3HSH2SPC4HC7HFeSH7FeHC4HSH2CHCFeHCPCHCH4C3H2C2H6FeCHCH2CSCHC6PC18H20CHC3PC18HC2H18CH3C7H5C2H5CPC2H2CHC6HCFeHC3HCHC3H8C7H3CHSH2C2HCH6C2HC2HC2H3C2H3C2HC3HCH3C6HFeHCH2CH4C2H2CHC4SH2C3HC7HC3H2C3HCHCH3C2HC4HC7H2SC2HC2HCHC5H2C2HCH2C2H2PSPC3PC7HCHC3H2CHC2HFeC2H4CSCHSFeCHC6HCH3CHC2HC2H3C5H3C4H3CHC2FeCHCH2CH5C2H2CHC2HFeC2HC2H3C5H2S2HFeSFeSHSH2CH2CS2CHS2FeS2FeS2FeSFeS3CS2FeSFeS2FeS2Fe2S3FeS2FeS2FeSFeS3HCHC6H4C6H4C6H2CHC6H4C6H4C6H5C6H2CFeH3C6H4C6H4C6H5C3H2C6HCHC3H3CHC3HC6PCHC2H4C3Fe2C2HC3HCH2PC3H2C5H2C4HC2H3CH2CS2PCH3CH2CHC5H4C6PC10H2C2H3CH5CH5C2HC8PC18H21CFeC3PC19H2CH9PCH5CHC2H2C4HC3H5C4H2C3H2CHSC2HC5HCH4CHC2H3CH2C2PHCHCHC2FeCHC2SC3HCH3CH4C2HC2PCH3C9H3CFeH2SCHC4H7CHC2SH2C3H2C6PC14H17C6PC3SC9HCH6C3HC2H3CHCFe2C2HCH2C2H3C2HC6HC2H6C3HCSCPH2C2H3CHFeC2PCH2CHC4H2CSH3C2H2CHC2HCH3CH4CSHC2HCH2CHC2H3C6H2C4HC4HC2SHC3HCH2C5H3C2HSC2HC2SCH2C5H2C4H3C3HCHSCHCH2C2HCHCHCH2C2H2C2H3C2HCH2CH2PH2CHCH2CHSCH2FeCH2C5SCHPCHCSFeS2HSFeSFeS2FeS2FeS2FeSFeS3FeS2FeSFeSFeS3FeS2FeS2FeSFeS3HFeS2FeCHSCFeC2FeHSC2SHCSHCSH3CH4C6H4C2H3CHC2H3CH2C6H4C6H4C6H4C6H4C6H4C6H4C6H4C6H4C6H7C4H7CSC2HCHPC6H3C2HC2H2CH2C3SH3C2HC3H3CH2CHCHFeCPC2H2FeH2C2H2CSC6PC17H19C3HPC2HC4H2C3H2C3H3CH2CHC3HC2H2C3HSC2HC5HC7HSH5CHCHCHCSPH3C2H2CHC3HCH2C2PCH4C2HCHC5H2C2H2C7PC18H20C8PC8HC3H2C2H10C2FeH2CH2CHCSHS2CH3CHCPC9HCH2CHCHCH7C4HC3HC3H3C5H2C2HCH3C2HCHC2HCH2SH3CSC10H7C2HCHC3FeCH2C5HCH2CHCSH3CSHC4HCHCH2CH2CHCHC2HCPCHC5H2C2HFeC5H3PCHCH6C4PC2SCH6C4HFeH2C3H2FeC3HC3HCHSFeSHFeS2FeSFeS3CSCFeS2FeS2CSCFeC3HFeS2FeS2FeSFeS3CFeS2H3C2S2CSC7H3C6HC8HC2H2C2HC6H4C6H4C2HC6H4C6H4C6H2CHC6H4C6H4SCHCHC2SH2CHC2HSCHFeC3H3C2HC3H2C2HC6PHCH2CHSCHCHCHCH2CH7CH2CHCH3SCSFeH2CH3CHC2H2CSHCHCHCHC5H3C3PSC2SHC2HC5HC4HPC3HC4H2C5H2C3H5SFeH10C3FeHCPC18H2C3H9CH5CH5SH6CHCH3CSCH4CHCH2CH2CH3C2HC8HC4H4C2H2PCHCH2CHCH3CH2CH2C6PC15HC2H16C2H2C2H3CHC2HCHC4HCFeH2CHC7PC13H3C3H3C2HCHFeH2CHCHCH2CH3CH2C2HC2HC2H2CH7CHCH7CHFeC3FeC2HCHC2SHCHCH3C2SCHCFeSFeS2FeSFeS3CSHSCFeSCS2CSH2C3FeS2HFeS2FeS2FeS2CH2C7H4C7SH2CSHCHC6HCHPC3HC2H3C6H4C8H3C4H2C3HCPC3H2C7HFeHC4H5CH6SHC7HCH8C2H5CHC2HCHPHC6PC18H20C6PFeC6H3CHC2HCS2CHCHCHCH4C2HCH6SHC2H2CHCHC2FeCHC2HCH3CH2C2FeHC2HCHCH2CHCHPH6CHCHC2HCHC2H2C2HC4HC2H3C2HFeHCH3C7HCHCHCHCH2CH2C2H2C2H4CHCHCHCH2C3H3C3HCHC5H2CHCHSCHSHSHFeCSHFeS2HC4HFeS3FeSFeS2H2S2FeSH2SHFeS2HC2HCH3C2HCSC3HC6H4FeCPC5SC2PHC4H2C8H4CSHC7H4C5FeH2C2HC3H2C4HSHCH2C7HC2H2CH6C2HCHCHCHC4HCH2C2SH2C3HC3HCHSPH3C5PH3C2HCHFeHCHCHCSC3H2CH2CH3PC3HCHC2HCHC2HC3HCHCHFeCH6C2H2CH7CHCHCHC2H2C2HC2HC2HC2HCHC3HC3HC3HC2H4C2HCHC3PHCHCH2PH2CHCHFeC2HSCHC4HCH3C7H4CHCHPHFeHC5H3C3H2SFeH3C2H3CHCFeH3CSCHCHS2CHCHSHFeHSHSFeS2FeSCFeSFeS3FeS2FeS2FeSFeS2FeSHFeS2FeSFeS3FeS2CSHFeCHCHC6H4C6H2CHC6HCH2C6H4C6H4C5HC6H4C6H4CH4FeC2H2C2SPHC4HC2H7CHC8HPSHCH3C3HCHC9SC2HCHCH2CH8C2H3CH2C2HCHCH2C2HC2HC2HPH2C2HCHCHC2HC3HC2HC3H2CHCH2CFeC2HPC10H9C7HCHC3P2CH6C2PH2CHC10PC17H18C3H3C7HCH2C2H2CHPC4HC3HPH2C2HSCH3CHCH3CHC11SH6C2HC3H3C5H2C2H2C2H5C2HC2HCHCH2CH2C3H2C2HC2H2PH2C4H2C7HC4HCH4CH7C3H2CHCHSC4H2C2HC4HPC5HCH4CH2CHC2H2FeC4SC2H2CSFeSHFeSFeSC3HCHSC2H2C4SCH2S3HSHFeS2HFeS2FeS2FeSFeS3FeS2FeSFeSC2H2C6H4C6H4C6H5C3HCH2C2HC6H4CHFeHSC3HCHCH2C6HCH3C7H2FeH2CHC3HC6PHC3HPH2C3FeC2H2CH7CHC2H2CHC2H2C2FeHSC2H2CH2CPC8HC2HC7SCHCHC4H2C5H2C7PC4H7C2HCH5S2HCH2C4H4CH4C3HCHC2HCHSHCSH4CHC2H3C3HCH2C2HC2HC3HFeH4CHC2H2C3HC5HCHC2H4CH2C7PC9SHCHCH7CH2C3HPC7SC3HC7HC2HCHPH6CPH3CHSCSH2CHC3H3C3HC3H3SC2HC2HC2H2CHCH2CH5FeHC2PC2HCSC2H2CHCH3CH2CH2CSHCHPHC5H2CHC2HFeSHS2H2C2HSC2HCHSFeS2HC3SFeS2FeS2FeSFeS3HCFeS2HSH2SH3SC2SHFeSCFeSFeSFeS3C3HCSH2C3HC6H4C3H2CHC6H5C2HC6H3C6H4C4H5C7HCH2C3HCHC2HCHC2H2CH2CH4C2HSCHC6HC2HCH2SHC2H2SC2HPSHC2H2SH3C2PC10HCH2CH11C6HC4HCHCH4CHCH3C2SCH3CHC10PC8HC9H7CH11FeH3C2HSC7PC7HCH3C2HSCH3SH7CH2CH3FeC3HCH2FeCHFeC2SCFeC2HC3PC3FeC2H2C3HC2H3C3H3C4H2C3H2C2H2CH2C2H4C2H2C2HC2SC6PC18H20C6PC14H2SCH6SH9CHCHC3H3C3H4C2FeC2FeCSHCHCHCH3PH5C3HC4HP3C11HC6H2C3H4CH3C2HCH3C8HC2S2HSHCSHC3SCSH2FeH3C2HCHCH2CHC2HCHC2HC2FeHCHCPH2CHC2H2C4SCH2C2HPHC4HCHC2HC3H4CH2C2H2SC2HS2HC3SCHSH4FeS2FeS2FeSFeS3FeS2HSC2H3CFeS2FeC2FeS2FeS2FeS2CH2CHC2FeC3HCH2C4HCH3C6H3C6H4FeHCFeC4PC2H3C6H5CHCHC2HCHC2H2FeH2CSH6C3H2C5H4SHPHC2H2SC2H3C8H2SPHPHSHC3SH3CH2C7PC14PHC2SH15CH2CHSHC2H2C4HCHC4HC2HC2HCHFeCSFeC3HC2H2C3HCHC4HC4HC5H2C4H2CH4CHFeHCHCFeHFeC3HCHCHC2H2SC2HCHCHC4H3CHCHC3HC2SC2H4C4H2CH2CHFeCH3CHC7PC8H3C3SC2HCH10CH4SHCHC2FeCHCH2C3H2FeC2H2SHCHC5H7CHC8H2CH3CHCHCHCHSH3C7PC14HC3H17CH2SC5PC18H2C2SH3C2H2C2HCHCHCH2CSCH2C2H2CHCPCH2C2FeHSFeHSFeHFeCS2CFeS2FeS2FeS3C2FeS2FeS2FeSFeS3C2SCH4FeS2PHFeSFeS2C2H2C3H4C3H4CHCH2FeC6H7C2H3C2HC2HSHC6H4C6H4CHCHC7H3CHCH2C3HCSFeH3C6H4SCHC6PC18H20C5SHSC5HC4HFeSHC3H2CHC2HCHPHCHCSC2HCH3C4PC3HC3HC3FeC11HC2H4C2H8CH7CHC3HCH2C2HCHC2H3C3PC11HC7HCH2C2H5C2H6CH2CH2CHCHCHCSHCH4FeCSHCH3C2H4CH2C7PC7SCHCH4CHC3H2CH2C5H3CH6C2HC2H2C2HC2HCHC5H3CHC3H3SCH2C3H2C4SCHC4H5C2H2FeCH2C3HPHCH2CHCHCHCHC
_chemical_formula_sum              "Fe400 S800 C6000 H4800 P200"
_cell_length_a       82.497
_cell_length_b       81.3127
_cell_length_c       60.4187
_cell_angle_alpha    79.5179
_cell_angle_beta     79.5217
_cell_angle_gamma    102.594

_space_group_name_H-M_alt    "P 1"
_space_group_IT_number       1

loop_
  _space_group_symop_operation_xyz
  'x, y, z'

loop_
  _atom_site_type_symbol
  _atom_site_label
  _atom_site_symmetry_multiplicity
  _atom_site_fract_x
  _atom_site_fract_y
  _atom_site_fract_z
  _atom_site_occupancy
  Fe  Fe1       1.0  0.11551  0.10901  0.36999  1.0000
  S   S1        1.0  0.13192  0.11535  0.33372  1.0000
  S   S2        1.0  0.11728  0.09016  0.40162  1.0000
  Fe  Fe2       1.0  0.09383  0.13355  0.35761  1.0000
  S   S3        1.0  0.10843  0.14139  0.32069  1.0000
  S   S4        1.0  0.07261  0.14655  0.36645  1.0000
  Fe  Fe3       1.0  0.10665  0.11314  0.32352  1.0000
  S   S5        1.0  0.09934  0.10137  0.29420  1.0000
  Fe  Fe4       1.0  0.13238  0.14328  0.33402  1.0000
  S   S6        1.0  0.15192  0.16925  0.31563  1.0000
  S   S7        1.0  0.09035  0.10516  0.35963  1.0000
  S   S8        1.0  0.11766  0.13706  0.37114  1.0000
  C   C1        1.0  0.00331  0.99965  0.15931  1.0000
  C   C2        1.0  0.09510  0.42538  0.41925  1.0000
  S   S9        1.0  0.13075  0.01635  0.39824  1.0000
  C   C3        1.0  0.06459  0.09631  0.46502  1.0000
  H   H1        1.0  0.15774  0.42130  0.97364  1.0000
  S   S10       1.0  0.11240  0.12582  0.00616  1.0000
  S   S11       1.0  0.14129  0.10744  0.98507  1.0000
  Fe  Fe5       1.0  0.11353  0.09900  0.00325  1.0000
  S   S12       1.0  0.10364  0.07556  0.03340  1.0000
  C   C4        1.0  0.15383  0.45086  0.40551  1.0000
  S   S13       1.0  0.16285  0.15171  0.99588  1.0000
  S   S14       1.0  0.00853  0.03700  0.26558  1.0000
  C   C5        1.0  0.16242  0.44369  0.42128  1.0000
  S   S15       1.0  0.01960  0.00116  0.28210  1.0000
  Fe  Fe6       1.0  0.01818  0.02502  0.29545  1.0000
  S   S16       1.0  0.03455  0.03657  0.31818  1.0000
  Fe  Fe7       1.0  0.00750  0.01202  0.25392  1.0000
  S   S17       1.0  0.01821  0.01197  0.21634  1.0000
  Fe  Fe8       1.0  0.10505  0.12769  0.97173  1.0000
  S   S18       1.0  0.02370  0.04297  0.05530  1.0000
  C   C6        1.0  0.99615  0.45081  0.25806  1.0000
  Fe  Fe9       1.0  0.06740  0.45813  0.37311  1.0000
  S   S19       1.0  0.04337  0.46446  0.38844  1.0000
  S   S20       1.0  0.07731  0.43552  0.38732  1.0000
  Fe  Fe10      1.0  0.03883  0.46910  0.35260  1.0000
  S   S21       1.0  0.01049  0.46199  0.35323  1.0000
  S   S22       1.0  0.06172  0.46035  0.33782  1.0000
  Fe  Fe11      1.0  0.06995  0.46644  0.98211  1.0000
  S   S23       1.0  0.05869  0.45193  0.01919  1.0000
  H   H2        1.0  0.02114  0.49276  0.31788  1.0000
  C   C7        1.0  0.05942  0.37852  0.45748  1.0000
  S   S24       1.0  0.03524  0.47893  0.02297  1.0000
  Fe  Fe12      1.0  0.06167  0.47833  0.02742  1.0000
  C   C8        1.0  0.98767  0.99743  0.20546  1.0000
  Fe  Fe13      1.0  0.03333  0.45398  0.01144  1.0000
  S   S25       1.0  0.00839  0.43258  0.02457  1.0000
  H   H3        1.0  0.16766  0.10372  0.02598  1.0000
  H   H4        1.0  0.05100  0.47407  0.45114  1.0000
  H   H5        1.0  0.00356  0.37604  0.41465  1.0000
  H   H6        1.0  0.99252  0.10362  0.32107  1.0000
  C   C9        1.0  0.12974  0.47672  0.32970  1.0000
  P   P1        1.0  0.99381  0.48239  0.44685  1.0000
  C   C10       1.0  0.14392  0.12891  0.06399  1.0000
  C   C11       1.0  0.00635  0.41398  0.37742  1.0000
  S   S26       1.0  0.99882  0.99985  0.04322  1.0000
  C   C12       1.0  0.00447  0.44024  0.32329  1.0000
  H   H7        1.0  0.08934  0.10292  0.44155  1.0000
  H   H8        1.0  0.16494  0.43885  0.45661  1.0000
  H   H9        1.0  0.01808  0.44159  0.31894  1.0000
  C   C13       1.0  0.15598  0.47182  0.33878  1.0000
  C   C14       1.0  0.99786  0.43524  0.98322  1.0000
  C   C15       1.0  0.07827  0.09258  0.45134  1.0000
  H   H10       1.0  0.04410  0.44404  0.44604  1.0000
  H   H11       1.0  0.12711  0.99926  0.36081  1.0000
  H   H12       1.0  0.99943  0.09042  0.41822  1.0000
  C   C16       1.0  0.08552  0.43680  0.41210  1.0000
  C   C17       1.0  0.08223  0.44875  0.42513  1.0000
  C   C18       1.0  0.08789  0.44879  0.44569  1.0000
  C   C19       1.0  0.03101  0.03057  0.00169  1.0000
  H   H13       1.0  0.07507  0.45778  0.41957  1.0000
  H   H14       1.0  0.08506  0.45786  0.45594  1.0000
  H   H15       1.0  0.09053  0.01065  0.04155  1.0000
  H   H16       1.0  0.11987  0.42735  0.03062  1.0000
  S   S27       1.0  0.10414  0.10013  0.97056  1.0000
  H   H17       1.0  0.15749  0.40181  0.43683  1.0000
  C   C20       1.0  0.14676  0.15383  0.09442  1.0000
  C   C21       1.0  0.00535  0.00432  0.19779  1.0000
  C   C22       1.0  0.01311  0.00529  0.17467  1.0000
  H   H18       1.0  0.02676  0.01047  0.16855  1.0000
  C   C23       1.0  0.17190  0.17014  0.00661  1.0000
  C   C24       1.0  0.02296  0.31374  0.46464  1.0000
  C   C25       1.0  0.16354  0.18305  0.01009  1.0000
  S   S28       1.0  0.01538  0.11087  0.45842  1.0000
  H   H19       1.0  0.15130  0.18230  0.00580  1.0000
  C   C26       1.0  0.04612  0.05085  0.04819  1.0000
  C   C27       1.0  0.05326  0.06773  0.03458  1.0000
  C   C28       1.0  0.07094  0.07507  0.02933  1.0000
  C   C29       1.0  0.08160  0.06579  0.03827  1.0000
  C   C30       1.0  0.07454  0.04881  0.05174  1.0000
  C   C31       1.0  0.05684  0.04123  0.05638  1.0000
  H   H20       1.0  0.04505  0.07524  0.02819  1.0000
  H   H21       1.0  0.07622  0.08817  0.01900  1.0000
  H   H22       1.0  0.08276  0.04153  0.05860  1.0000
  H   H23       1.0  0.05145  0.02815  0.06667  1.0000
  C   C32       1.0  0.00803  0.07036  0.43744  1.0000
  H   H24       1.0  0.06325  0.01904  0.31938  1.0000
  C   C33       1.0  0.06388  0.01878  0.28382  1.0000
  C   C34       1.0  0.06347  0.47475  0.24717  1.0000
  C   C35       1.0  0.06497  0.99949  0.03785  1.0000
  H   H25       1.0  0.10772  0.41626  0.44556  1.0000
  C   C36       1.0  0.12012  0.06935  0.40021  1.0000
  C   C37       1.0  0.11784  0.05705  0.42088  1.0000
  C   C38       1.0  0.12034  0.04050  0.42055  1.0000
  C   C39       1.0  0.12572  0.03631  0.39944  1.0000
  C   C40       1.0  0.12807  0.04864  0.37874  1.0000
  C   C41       1.0  0.12504  0.06500  0.37909  1.0000
  H   H26       1.0  0.11436  0.06043  0.43721  1.0000
  H   H27       1.0  0.11860  0.03118  0.43660  1.0000
  H   H28       1.0  0.13230  0.04553  0.36235  1.0000
  H   H29       1.0  0.12690  0.07438  0.36305  1.0000
  C   C42       1.0  0.05647  0.13653  0.39170  1.0000
  C   C43       1.0  0.05686  0.12106  0.40580  1.0000
  C   C44       1.0  0.04381  0.11313  0.42571  1.0000
  C   C45       1.0  0.03045  0.12069  0.43200  1.0000
  C   C46       1.0  0.03002  0.13619  0.41793  1.0000
  C   C47       1.0  0.04301  0.14408  0.39776  1.0000
  H   H30       1.0  0.06720  0.11519  0.40131  1.0000
  H   H31       1.0  0.04406  0.10104  0.43623  1.0000
  H   H32       1.0  0.01992  0.14227  0.42284  1.0000
  H   H33       1.0  0.04271  0.15611  0.38692  1.0000
  C   C48       1.0  0.98646  0.43038  0.96941  1.0000
  P   P2        1.0  0.06987  0.00684  0.00662  1.0000
  H   H34       1.0  0.01321  0.04791  0.45672  1.0000
  H   H35       1.0  0.16985  0.20389  0.29195  1.0000
  C   C49       1.0  0.00597  0.45314  0.44363  1.0000
  C   C50       1.0  0.08122  0.08343  0.30085  1.0000
  C   C51       1.0  0.07426  0.07377  0.32356  1.0000
  C   C52       1.0  0.06007  0.05941  0.32844  1.0000
  C   C53       1.0  0.05256  0.05461  0.31072  1.0000
  C   C54       1.0  0.05936  0.06433  0.28798  1.0000
  C   C55       1.0  0.07373  0.07862  0.28306  1.0000
  H   H36       1.0  0.07999  0.07721  0.33733  1.0000
  H   H37       1.0  0.05489  0.05197  0.34607  1.0000
  H   H38       1.0  0.05362  0.06081  0.27421  1.0000
  H   H39       1.0  0.07903  0.08604  0.26545  1.0000
  H   H40       1.0  0.10478  0.00268  0.99481  1.0000
  C   C56       1.0  0.04090  0.08877  0.17876  1.0000
  C   C57       1.0  0.03941  0.07608  0.19857  1.0000
  H   H41       1.0  0.13627  0.20997  0.29951  1.0000
  C   C58       1.0  0.03782  0.05436  0.17587  1.0000
  C   C59       1.0  0.03955  0.06704  0.15579  1.0000
  C   C60       1.0  0.04082  0.08426  0.15748  1.0000
  P   P3        1.0  0.03855  0.06090  0.12865  1.0000
  C   C61       1.0  0.05020  0.07894  0.10465  1.0000
  C   C62       1.0  0.04786  0.04288  0.12707  1.0000
  C   C63       1.0  0.06217  0.04182  0.13624  1.0000
  C   C64       1.0  0.06911  0.02764  0.13547  1.0000
  C   C65       1.0  0.06186  0.01450  0.12547  1.0000
  C   C66       1.0  0.04778  0.01562  0.11603  1.0000
  C   C67       1.0  0.04087  0.02980  0.11664  1.0000
  C   C68       1.0  0.06680  0.07977  0.09283  1.0000
  C   C69       1.0  0.07568  0.09375  0.07431  1.0000
  C   C70       1.0  0.06801  0.10685  0.06715  1.0000
  C   C71       1.0  0.05152  0.10616  0.07879  1.0000
  C   C72       1.0  0.04267  0.09231  0.09753  1.0000
  C   C73       1.0  0.01641  0.05393  0.12767  1.0000
  C   C74       1.0  0.12840  0.21356  0.44152  1.0000
  H   H42       1.0  0.02121  0.03397  0.01316  1.0000
  C   C75       1.0  0.04219  0.02198  0.01076  1.0000
  C   C76       1.0  0.99352  0.42952  0.31328  1.0000
  H   H43       1.0  0.01192  0.00771  0.36719  1.0000
  H   H44       1.0  0.04180  0.10205  0.18001  1.0000
  H   H45       1.0  0.02601  0.48180  0.20497  1.0000
  C   C77       1.0  0.02233  0.00309  0.37248  1.0000
  H   H46       1.0  0.03609  0.04086  0.17531  1.0000
  H   H47       1.0  0.04154  0.09420  0.14254  1.0000
  H   H48       1.0  0.06791  0.05190  0.14404  1.0000
  P   P4        1.0  0.04493  0.48202  0.24222  1.0000
  H   H49       1.0  0.04213  0.00552  0.10820  1.0000
  H   H50       1.0  0.03005  0.03043  0.10898  1.0000
  H   H51       1.0  0.07290  0.06956  0.09744  1.0000
  H   H52       1.0  0.08834  0.09412  0.06499  1.0000
  H   H53       1.0  0.07474  0.11734  0.05227  1.0000
  H   H54       1.0  0.04546  0.11616  0.07296  1.0000
  H   H55       1.0  0.02982  0.09187  0.10619  1.0000
  H   H56       1.0  0.17531  0.47974  0.97095  1.0000
  C   C78       1.0  0.12865  0.45452  0.36304  1.0000
  C   C79       1.0  0.17901  0.19811  0.29880  1.0000
  C   C80       1.0  0.01514  0.01037  0.46315  1.0000
  H   H57       1.0  0.02085  0.06330  0.09053  1.0000
  H   H58       1.0  0.00157  0.00766  0.99027  1.0000
  C   C81       1.0  0.14165  0.15464  0.22839  1.0000
  C   C82       1.0  0.13590  0.14586  0.25167  1.0000
  C   C83       1.0  0.14596  0.14941  0.26733  1.0000
  C   C84       1.0  0.15883  0.47377  0.26662  1.0000
  H   H59       1.0  0.12919  0.46817  0.44167  1.0000
  C   C85       1.0  0.15754  0.16686  0.22075  1.0000
  C   C86       1.0  0.14429  0.41908  0.97414  1.0000
  H   H60       1.0  0.07857  0.08808  0.14539  1.0000
  C   C87       1.0  0.17364  0.18087  0.31174  1.0000
  C   C88       1.0  0.15889  0.44516  0.44425  1.0000
  H   H61       1.0  0.04191  0.44623  0.23708  1.0000
  H   H62       1.0  0.04308  0.38899  0.43768  1.0000
  C   C89       1.0  0.01153  0.05672  0.10651  1.0000
  H   H63       1.0  0.98843  0.02744  0.45101  1.0000
  C   C90       1.0  0.14205  0.46001  0.41286  1.0000
  H   H64       1.0  0.15946  0.00622  0.42260  1.0000
  C   C91       1.0  0.02266  0.40776  0.98250  1.0000
  C   C92       1.0  0.06331  0.06196  0.46204  1.0000
  C   C93       1.0  0.17153  0.20866  0.24525  1.0000
  C   C94       1.0  0.16953  0.17458  0.11387  1.0000
  C   C95       1.0  0.99770  0.44904  0.33901  1.0000
  H   H65       1.0  0.16976  0.47507  0.33420  1.0000
  H   H66       1.0  0.00822  0.47975  0.99396  1.0000
  S   S29       1.0  0.06936  0.48341  0.06085  1.0000
  C   C96       1.0  0.11448  0.99621  0.35736  1.0000
  H   H67       1.0  0.13375  0.15197  0.21633  1.0000
  H   H68       1.0  0.12361  0.13633  0.25769  1.0000
  H   H69       1.0  0.14145  0.14279  0.28543  1.0000
  H   H70       1.0  0.00942  0.00055  0.14157  1.0000
  H   H71       1.0  0.18177  0.16030  0.33060  1.0000
  C   C97       1.0  0.03843  0.49089  0.19817  1.0000
  H   H72       1.0  0.07202  0.11302  0.12170  1.0000
  H   H73       1.0  0.01707  0.42124  0.24360  1.0000
  H   H74       1.0  0.12188  0.21553  0.45771  1.0000
  C   C98       1.0  0.10948  0.41212  0.97470  1.0000
  C   C99       1.0  0.03245  0.03488  0.97786  1.0000
  H   H75       1.0  0.10467  0.18642  0.02553  1.0000
  P   P5        1.0  0.13255  0.14065  0.08116  1.0000
  H   H76       1.0  0.16439  0.20695  0.02135  1.0000
  H   H77       1.0  0.16086  0.19751  0.25354  1.0000
  C   C100      1.0  0.12397  0.15528  0.06332  1.0000
  H   H78       1.0  0.02818  0.47427  0.29148  1.0000
  H   H79       1.0  0.17828  0.19157  0.07981  1.0000
  C   C101      1.0  0.14657  0.45874  0.35833  1.0000
  H   H80       1.0  0.98741  0.04702  0.34188  1.0000
  C   C102      1.0  0.05035  0.39057  0.45069  1.0000
  C   C103      1.0  0.12426  0.15467  0.04023  1.0000
  Fe  Fe14      1.0  0.13983  0.13489  0.98568  1.0000
  H   H81       1.0  0.15482  0.49100  0.30967  1.0000
  C   C104      1.0  0.16365  0.44550  0.02373  1.0000
  C   C105      1.0  0.08514  0.11237  0.12026  1.0000
  H   H82       1.0  0.04103  0.99751  0.41818  1.0000
  C   C106      1.0  0.18200  0.27005  0.99036  1.0000
  P   P6        1.0  0.15704  0.44674  0.37688  1.0000
  C   C107      1.0  0.05494  0.01767  0.99589  1.0000
  H   H83       1.0  0.13305  0.02363  0.98426  1.0000
  C   C108      1.0  0.14014  0.40016  0.36083  1.0000
  C   C109      1.0  0.00413  0.04425  0.14776  1.0000
  C   C110      1.0  0.98772  0.09712  0.36798  1.0000
  C   C111      1.0  0.11702  0.16758  0.07253  1.0000
  H   H84       1.0  0.10974  0.43529  0.98687  1.0000
  C   C112      1.0  0.07788  0.00258  0.05009  1.0000
  C   C113      1.0  0.06783  0.47354  0.26872  1.0000
  C   C114      1.0  0.08228  0.46800  0.27214  1.0000
  C   C115      1.0  0.09264  0.46390  0.25408  1.0000
  C   C116      1.0  0.08839  0.46502  0.23262  1.0000
  H   H85       1.0  0.98448  0.39660  0.35336  1.0000
  C   C117      1.0  0.99225  0.08655  0.29788  1.0000
  C   C118      1.0  0.06128  0.99321  0.31361  1.0000
  H   H86       1.0  0.06714  0.00346  0.12504  1.0000
  C   C119      1.0  0.09832  0.12546  0.10470  1.0000
  H   H87       1.0  0.13901  0.48594  0.25935  1.0000
  C   C120      1.0  0.17113  0.19719  0.01876  1.0000
  H   H88       1.0  0.06498  0.03253  0.27885  1.0000
  H   H89       1.0  0.06335  0.01471  0.24970  1.0000
  C   C121      1.0  0.16361  0.44698  0.00019  1.0000
  C   C122      1.0  0.17030  0.12502  0.04283  1.0000
  H   H90       1.0  0.13505  0.46551  0.40130  1.0000
  C   C123      1.0  0.02684  0.46358  0.24697  1.0000
  H   H91       1.0  0.08567  0.46725  0.28873  1.0000
  H   H92       1.0  0.10401  0.45999  0.25669  1.0000
  H   H93       1.0  0.98679  0.03659  0.38333  1.0000
  C   C124      1.0  0.99074  0.04105  0.44338  1.0000
  P   P7        1.0  0.06302  0.03978  0.46081  1.0000
  C   C125      1.0  0.02519  0.00329  0.39455  1.0000
  H   H94       1.0  0.15258  0.44603  0.03603  1.0000
  P   P8        1.0  0.05917  0.36025  0.44423  1.0000
  H   H95       1.0  0.18326  0.25213  0.24153  1.0000
  H   H96       1.0  0.04404  0.41432  0.45478  1.0000
  C   C126      1.0  0.99867  0.39843  0.39402  1.0000
  H   H97       1.0  0.02378  0.04157  0.97097  1.0000
  H   H98       1.0  0.06033  0.47704  0.28286  1.0000
  C   C127      1.0  0.99409  0.42715  0.00672  1.0000
  H   H99       1.0  0.09833  0.41662  0.40877  1.0000
  C   C128      1.0  0.16784  0.17023  0.23639  1.0000
  H   H100      1.0  0.10795  0.18940  0.31786  1.0000
  H   H101      1.0  0.13533  0.05479  0.98296  1.0000
  H   H102      1.0  0.08586  0.00902  0.40384  1.0000
  C   C129      1.0  0.15814  0.16936  0.08085  1.0000
  H   H103      1.0  0.12120  0.18340  0.38364  1.0000
  H   H104      1.0  0.00794  0.00605  0.45105  1.0000
  C   C130      1.0  0.14687  0.14879  0.11789  1.0000
  C   C131      1.0  0.02446  0.34814  0.46656  1.0000
  C   C132      1.0  0.15225  0.48582  0.25391  1.0000
  C   C133      1.0  0.14790  0.41758  0.35927  1.0000
  H   H105      1.0  0.07655  0.48810  0.10441  1.0000
  H   H106      1.0  0.00789  0.47718  0.25743  1.0000
  H   H107      1.0  0.09647  0.46196  0.21852  1.0000
  H   H108      1.0  0.09502  0.13595  0.09425  1.0000
  C   C134      1.0  0.10818  0.05127  0.99227  1.0000
  H   H109      1.0  0.04973  0.35373  0.36719  1.0000
  C   C135      1.0  0.09209  0.03961  0.99751  1.0000
  C   C136      1.0  0.12346  0.21908  0.42109  1.0000
  H   H110      1.0  0.02416  0.41060  0.99897  1.0000
  H   H111      1.0  0.03755  0.02438  0.43678  1.0000
  H   H112      1.0  0.09503  0.46293  0.05824  1.0000
  C   C137      1.0  0.12293  0.04558  0.98733  1.0000
  H   H113      1.0  0.09604  0.40962  0.97456  1.0000
  C   C138      1.0  0.11276  0.18558  0.35199  1.0000
  H   H114      1.0  0.13190  0.10906  0.11351  1.0000
  C   C139      1.0  0.03305  0.99715  0.35686  1.0000
  H   H115      1.0  0.01686  0.00790  0.40659  1.0000
  H   H116      1.0  0.03481  0.38624  0.40100  1.0000
  C   C140      1.0  0.12030  0.46354  0.34883  1.0000
  C   C141      1.0  0.00906  0.38830  0.40228  1.0000
  H   H117      1.0  0.10853  0.08616  0.14113  1.0000
  H   H118      1.0  0.07074  0.47105  0.21242  1.0000
  H   H119      1.0  0.04815  0.41446  0.37296  1.0000
  H   H120      1.0  0.02978  0.43198  0.35746  1.0000
  C   C142      1.0  0.00022  0.07508  0.28845  1.0000
  C   C143      1.0  0.11005  0.17876  0.05896  1.0000
  H   H121      1.0  0.06624  0.38382  0.34729  1.0000
  H   H122      1.0  0.04953  0.32284  0.44786  1.0000
  H   H123      1.0  0.09397  0.36513  0.41660  1.0000
  C   C144      1.0  0.06291  0.01106  0.30685  1.0000
  C   C145      1.0  0.11735  0.42672  0.98170  1.0000
  H   H124      1.0  0.18065  0.46402  0.26954  1.0000
  H   H125      1.0  0.16172  0.17357  0.20271  1.0000
  C   C146      1.0  0.16110  0.11052  0.03696  1.0000
  H   H126      1.0  0.99882  0.42271  0.30119  1.0000
  C   C147      1.0  0.13023  0.39581  0.40222  1.0000
  H   H127      1.0  0.08005  0.02680  0.14274  1.0000
  H   H128      1.0  0.14561  0.20126  0.45689  1.0000
  H   H129      1.0  0.11824  0.35395  0.42539  1.0000
  S   S30       1.0  0.04449  0.46658  0.97387  1.0000
  H   H130      1.0  0.16680  0.32243  0.97215  1.0000
  C   C148      1.0  0.14517  0.20827  0.39960  1.0000
  H   H131      1.0  0.00147  0.13601  0.39536  1.0000
  C   C149      1.0  0.12954  0.45418  0.01184  1.0000
  C   C150      1.0  0.11880  0.44049  0.02973  1.0000
  H   H132      1.0  0.00758  0.04125  0.16417  1.0000
  C   C151      1.0  0.10473  0.46048  0.04544  1.0000
  C   C152      1.0  0.11549  0.47419  0.02791  1.0000
  C   C153      1.0  0.12789  0.47110  0.01117  1.0000
  H   H133      1.0  0.15715  0.21733  0.32295  1.0000
  C   C154      1.0  0.14719  0.42414  0.37926  1.0000
  C   C155      1.0  0.09682  0.43685  0.45337  1.0000
  H   H134      1.0  0.09798  0.43305  0.05997  1.0000
  H   H135      1.0  0.12791  0.22099  0.38450  1.0000
  H   H136      1.0  0.15065  0.46454  0.28194  1.0000
  P   P9        1.0  0.15616  0.20543  0.37238  1.0000
  Fe  Fe15      1.0  0.00726  0.01535  0.06800  1.0000
  C   C156      1.0  0.10063  0.42531  0.43992  1.0000
  H   H137      1.0  0.11698  0.16847  0.09021  1.0000
  H   H138      1.0  0.18143  0.42719  0.35937  1.0000
  C   C157      1.0  0.07470  0.99497  0.07369  1.0000
  H   H139      1.0  0.03051  0.99698  0.33990  1.0000
  C   C158      1.0  0.99465  0.47676  0.99461  1.0000
  C   C159      1.0  0.11713  0.16573  0.02676  1.0000
  H   H140      1.0  0.11819  0.02115  0.33494  1.0000
  C   C160      1.0  0.17989  0.45246  0.36532  1.0000
  C   C161      1.0  0.07667  0.35125  0.44941  1.0000
  H   H141      1.0  0.08961  0.01436  0.32692  1.0000
  C   C162      1.0  0.16544  0.18722  0.37749  1.0000
  C   C163      1.0  0.07954  0.04917  0.39012  1.0000
  C   C164      1.0  0.08394  0.03397  0.38705  1.0000
  C   C165      1.0  0.08205  0.02063  0.40624  1.0000
  C   C166      1.0  0.07580  0.02247  0.42854  1.0000
  C   C167      1.0  0.07160  0.03785  0.43185  1.0000
  C   C168      1.0  0.07335  0.05110  0.41237  1.0000
  H   H142      1.0  0.07983  0.40344  0.36961  1.0000
  C   C169      1.0  0.02409  0.41975  0.36995  1.0000
  C   C170      1.0  0.13798  0.41318  0.40072  1.0000
  C   C171      1.0  0.06298  0.00874  0.26741  1.0000
  H   H143      1.0  0.13823  0.13698  0.12881  1.0000
  H   H144      1.0  0.12109  0.44432  0.37779  1.0000
  H   H145      1.0  0.16933  0.16428  0.27227  1.0000
  C   C172      1.0  0.11891  0.11026  0.11555  1.0000
  C   C173      1.0  0.07381  0.47030  0.22920  1.0000
  C   C174      1.0  0.07766  0.07551  0.44994  1.0000
  H   H146      1.0  0.00945  0.47947  0.40006  1.0000
  H   H147      1.0  0.02477  0.36123  0.46803  1.0000
  C   C175      1.0  0.10642  0.44365  0.04640  1.0000
  C   C176      1.0  0.98863  0.48509  0.97672  1.0000
  H   H148      1.0  0.08132  0.05966  0.37525  1.0000
  H   H149      1.0  0.08918  0.03267  0.36985  1.0000
  C   C177      1.0  0.14176  0.20551  0.44105  1.0000
  C   C178      1.0  0.00487  0.05262  0.44664  1.0000
  H   H150      1.0  0.07013  0.06303  0.41415  1.0000
  H   H151      1.0  0.05560  0.07188  0.96969  1.0000
  C   C179      1.0  0.03832  0.32653  0.45544  1.0000
  H   H152      1.0  0.18278  0.03302  0.40621  1.0000
  C   C180      1.0  0.07085  0.38443  0.40197  1.0000
  H   H153      1.0  0.08847  0.07292  0.43935  1.0000
  H   H154      1.0  0.17106  0.26058  0.98871  1.0000
  C   C181      1.0  0.14335  0.10513  0.04464  1.0000
  H   H155      1.0  0.16046  0.19669  0.42026  1.0000
  C   C182      1.0  0.01822  0.44364  0.44367  1.0000
  P   P10       1.0  0.14494  0.44981  0.98970  1.0000
  C   C183      1.0  0.17089  0.24125  0.36048  1.0000
  C   C184      1.0  0.06124  0.36758  0.41351  1.0000
  C   C185      1.0  0.18009  0.15918  0.38537  1.0000
  H   H156      1.0  0.10474  0.18824  0.06611  1.0000
  C   C186      1.0  0.17035  0.22498  0.24866  1.0000
  C   C187      1.0  0.13138  0.38926  0.38232  1.0000
  C   C188      1.0  0.03781  0.05888  0.19712  1.0000
  H   H157      1.0  0.07682  0.39315  0.41139  1.0000
  C   C189      1.0  0.02684  0.39403  0.39460  1.0000
  H   H158      1.0  0.10047  0.17642  0.35990  1.0000
  C   C190      1.0  0.14474  0.20865  0.33133  1.0000
  H   H159      1.0  0.99514  0.06879  0.27589  1.0000
  H   H160      1.0  0.15886  0.22629  0.25932  1.0000
  C   C191      1.0  0.01015  0.46507  0.25435  1.0000
  C   C192      1.0  0.09065  0.02205  0.99794  1.0000
  C   C193      1.0  0.15822  0.15916  0.12755  1.0000
  H   H161      1.0  0.15954  0.24249  0.37148  1.0000
  C   C194      1.0  0.17042  0.40052  0.43340  1.0000
  C   C195      1.0  0.10569  0.09721  0.13111  1.0000
  H   H162      1.0  0.06491  0.10961  0.46570  1.0000
  H   H163      1.0  0.12550  0.37575  0.38351  1.0000
  H   H164      1.0  0.10646  0.46029  0.35270  1.0000
  H   H165      1.0  0.10923  0.06481  0.99191  1.0000
  C   C196      1.0  0.14704  0.45415  0.45149  1.0000
  C   C197      1.0  0.09231  0.35625  0.43300  1.0000
  C   C198      1.0  0.11536  0.12461  0.10239  1.0000
  H   H166      1.0  0.15839  0.17345  0.06266  1.0000
  C   C199      1.0  0.99841  0.99429  0.98894  1.0000
  H   H167      1.0  0.12096  0.11015  0.06323  1.0000
  H   H168      1.0  0.04086  0.01896  0.02929  1.0000
  C   C200      1.0  0.03437  0.40986  0.37864  1.0000
  C   C201      1.0  0.03149  0.48818  0.28487  1.0000
  C   C202      1.0  0.03880  0.99752  0.40103  1.0000
  C   C203      1.0  0.12162  0.02807  0.98799  1.0000
  H   H169      1.0  0.11524  0.33449  0.46338  1.0000
  H   H170      1.0  0.02121  0.06317  0.28774  1.0000
  H   H171      1.0  0.07446  0.01192  0.44313  1.0000
  H   H172      1.0  0.00968  0.44510  0.97560  1.0000
  C   C204      1.0  0.16180  0.16160  0.25978  1.0000
  C   C205      1.0  0.00973  0.47015  0.44680  1.0000
  C   C206      1.0  0.10554  0.01628  0.99361  1.0000
  H   H173      1.0  0.14574  0.16899  0.36837  1.0000
  H   H174      1.0  0.98366  0.08578  0.36134  1.0000
  H   H175      1.0  0.14102  0.39509  0.34539  1.0000
  H   H176      1.0  0.04661  0.34329  0.40905  1.0000
  C   C207      1.0  0.13875  0.46167  0.43577  1.0000
  C   C208      1.0  0.17803  0.39646  0.45183  1.0000
  H   H177      1.0  0.17815  0.44234  0.04982  1.0000
  C   C209      1.0  0.11002  0.17776  0.03611  1.0000
  H   H178      1.0  0.02244  0.30032  0.46453  1.0000
  H   H179      1.0  0.17836  0.18260  0.12129  1.0000
  C   C210      1.0  0.99712  0.07659  0.42489  1.0000
  C   C211      1.0  0.99865  0.43506  0.25410  1.0000
  C   C212      1.0  0.13185  0.21653  0.40020  1.0000
  C   C213      1.0  0.99766  0.12529  0.38746  1.0000
  C   C214      1.0  0.09315  0.00457  0.33828  1.0000
  H   H180      1.0  0.13029  0.14591  0.03242  1.0000
  H   H181      1.0  0.98864  0.42579  0.41330  1.0000
  H   H182      1.0  0.11744  0.16515  0.00890  1.0000
  C   C215      1.0  0.02541  0.05479  0.38247  1.0000
  C   C216      1.0  0.03731  0.06078  0.39483  1.0000
  C   C217      1.0  0.04453  0.07856  0.39129  1.0000
  C   C218      1.0  0.03983  0.09034  0.37539  1.0000
  C   C219      1.0  0.02794  0.08441  0.36284  1.0000
  C   C220      1.0  0.02058  0.06657  0.36674  1.0000
  P   P11       1.0  0.02077  0.09976  0.34406  1.0000
  C   C221      1.0  0.00498  0.10626  0.36281  1.0000
  C   C222      1.0  0.03858  0.11765  0.32815  1.0000
  C   C223      1.0  0.03649  0.13447  0.32235  1.0000
  C   C224      1.0  0.05038  0.14822  0.30978  1.0000
  C   C225      1.0  0.06627  0.14517  0.30226  1.0000
  C   C226      1.0  0.06821  0.12835  0.30712  1.0000
  C   C227      1.0  0.05449  0.11464  0.32013  1.0000
  H   H183      1.0  0.12343  0.38748  0.41895  1.0000
  H   H184      1.0  0.13600  0.48193  0.99770  1.0000
  C   C228      1.0  0.14069  0.20106  0.35511  1.0000
  H   H185      1.0  0.11407  0.48721  0.02730  1.0000
  C   C229      1.0  0.00995  0.11996  0.37338  1.0000
  C   C230      1.0  0.01265  0.09040  0.32214  1.0000
  C   C231      1.0  0.02099  0.07949  0.31182  1.0000
  C   C232      1.0  0.01475  0.07178  0.29519  1.0000
  C   C233      1.0  0.13290  0.20456  0.31797  1.0000
  H   H186      1.0  0.99859  0.42176  0.37042  1.0000
  C   C234      1.0  0.99861  0.09444  0.31441  1.0000
  H   H187      1.0  0.01997  0.04104  0.38495  1.0000
  H   H188      1.0  0.04083  0.05164  0.40718  1.0000
  H   H189      1.0  0.05371  0.08329  0.40089  1.0000
  H   H190      1.0  0.04541  0.10410  0.37290  1.0000
  H   H191      1.0  0.01122  0.06172  0.35754  1.0000
  H   H192      1.0  0.02419  0.13701  0.32755  1.0000
  H   H193      1.0  0.04884  0.16125  0.30592  1.0000
  H   H194      1.0  0.07708  0.15580  0.29267  1.0000
  H   H195      1.0  0.08040  0.12591  0.30089  1.0000
  H   H196      1.0  0.05632  0.10171  0.32379  1.0000
  C   C235      1.0  0.17196  0.00693  0.42633  1.0000
  C   C236      1.0  0.03921  0.34385  0.45635  1.0000
  C   C237      1.0  0.05381  0.35646  0.40074  1.0000
  Fe  Fe16      1.0  0.04784  0.49145  0.98582  1.0000
  H   H197      1.0  0.02331  0.12653  0.37074  1.0000
  H   H198      1.0  0.03228  0.07683  0.31677  1.0000
  C   C238      1.0  0.13488  0.43043  0.98139  1.0000
  H   H199      1.0  0.13664  0.41785  0.41643  1.0000
  Fe  Fe17      1.0  0.07642  0.48821  0.33156  1.0000
  C   C239      1.0  0.01518  0.43351  0.24649  1.0000
  C   C240      1.0  0.07261  0.39027  0.37822  1.0000
  C   C241      1.0  0.06493  0.37924  0.36570  1.0000
  C   C242      1.0  0.05559  0.36232  0.37694  1.0000
  C   C243      1.0  0.03439  0.45110  0.44668  1.0000
  H   H200      1.0  0.03917  0.07948  0.21515  1.0000
  H   H201      1.0  0.03619  0.04890  0.21255  1.0000
  H   H202      1.0  0.13620  0.09401  0.03982  1.0000
  C   C244      1.0  0.17276  0.22493  0.35772  1.0000
  H   H203      1.0  0.01873  0.07935  0.44039  1.0000
  C   C245      1.0  0.15017  0.20293  0.42018  1.0000
  C   C246      1.0  0.98724  0.03763  0.14666  1.0000
  C   C247      1.0  0.13476  0.11432  0.05797  1.0000
  C   C248      1.0  0.11696  0.19295  0.32827  1.0000
  H   H204      1.0  0.17554  0.29158  0.97106  1.0000
  C   C249      1.0  0.12454  0.18961  0.36538  1.0000
  C   C250      1.0  0.15740  0.17097  0.37440  1.0000
  H   H205      1.0  0.15458  0.42590  0.34250  1.0000
  H   H206      1.0  0.08083  0.04431  0.00161  1.0000
  H   H207      1.0  0.08476  0.99735  0.08289  1.0000
  C   C251      1.0  0.08881  0.09827  0.13349  1.0000
  C   C252      1.0  0.16177  0.13421  0.05629  1.0000
  C   C253      1.0  0.17589  0.47351  0.25949  1.0000
  C   C254      1.0  0.17815  0.44341  0.03168  1.0000
  H   H208      1.0  0.99927  0.38786  0.99732  1.0000
  C   C255      1.0  0.99459  0.05027  0.10553  1.0000
  C   C256      1.0  0.10945  0.00851  0.34272  1.0000
  H   H209      1.0  0.18236  0.26885  0.35103  1.0000
  S   S31       1.0  0.08328  0.48540  0.36627  1.0000
  H   H210      1.0  0.98775  0.42396  0.25746  1.0000
  C   C257      1.0  0.02924  0.44771  0.24293  1.0000
  H   H211      1.0  0.99364  0.44727  0.44089  1.0000
  C   C258      1.0  0.14756  0.48083  0.32464  1.0000
  C   C259      1.0  0.03830  0.46804  0.44958  1.0000
  H   H212      1.0  0.99106  0.05212  0.08899  1.0000
  H   H213      1.0  0.16919  0.14563  0.06004  1.0000
  C   C260      1.0  0.17957  0.40271  0.41050  1.0000
  H   H214      1.0  0.18017  0.35818  0.03776  1.0000
  H   H215      1.0  0.01536  0.43067  0.44078  1.0000
  H   H216      1.0  0.17129  0.43629  0.41607  1.0000
  H   H217      1.0  0.15839  0.14457  0.37579  1.0000
  C   C261      1.0  0.16464  0.15701  0.37849  1.0000
  C   C262      1.0  0.00865  0.39489  0.98154  1.0000
  H   H218      1.0  0.11311  0.22534  0.42143  1.0000
  Fe  Fe18      1.0  0.05878  0.49217  0.37856  1.0000
  C   C263      1.0  0.10611  0.35001  0.43792  1.0000
  C   C264      1.0  0.16948  0.17966  0.09053  1.0000
  C   C265      1.0  0.02605  0.47751  0.44969  1.0000
  C   C266      1.0  0.05668  0.02264  0.97192  1.0000
  C   C267      1.0  0.05078  0.40494  0.46044  1.0000
  C   C268      1.0  0.03195  0.02071  0.45517  1.0000
  H   H219      1.0  0.98795  0.45829  0.02728  1.0000
  S   S32       1.0  0.99193  0.01265  0.31775  1.0000
  C   C269      1.0  0.00382  0.49035  0.39849  1.0000
  H   H220      1.0  0.15828  0.15524  0.14565  1.0000
  C   C270      1.0  0.18095  0.18927  0.38452  1.0000
  H   H221      1.0  0.12322  0.48370  0.31876  1.0000
  H   H222      1.0  0.17354  0.40562  0.39635  1.0000
  C   C271      1.0  0.17839  0.44647  0.98478  1.0000
  S   S33       1.0  0.07445  0.49276  0.99076  1.0000
  Fe  Fe19      1.0  0.98850  0.11416  0.46718  1.0000
  C   C272      1.0  0.10443  0.33895  0.45930  1.0000
  H   H223      1.0  0.02965  0.49070  0.45148  1.0000
  Fe  Fe20      1.0  0.98375  0.24552  0.54131  1.0000
  C   C273      1.0  0.04491  0.00015  0.79684  1.0000
  C   C274      1.0  0.02016  0.03927  0.66018  1.0000
  H   H224      1.0  0.06152  0.35220  0.89415  1.0000
  H   H225      1.0  0.99461  0.99738  0.49313  1.0000
  H   H226      1.0  0.99140  0.28429  0.62242  1.0000
  H   H227      1.0  0.09254  0.19666  0.81046  1.0000
  C   C275      1.0  0.06904  0.38119  0.47407  1.0000
  Fe  Fe21      1.0  0.11198  0.00795  0.88590  1.0000
  S   S34       1.0  0.11048  0.02467  0.91230  1.0000
  S   S35       1.0  0.12658  0.01040  0.84947  1.0000
  C   C276      1.0  0.03636  0.37227  0.92493  1.0000
  H   H228      1.0  0.02698  0.06432  0.63687  1.0000
  C   C277      1.0  0.01295  0.35094  0.56802  1.0000
  S   S36       1.0  0.14329  0.10123  0.92095  1.0000
  H   H229      1.0  0.06095  0.41874  0.48430  1.0000
  S   S37       1.0  0.13231  0.13857  0.95110  1.0000
  Fe  Fe22      1.0  0.14088  0.39630  0.49578  1.0000
  S   S38       1.0  0.13808  0.42104  0.50582  1.0000
  Fe  Fe23      1.0  0.10368  0.37639  0.52021  1.0000
  S   S39       1.0  0.09841  0.39963  0.53254  1.0000
  S   S40       1.0  0.08638  0.34855  0.52935  1.0000
  Fe  Fe24      1.0  0.11259  0.41463  0.49653  1.0000
  Fe  Fe25      1.0  0.12440  0.40455  0.54096  1.0000
  S   S41       1.0  0.12777  0.41202  0.57507  1.0000
  S   S42       1.0  0.11645  0.39115  0.48342  1.0000
  S   S43       1.0  0.12857  0.37997  0.53171  1.0000
  Fe  Fe26      1.0  0.12953  0.38515  0.87796  1.0000
  S   S44       1.0  0.13432  0.41312  0.86006  1.0000
  S   S45       1.0  0.14428  0.37563  0.90456  1.0000
  Fe  Fe27      1.0  0.10208  0.37269  0.85005  1.0000
  S   S46       1.0  0.10587  0.40009  0.83054  1.0000
  S   S47       1.0  0.07941  0.35090  0.84770  1.0000
  Fe  Fe28      1.0  0.13396  0.40329  0.82755  1.0000
  S   S48       1.0  0.15596  0.41488  0.79576  1.0000
  Fe  Fe29      1.0  0.10577  0.40741  0.86479  1.0000
  S   S49       1.0  0.08848  0.42453  0.87461  1.0000
  S   S50       1.0  0.13045  0.37531  0.84513  1.0000
  S   S51       1.0  0.10075  0.37998  0.88473  1.0000
  C   C278      1.0  0.07067  0.13183  0.94659  1.0000
  C   C279      1.0  0.08433  0.00847  0.50105  1.0000
  H   H230      1.0  0.05117  0.41412  0.88498  1.0000
  H   H231      1.0  0.07156  0.42220  0.82893  1.0000
  Fe  Fe30      1.0  0.99289  0.28418  0.54337  1.0000
  S   S52       1.0  0.00863  0.31257  0.53080  1.0000
  S   S53       1.0  0.00031  0.26090  0.56071  1.0000
  Fe  Fe31      1.0  0.00484  0.25373  0.77780  1.0000
  S   S54       1.0  0.00633  0.27159  0.80224  1.0000
  S   S55       1.0  0.00667  0.22576  0.78294  1.0000
  Fe  Fe32      1.0  0.00384  0.28162  0.73691  1.0000
  S   S56       1.0  0.00548  0.30194  0.75819  1.0000
  S   S57       1.0  0.00297  0.28939  0.69852  1.0000
  Fe  Fe33      1.0  0.02542  0.29157  0.77296  1.0000
  S   S58       1.0  0.05093  0.30944  0.77519  1.0000
  S   S59       1.0  0.02544  0.27293  0.74923  1.0000
  H   H232      1.0  0.99792  0.33854  0.48431  1.0000
  C   C280      1.0  0.06952  0.99966  0.81406  1.0000
  H   H233      1.0  0.06660  0.45438  0.93260  1.0000
  H   H234      1.0  0.10798  0.01486  0.51176  1.0000
  H   H235      1.0  0.13507  0.45443  0.67780  1.0000
  H   H236      1.0  0.01103  0.31531  0.60866  1.0000
  C   C281      1.0  0.99104  0.37029  0.90343  1.0000
  C   C282      1.0  0.15816  0.99555  0.90509  1.0000
  H   H237      1.0  0.13892  0.35526  0.77564  1.0000
  C   C283      1.0  0.01602  0.05232  0.91592  1.0000
  H   H238      1.0  0.06185  0.00576  0.48760  1.0000
  C   C284      1.0  0.00762  0.00544  0.48684  1.0000
  C   C285      1.0  0.00835  0.31814  0.47469  1.0000
  C   C286      1.0  0.08878  0.43272  0.89977  1.0000
  C   C287      1.0  0.07605  0.44067  0.90761  1.0000
  C   C288      1.0  0.07644  0.44822  0.92680  1.0000
  C   C289      1.0  0.99936  0.20817  0.80762  1.0000
  C   C290      1.0  0.10281  0.44062  0.92971  1.0000
  C   C291      1.0  0.10208  0.43254  0.91109  1.0000
  H   H239      1.0  0.06598  0.44120  0.89862  1.0000
  C   C292      1.0  0.04371  0.49128  0.91808  1.0000
  H   H240      1.0  0.11347  0.44082  0.93772  1.0000
  H   H241      1.0  0.11207  0.42661  0.90510  1.0000
  C   C293      1.0  0.15624  0.43035  0.77076  1.0000
  H   H242      1.0  0.15544  0.41272  0.90348  1.0000
  C   C294      1.0  0.07053  0.12556  0.90882  1.0000
  C   C295      1.0  0.15799  0.45538  0.73044  1.0000
  C   C296      1.0  0.14344  0.45012  0.74887  1.0000
  C   C297      1.0  0.14255  0.43767  0.76896  1.0000
  C   C298      1.0  0.12281  0.47572  0.83650  1.0000
  H   H243      1.0  0.13285  0.45580  0.74761  1.0000
  H   H244      1.0  0.13138  0.43386  0.78311  1.0000
  C   C299      1.0  0.07173  0.33984  0.82694  1.0000
  C   C300      1.0  0.05456  0.33004  0.83226  1.0000
  C   C301      1.0  0.04796  0.32071  0.81678  1.0000
  C   C302      1.0  0.05848  0.32083  0.79573  1.0000
  C   C303      1.0  0.07569  0.33049  0.79052  1.0000
  C   C304      1.0  0.08222  0.34001  0.80586  1.0000
  H   H245      1.0  0.04626  0.32966  0.84852  1.0000
  H   H246      1.0  0.03471  0.31348  0.82109  1.0000
  H   H247      1.0  0.08402  0.33074  0.77435  1.0000
  H   H248      1.0  0.09544  0.34732  0.80151  1.0000
  H   H249      1.0  0.05099  0.36696  0.86242  1.0000
  C   C305      1.0  0.14535  0.42709  0.57988  1.0000
  C   C306      1.0  0.16043  0.43469  0.56282  1.0000
  C   C307      1.0  0.17368  0.99647  0.89046  1.0000
  Fe  Fe34      1.0  0.98635  0.28117  0.78643  1.0000
  C   C308      1.0  0.15818  0.44248  0.60654  1.0000
  C   C309      1.0  0.14431  0.43116  0.60172  1.0000
  H   H250      1.0  0.16145  0.43176  0.54595  1.0000
  H   H251      1.0  0.15719  0.44530  0.62349  1.0000
  H   H252      1.0  0.13273  0.42539  0.61507  1.0000
  C   C310      1.0  0.06459  0.33895  0.53008  1.0000
  C   C311      1.0  0.05323  0.34876  0.52485  1.0000
  C   C312      1.0  0.03632  0.34047  0.52468  1.0000
  C   C313      1.0  0.03030  0.32227  0.53058  1.0000
  C   C314      1.0  0.04163  0.31246  0.53595  1.0000
  C   C315      1.0  0.05866  0.32075  0.53555  1.0000
  H   H253      1.0  0.05745  0.36272  0.52099  1.0000
  H   H254      1.0  0.02776  0.34822  0.52028  1.0000
  H   H255      1.0  0.03729  0.29848  0.54032  1.0000
  H   H256      1.0  0.06731  0.31299  0.53959  1.0000
  C   C316      1.0  0.05345  0.12616  0.91111  1.0000
  H   H257      1.0  0.18317  0.42094  0.82478  1.0000
  C   C317      1.0  0.15995  0.38812  0.91617  1.0000
  C   C318      1.0  0.16292  0.40609  0.91303  1.0000
  H   H258      1.0  0.01141  0.18000  0.56579  1.0000
  H   H259      1.0  0.99546  0.32558  0.58015  1.0000
  C   C319      1.0  0.98753  0.25949  0.68544  1.0000
  C   C320      1.0  0.12005  0.04615  0.91345  1.0000
  C   C321      1.0  0.11363  0.05200  0.93283  1.0000
  C   C322      1.0  0.12041  0.06894  0.93485  1.0000
  C   C323      1.0  0.13396  0.08019  0.91776  1.0000
  C   C324      1.0  0.14028  0.07447  0.89809  1.0000
  C   C325      1.0  0.13343  0.05748  0.89595  1.0000
  H   H260      1.0  0.10319  0.04340  0.94633  1.0000
  C   C326      1.0  0.01684  0.05447  0.64935  1.0000
  H   H261      1.0  0.15047  0.08322  0.88447  1.0000
  H   H262      1.0  0.13843  0.05323  0.88080  1.0000
  C   C327      1.0  0.04479  0.12911  0.93157  1.0000
  C   C328      1.0  0.05352  0.13237  0.94900  1.0000
  H   H263      1.0  0.03157  0.12939  0.93368  1.0000
  H   H264      1.0  0.00570  0.21456  0.93651  1.0000
  H   H265      1.0  0.01091  0.44610  0.85823  1.0000
  C   C329      1.0  0.11544  0.46970  0.86013  1.0000
  C   C330      1.0  0.99026  0.27729  0.63989  1.0000
  C   C331      1.0  0.99429  0.05327  0.94823  1.0000
  C   C332      1.0  0.98936  0.20921  0.82842  1.0000
  C   C333      1.0  0.99498  0.38468  0.91320  1.0000
  C   C334      1.0  0.14290  0.48436  0.93255  1.0000
  H   H266      1.0  0.04699  0.13536  0.96438  1.0000
  H   H267      1.0  0.09780  0.02984  0.83640  1.0000
  C   C335      1.0  0.08993  0.44834  0.93786  1.0000
  H   H268      1.0  0.04212  0.42073  0.92550  1.0000
  C   C336      1.0  0.98762  0.17889  0.84545  1.0000
  H   H269      1.0  0.99999  0.10769  0.65183  1.0000
  H   H270      1.0  0.01439  0.14788  0.58968  1.0000
  C   C337      1.0  0.04138  0.02613  0.47091  1.0000
  H   H271      1.0  0.08176  0.99472  0.50835  1.0000
  C   C338      1.0  0.05493  0.35750  0.74825  1.0000
  H   H272      1.0  0.18121  0.07404  0.92929  1.0000
  C   C339      1.0  0.17526  0.41541  0.92278  1.0000
  C   C340      1.0  0.10254  0.03749  0.49305  1.0000
  H   H273      1.0  0.10052  0.24361  0.86611  1.0000
  C   C341      1.0  0.08681  0.06808  0.86111  1.0000
  C   C342      1.0  0.10029  0.06139  0.86651  1.0000
  P   P12       1.0  0.08242  0.08614  0.87262  1.0000
  C   C343      1.0  0.10294  0.10089  0.86981  1.0000
  C   C344      1.0  0.07004  0.09724  0.85623  1.0000
  C   C345      1.0  0.07691  0.11449  0.84354  1.0000
  C   C346      1.0  0.06730  0.12286  0.83074  1.0000
  C   C347      1.0  0.05075  0.11415  0.83059  1.0000
  C   C348      1.0  0.04376  0.09716  0.84342  1.0000
  C   C349      1.0  0.05326  0.08875  0.85632  1.0000
  C   C350      1.0  0.11558  0.10476  0.84924  1.0000
  C   C351      1.0  0.07195  0.07892  0.90308  1.0000
  C   C352      1.0  0.05755  0.08426  0.91209  1.0000
  C   C353      1.0  0.05158  0.08157  0.93601  1.0000
  C   C354      1.0  0.05990  0.07348  0.95116  1.0000
  C   C355      1.0  0.07389  0.06761  0.94242  1.0000
  C   C356      1.0  0.07978  0.07016  0.91852  1.0000
  H   H274      1.0  0.09003  0.21193  0.87645  1.0000
  H   H275      1.0  0.10799  0.06697  0.87731  1.0000
  H   H276      1.0  0.04312  0.12058  0.82097  1.0000
  H   H277      1.0  0.03081  0.09069  0.84362  1.0000
  H   H278      1.0  0.04750  0.07567  0.86645  1.0000
  H   H279      1.0  0.11310  0.09893  0.83503  1.0000
  H   H280      1.0  0.14134  0.11875  0.83128  1.0000
  H   H281      1.0  0.05140  0.09140  0.90084  1.0000
  H   H282      1.0  0.04095  0.08647  0.94277  1.0000
  H   H283      1.0  0.03512  0.17525  0.49875  1.0000
  C   C357      1.0  0.00967  0.07108  0.53164  1.0000
  H   H284      1.0  0.09103  0.06615  0.91219  1.0000
  Fe  Fe35      1.0  0.98782  0.13537  0.87138  1.0000
  C   C358      1.0  0.98799  0.01595  0.62995  1.0000
  C   C359      1.0  0.17504  0.44251  0.86750  1.0000
  C   C360      1.0  0.00106  0.00427  0.89786  1.0000
  H   H285      1.0  0.15299  0.99368  0.48945  1.0000
  C   C361      1.0  0.07741  0.06082  0.84639  1.0000
  C   C362      1.0  0.01184  0.33577  0.67764  1.0000
  H   H286      1.0  0.01868  0.99441  0.93674  1.0000
  H   H287      1.0  0.15099  0.32939  0.94220  1.0000
  H   H288      1.0  0.06702  0.02035  0.96011  1.0000
  C   C363      1.0  0.99805  0.03391  0.59091  1.0000
  C   C364      1.0  0.12988  0.37766  0.77980  1.0000
  C   C365      1.0  0.00668  0.39120  0.96031  1.0000
  S   S60       1.0  0.08202  0.13792  0.96731  1.0000
  H   H289      1.0  0.06196  0.44064  0.85403  1.0000
  H   H290      1.0  0.04965  0.05896  0.53759  1.0000
  C   C366      1.0  0.13634  0.40449  0.96718  1.0000
  C   C367      1.0  0.99194  0.19607  0.50617  1.0000
  H   H291      1.0  0.02713  0.05905  0.90217  1.0000
  H   H292      1.0  0.11297  0.38991  0.96148  1.0000
  C   C368      1.0  0.06024  0.40740  0.47707  1.0000
  C   C369      1.0  0.02508  0.17030  0.51441  1.0000
  C   C370      1.0  0.02469  0.17911  0.53224  1.0000
  C   C371      1.0  0.01152  0.17292  0.55224  1.0000
  H   H293      1.0  0.07154  0.04342  0.52718  1.0000
  P   P13       1.0  0.09497  0.39686  0.75017  1.0000
  H   H294      1.0  0.11709  0.45768  0.86935  1.0000
  H   H295      1.0  0.98503  0.31042  0.72109  1.0000
  H   H296      1.0  0.99936  0.07340  0.58258  1.0000
  C   C372      1.0  0.09288  0.23713  0.85584  1.0000
  H   H297      1.0  0.18074  0.10228  0.90617  1.0000
  C   C373      1.0  0.00049  0.05702  0.65486  1.0000
  H   H298      1.0  0.98604  0.22117  0.82992  1.0000
  C   C374      1.0  0.12729  0.44329  0.69118  1.0000
  H   H299      1.0  0.01518  0.08147  0.53905  1.0000
  C   C375      1.0  0.15087  0.46778  0.96470  1.0000
  H   H300      1.0  0.09458  0.05741  0.47313  1.0000
  C   C376      1.0  0.15308  0.01066  0.90671  1.0000
  C   C377      1.0  0.99905  0.14912  0.53647  1.0000
  H   H301      1.0  0.03442  0.19095  0.53038  1.0000
  H   H302      1.0  0.99380  0.06734  0.69699  1.0000
  C   C378      1.0  0.01798  0.09094  0.59368  1.0000
  C   C379      1.0  0.03464  0.09512  0.59677  1.0000
  C   C380      1.0  0.04553  0.08469  0.59145  1.0000
  C   C381      1.0  0.03984  0.07017  0.58280  1.0000
  C   C382      1.0  0.02330  0.06623  0.57892  1.0000
  C   C383      1.0  0.01229  0.07648  0.58496  1.0000
  P   P14       1.0  0.01540  0.04762  0.56785  1.0000
  C   C384      1.0  0.00834  0.05368  0.54168  1.0000
  C   C385      1.0  0.03130  0.03618  0.56020  1.0000
  C   C386      1.0  0.02777  0.01813  0.56815  1.0000
  C   C387      1.0  0.04011  0.00942  0.56189  1.0000
  H   H303      1.0  0.99593  0.38090  0.96011  1.0000
  C   C388      1.0  0.01339  0.42400  0.88192  1.0000
  C   C389      1.0  0.04699  0.04518  0.54484  1.0000
  H   H304      1.0  0.04533  0.32996  0.70093  1.0000
  H   H305      1.0  0.00145  0.16614  0.82336  1.0000
  H   H306      1.0  0.08881  0.00307  0.96227  1.0000
  C   C390      1.0  0.99618  0.04508  0.51051  1.0000
  C   C391      1.0  0.00159  0.04073  0.53090  1.0000
  C   C392      1.0  0.17075  0.43556  0.75230  1.0000
  H   H307      1.0  0.07817  0.02823  0.89886  1.0000
  H   H308      1.0  0.04009  0.35585  0.72256  1.0000
  C   C393      1.0  0.03162  0.00174  0.92807  1.0000
  C   C394      1.0  0.05957  0.37996  0.71376  1.0000
  H   H309      1.0  0.11520  0.07334  0.94969  1.0000
  H   H310      1.0  0.00946  0.09894  0.59782  1.0000
  H   H311      1.0  0.03912  0.10640  0.60335  1.0000
  H   H312      1.0  0.05839  0.08781  0.59411  1.0000
  H   H313      1.0  0.04835  0.06207  0.57935  1.0000
  H   H314      1.0  0.16738  0.36581  0.93193  1.0000
  H   H315      1.0  0.01549  0.01058  0.57898  1.0000
  H   H316      1.0  0.00142  0.30005  0.65111  1.0000
  C   C395      1.0  0.99847  0.15796  0.55442  1.0000
  C   C396      1.0  0.05595  0.01856  0.54744  1.0000
  C   C397      1.0  0.16927  0.04468  0.83293  1.0000
  C   C398      1.0  0.99481  0.27740  0.67905  1.0000
  H   H317      1.0  0.13356  0.48588  0.92232  1.0000
  C   C399      1.0  0.03459  0.41713  0.96219  1.0000
  H   H318      1.0  0.14729  0.43018  0.69062  1.0000
  H   H319      1.0  0.00016  0.02721  0.53853  1.0000
  H   H320      1.0  0.14371  0.39587  0.96147  1.0000
  H   H321      1.0  0.16122  0.00302  0.72825  1.0000
  C   C400      1.0  0.07302  0.39010  0.72045  1.0000
  C   C401      1.0  0.12095  0.49135  0.82458  1.0000
  C   C402      1.0  0.09910  0.01982  0.50294  1.0000
  H   H322      1.0  0.04543  0.42711  0.96303  1.0000
  C   C403      1.0  0.06515  0.02081  0.90684  1.0000
  S   S61       1.0  0.09193  0.00438  0.81096  1.0000
  S   S62       1.0  0.99959  0.00985  0.76267  1.0000
  C   C404      1.0  0.04948  0.06586  0.47553  1.0000
  H   H323      1.0  0.16127  0.46648  0.90397  1.0000
  H   H324      1.0  0.04677  0.03480  0.94447  1.0000
  C   C405      1.0  0.07656  0.03238  0.47873  1.0000
  H   H325      1.0  0.00616  0.35528  0.55531  1.0000
  C   C406      1.0  0.18212  0.38905  0.93862  1.0000
  C   C407      1.0  0.99693  0.06232  0.50115  1.0000
  H   H326      1.0  0.03136  0.38540  0.87022  1.0000
  H   H327      1.0  0.04081  0.02473  0.50715  1.0000
  H   H328      1.0  0.07638  0.37234  0.47956  1.0000
  S   S63       1.0  0.99325  0.22534  0.52377  1.0000
  C   C408      1.0  0.06936  0.39554  0.48385  1.0000
  C   C409      1.0  0.02154  0.33395  0.69421  1.0000
  C   C410      1.0  0.06204  0.00566  0.92387  1.0000
  H   H329      1.0  0.06734  0.38159  0.79258  1.0000
  H   H330      1.0  0.13360  0.00312  0.75239  1.0000
  H   H331      1.0  0.98976  0.43652  0.95120  1.0000
  S   S64       1.0  0.00327  0.09344  0.88009  1.0000
  C   C411      1.0  0.04748  0.36191  0.92031  1.0000
  C   C412      1.0  0.16958  0.37968  0.92920  1.0000
  H   H332      1.0  0.99985  0.41970  0.88961  1.0000
  C   C413      1.0  0.08925  0.42804  0.79586  1.0000
  H   H333      1.0  0.09210  0.12741  0.92479  1.0000
  S   S65       1.0  0.99255  0.12298  0.90549  1.0000
  H   H334      1.0  0.98915  0.13767  0.53748  1.0000
  C   C414      1.0  0.17164  0.44798  0.73222  1.0000
  C   C415      1.0  0.14208  0.99653  0.75995  1.0000
  C   C416      1.0  0.07503  0.33991  0.47067  1.0000
  H   H335      1.0  0.16562  0.33730  0.90075  1.0000
  C   C417      1.0  0.00971  0.26101  0.86240  1.0000
  H   H336      1.0  0.12679  0.46084  0.95513  1.0000
  P   P15       1.0  0.03071  0.25775  0.86196  1.0000
  C   C418      1.0  0.03772  0.25356  0.83397  1.0000
  C   C419      1.0  0.04488  0.27624  0.86718  1.0000
  C   C420      1.0  0.03896  0.28427  0.88459  1.0000
  C   C421      1.0  0.04971  0.29872  0.88864  1.0000
  C   C422      1.0  0.06651  0.30509  0.87559  1.0000
  C   C423      1.0  0.07264  0.29690  0.85867  1.0000
  C   C424      1.0  0.06196  0.28237  0.85468  1.0000
  C   C425      1.0  0.04533  0.26730  0.81452  1.0000
  C   C426      1.0  0.04995  0.26395  0.79267  1.0000
  C   C427      1.0  0.04663  0.24693  0.78999  1.0000
  C   C428      1.0  0.03881  0.23321  0.80920  1.0000
  C   C429      1.0  0.03413  0.23651  0.83105  1.0000
  C   C430      1.0  0.03020  0.23966  0.88462  1.0000
  H   H337      1.0  0.17760  0.40552  0.52448  1.0000
  H   H338      1.0  0.08041  0.06143  0.95420  1.0000
  C   C431      1.0  0.02978  0.21144  0.91950  1.0000
  C   C432      1.0  0.04360  0.21779  0.90035  1.0000
  C   C433      1.0  0.04382  0.23184  0.88296  1.0000
  H   H339      1.0  0.99823  0.06903  0.64663  1.0000
  H   H340      1.0  0.02425  0.46745  0.92423  1.0000
  C   C434      1.0  0.13048  0.36308  0.77084  1.0000
  H   H341      1.0  0.01248  0.14853  0.50262  1.0000
  C   C435      1.0  0.00716  0.02664  0.67655  1.0000
  C   C436      1.0  0.00910  0.33532  0.47565  1.0000
  C   C437      1.0  0.16385  0.44969  0.88059  1.0000
  H   H342      1.0  0.17267  0.05880  0.77527  1.0000
  C   C438      1.0  0.12443  0.41537  0.71608  1.0000
  H   H343      1.0  0.06706  0.27611  0.84173  1.0000
  H   H344      1.0  0.04722  0.28062  0.81603  1.0000
  H   H345      1.0  0.05553  0.27463  0.77765  1.0000
  H   H346      1.0  0.04944  0.24437  0.77289  1.0000
  H   H347      1.0  0.03556  0.22008  0.80689  1.0000
  H   H348      1.0  0.02715  0.22580  0.84544  1.0000
  C   C439      1.0  0.98558  0.00689  0.89351  1.0000
  H   H349      1.0  0.01821  0.28907  0.85368  1.0000
  H   H350      1.0  0.02947  0.20035  0.93276  1.0000
  H   H351      1.0  0.05456  0.23656  0.86816  1.0000
  P   P16       1.0  0.01690  0.39519  0.91239  1.0000
  C   C440      1.0  0.12028  0.35869  0.75561  1.0000
  H   H352      1.0  0.99081  0.03497  0.50245  1.0000
  C   C441      1.0  0.01697  0.01063  0.50258  1.0000
  S   S66       1.0  0.09174  0.45885  0.96087  1.0000
  C   C442      1.0  0.02463  0.41471  0.88951  1.0000
  C   C443      1.0  0.99075  0.02905  0.68203  1.0000
  H   H353      1.0  0.15031  0.44600  0.88108  1.0000
  C   C444      1.0  0.01962  0.43904  0.86413  1.0000
  H   H354      1.0  0.99061  0.00972  0.64584  1.0000
  H   H355      1.0  0.00624  0.23975  0.90642  1.0000
  C   C445      1.0  0.00687  0.33422  0.58209  1.0000
  C   C446      1.0  0.01859  0.40062  0.93976  1.0000
  H   H356      1.0  0.99740  0.23373  0.86759  1.0000
  C   C447      1.0  0.99646  0.11549  0.63784  1.0000
  C   C448      1.0  0.17333  0.32558  0.95406  1.0000
  H   H357      1.0  0.17056  0.36722  0.85831  1.0000
  C   C449      1.0  0.05936  0.03643  0.53877  1.0000
  C   C450      1.0  0.03375  0.02092  0.49469  1.0000
  H   H358      1.0  0.08951  0.12169  0.84375  1.0000
  H   H359      1.0  0.05223  0.35550  0.93415  1.0000
  H   H360      1.0  0.04500  0.30515  0.90170  1.0000
  C   C451      1.0  0.08150  0.18678  0.81003  1.0000
  C   C452      1.0  0.99139  0.28028  0.85610  1.0000
  C   C453      1.0  0.99577  0.24676  0.86507  1.0000
  C   C454      1.0  0.06313  0.47767  0.88665  1.0000
  S   S67       1.0  0.10270  0.43661  0.48001  1.0000
  C   C455      1.0  0.03694  0.47492  0.91458  1.0000
  C   C456      1.0  0.16634  0.48059  0.96002  1.0000
  S   S68       1.0  0.08683  0.99685  0.87825  1.0000
  C   C457      1.0  0.17441  0.44574  0.56780  1.0000
  Fe  Fe36      1.0  0.10132  0.99673  0.84340  1.0000
  C   C458      1.0  0.13493  0.12365  0.86521  1.0000
  C   C459      1.0  0.10764  0.41487  0.72678  1.0000
  C   C460      1.0  0.07744  0.38407  0.74128  1.0000
  C   C461      1.0  0.06766  0.40098  0.81208  1.0000
  H   H361      1.0  0.00095  0.36500  0.89554  1.0000
  C   C462      1.0  0.17435  0.00289  0.82437  1.0000
  C   C463      1.0  0.08063  0.18132  0.78951  1.0000
  C   C464      1.0  0.06273  0.00391  0.79470  1.0000
  H   H362      1.0  0.15982  0.03702  0.84828  1.0000
  H   H363      1.0  0.10544  0.45371  0.69627  1.0000
  H   H364      1.0  0.03812  0.05586  0.48490  1.0000
  C   C465      1.0  0.07893  0.12781  0.92677  1.0000
  C   C466      1.0  0.10648  0.10862  0.88797  1.0000
  C   C467      1.0  0.08706  0.40510  0.77480  1.0000
  H   H365      1.0  0.10602  0.42987  0.76352  1.0000
  H   H366      1.0  0.10035  0.47429  0.89018  1.0000
  C   C468      1.0  0.06837  0.36758  0.75496  1.0000
  H   H367      1.0  0.03260  0.37361  0.94249  1.0000
  H   H368      1.0  0.09715  0.10569  0.90417  1.0000
  H   H369      1.0  0.09090  0.18700  0.77423  1.0000
  C   C469      1.0  0.04678  0.36842  0.87986  1.0000
  C   C470      1.0  0.13911  0.47000  0.95106  1.0000
  H   H370      1.0  0.99663  0.30810  0.48263  1.0000
  H   H371      1.0  0.14739  0.13208  0.86381  1.0000
  H   H372      1.0  0.03733  0.99549  0.56819  1.0000
  H   H373      1.0  0.07181  0.36236  0.77069  1.0000
  H   H374      1.0  0.08785  0.49173  0.92479  1.0000
  H   H375      1.0  0.05626  0.38467  0.69767  1.0000
  C   C471      1.0  0.05415  0.16650  0.82896  1.0000
  C   C472      1.0  0.01662  0.23359  0.90430  1.0000
  H   H376      1.0  0.02236  0.12975  0.62109  1.0000
  H   H377      1.0  0.13006  0.46829  0.82749  1.0000
  P   P17       1.0  0.01733  0.02256  0.89940  1.0000
  C   C473      1.0  0.00876  0.03453  0.91897  1.0000
  C   C474      1.0  0.03472  0.01628  0.90976  1.0000
  C   C475      1.0  0.05156  0.02610  0.89973  1.0000
  H   H378      1.0  0.09388  0.26083  0.83219  1.0000
  H   H379      1.0  0.04392  0.16037  0.84416  1.0000
  C   C476      1.0  0.00140  0.02635  0.61183  1.0000
  C   C477      1.0  0.03798  0.33184  0.68794  1.0000
  C   C478      1.0  0.99486  0.02603  0.93768  1.0000
  H   H380      1.0  0.03977  0.00340  0.78187  1.0000
  H   H381      1.0  0.11414  0.04628  0.49418  1.0000
  H   H382      1.0  0.98826  0.06062  0.95896  1.0000
  C   C479      1.0  0.99590  0.28622  0.65625  1.0000
  C   C480      1.0  0.02429  0.03447  0.86966  1.0000
  C   C481      1.0  0.01764  0.04832  0.86174  1.0000
  C   C482      1.0  0.02126  0.05591  0.83813  1.0000
  C   C483      1.0  0.03134  0.04964  0.82220  1.0000
  C   C484      1.0  0.03782  0.03571  0.82992  1.0000
  C   C485      1.0  0.03431  0.02813  0.85355  1.0000
  H   H383      1.0  0.07423  0.04144  0.82619  1.0000
  H   H384      1.0  0.15907  0.03816  0.89479  1.0000
  C   C486      1.0  0.09474  0.04047  0.84326  1.0000
  C   C487      1.0  0.04835  0.43593  0.86155  1.0000
  C   C488      1.0  0.07307  0.01475  0.48918  1.0000
  H   H385      1.0  0.05423  0.03776  0.88633  1.0000
  C   C489      1.0  0.11899  0.40107  0.96730  1.0000
  C   C490      1.0  0.11898  0.38780  0.77373  1.0000
  H   H386      1.0  0.00417  0.08865  0.50438  1.0000
  H   H387      1.0  0.03282  0.03725  0.65608  1.0000
  Fe  Fe37      1.0  0.18059  0.48128  0.67371  1.0000
  C   C491      1.0  0.08915  0.24684  0.83676  1.0000
  H   H388      1.0  0.12079  0.34743  0.74857  1.0000
  H   H389      1.0  0.07997  0.40248  0.70912  1.0000
  C   C492      1.0  0.07557  0.41764  0.81359  1.0000
  H   H390      1.0  0.00920  0.05294  0.87358  1.0000
  H   H391      1.0  0.01585  0.06640  0.83214  1.0000
  H   H392      1.0  0.03376  0.05528  0.80385  1.0000
  H   H393      1.0  0.04512  0.03040  0.81754  1.0000
  H   H394      1.0  0.03888  0.01690  0.85914  1.0000
  C   C493      1.0  0.08745  0.36925  0.60808  1.0000
  C   C494      1.0  0.09879  0.36448  0.59187  1.0000
  C   C495      1.0  0.09344  0.34933  0.58442  1.0000
  C   C496      1.0  0.07674  0.33891  0.59315  1.0000
  C   C497      1.0  0.06532  0.34344  0.60974  1.0000
  C   C498      1.0  0.07075  0.35883  0.61693  1.0000
  P   P18       1.0  0.04325  0.33103  0.61948  1.0000
  C   C499      1.0  0.03493  0.33296  0.64844  1.0000
  C   C500      1.0  0.03120  0.33913  0.59977  1.0000
  C   C501      1.0  0.01586  0.32837  0.59805  1.0000
  C   C502      1.0  0.10847  0.38331  0.75877  1.0000
  H   H395      1.0  0.11453  0.04249  0.86213  1.0000
  C   C503      1.0  0.02811  0.36179  0.56975  1.0000
  C   C504      1.0  0.03726  0.35591  0.58550  1.0000
  C   C505      1.0  0.04470  0.33142  0.66512  1.0000
  C   C506      1.0  0.01233  0.15525  0.51660  1.0000
  H   H396      1.0  0.07039  0.47219  0.87451  1.0000
  H   H397      1.0  0.02597  0.27948  0.89487  1.0000
  C   C507      1.0  0.01847  0.33524  0.65484  1.0000
  C   C508      1.0  0.04118  0.30837  0.61960  1.0000
  C   C509      1.0  0.04154  0.30297  0.59877  1.0000
  C   C510      1.0  0.03816  0.28536  0.59873  1.0000
  C   C511      1.0  0.03445  0.27298  0.61951  1.0000
  C   C512      1.0  0.03436  0.27822  0.64030  1.0000
  C   C513      1.0  0.03771  0.29582  0.64040  1.0000
  H   H398      1.0  0.09160  0.38124  0.61334  1.0000
  H   H399      1.0  0.11164  0.37273  0.58476  1.0000
  H   H400      1.0  0.10209  0.34593  0.57127  1.0000
  H   H401      1.0  0.07278  0.32761  0.58642  1.0000
  H   H402      1.0  0.06202  0.36301  0.62899  1.0000
  C   C514      1.0  0.08686  0.21907  0.86168  1.0000
  H   H403      1.0  0.06561  0.16454  0.77267  1.0000
  C   C515      1.0  0.05271  0.36003  0.89780  1.0000
  H   H404      1.0  0.03305  0.37460  0.55843  1.0000
  H   H405      1.0  0.04918  0.36439  0.58611  1.0000
  H   H406      1.0  0.05730  0.32933  0.66064  1.0000
  H   H407      1.0  0.01375  0.07559  0.92725  1.0000
  C   C516      1.0  0.01635  0.21940  0.92154  1.0000
  C   C517      1.0  0.00862  0.06170  0.93028  1.0000
  H   H408      1.0  0.01056  0.33617  0.64247  1.0000
  H   H409      1.0  0.04389  0.31238  0.58262  1.0000
  H   H410      1.0  0.03801  0.28133  0.58261  1.0000
  H   H411      1.0  0.03133  0.25931  0.61958  1.0000
  H   H412      1.0  0.03102  0.26861  0.65652  1.0000
  H   H413      1.0  0.03680  0.29935  0.65690  1.0000
  H   H414      1.0  0.08800  0.42872  0.72764  1.0000
  H   H415      1.0  0.99895  0.33700  0.68264  1.0000
  H   H416      1.0  0.01437  0.02825  0.61401  1.0000
  S   S69       1.0  0.16731  0.39355  0.48100  1.0000
  H   H417      1.0  0.16994  0.43347  0.85783  1.0000
  H   H418      1.0  0.01128  0.00632  0.52098  1.0000
  C   C518      1.0  0.98720  0.13611  0.60210  1.0000
  C   C519      1.0  0.10421  0.04765  0.85767  1.0000
  H   H419      1.0  0.00982  0.01492  0.68506  1.0000
  H   H420      1.0  0.07253  0.13621  0.82134  1.0000
  H   H421      1.0  0.14084  0.00993  0.91768  1.0000
  C   C520      1.0  0.99806  0.17808  0.82490  1.0000
  C   C521      1.0  0.16448  0.04721  0.81177  1.0000
  S   S70       1.0  0.01254  0.13348  0.85078  1.0000
  H   H422      1.0  0.06317  0.33608  0.48372  1.0000
  H   H423      1.0  0.08767  0.32562  0.49242  1.0000
  H   H424      1.0  0.13799  0.38124  0.79130  1.0000
  Fe  Fe38      1.0  0.13181  0.11046  0.95236  1.0000
  H   H425      1.0  0.99200  0.06564  0.48597  1.0000
  C   C522      1.0  0.16432  0.32947  0.93716  1.0000
  H   H426      1.0  0.04188  0.45663  0.84017  1.0000
  C   C523      1.0  0.00748  0.27782  0.85737  1.0000
  H   H427      1.0  0.11902  0.39927  0.78046  1.0000
  H   H428      1.0  0.98653  0.47691  0.85649  1.0000
  C   C524      1.0  0.99519  0.08181  0.80599  1.0000
  C   C525      1.0  0.09504  0.42178  0.77663  1.0000
  C   C526      1.0  0.10083  0.42877  0.71944  1.0000
  H   H429      1.0  0.04215  0.15143  0.80769  1.0000
  C   C527      1.0  0.06809  0.17962  0.82979  1.0000
  C   C528      1.0  0.17927  0.02780  0.87911  1.0000
  P   P19       1.0  0.06887  0.18714  0.85603  1.0000
  C   C529      1.0  0.04718  0.18200  0.87290  1.0000
  C   C530      1.0  0.08229  0.17721  0.87183  1.0000
  C   C531      1.0  0.08173  0.17806  0.89499  1.0000
  C   C532      1.0  0.09265  0.17114  0.90689  1.0000
  C   C533      1.0  0.10421  0.16330  0.89583  1.0000
  C   C534      1.0  0.10457  0.16199  0.87301  1.0000
  C   C535      1.0  0.09367  0.16891  0.86103  1.0000
  C   C536      1.0  0.03582  0.19124  0.86566  1.0000
  C   C537      1.0  0.01881  0.18682  0.87791  1.0000
  C   C538      1.0  0.01288  0.17290  0.89718  1.0000
  C   C539      1.0  0.02400  0.16344  0.90426  1.0000
  C   C540      1.0  0.04105  0.16787  0.89210  1.0000
  C   C541      1.0  0.07695  0.21052  0.84849  1.0000
  H   H430      1.0  0.98977  0.29327  0.85160  1.0000
  H   H431      1.0  0.01154  0.19168  0.79009  1.0000
  C   C542      1.0  0.08888  0.33388  0.47562  1.0000
  C   C543      1.0  0.07936  0.23848  0.82350  1.0000
  C   C544      1.0  0.07324  0.22043  0.82934  1.0000
  C   C545      1.0  0.04531  0.03094  0.96297  1.0000
  C   C546      1.0  0.04530  0.99629  0.93484  1.0000
  C   C547      1.0  0.04217  0.42087  0.87921  1.0000
  C   C548      1.0  0.00904  0.12789  0.62053  1.0000
  S   S71       1.0  0.04409  0.12418  0.88725  1.0000
  H   H432      1.0  0.07278  0.18396  0.90394  1.0000
  H   H433      1.0  0.09187  0.17139  0.92495  1.0000
  H   H434      1.0  0.11242  0.15769  0.90530  1.0000
  H   H435      1.0  0.11314  0.15537  0.86477  1.0000
  H   H436      1.0  0.09410  0.16760  0.84347  1.0000
  H   H437      1.0  0.03992  0.20156  0.85024  1.0000
  H   H438      1.0  0.01001  0.19379  0.87209  1.0000
  H   H439      1.0  0.99951  0.16906  0.90609  1.0000
  H   H440      1.0  0.01925  0.15229  0.91875  1.0000
  H   H441      1.0  0.04919  0.15986  0.89728  1.0000
  C   C549      1.0  0.03047  0.38093  0.90694  1.0000
  H   H442      1.0  0.08561  0.30205  0.84839  1.0000
  C   C550      1.0  0.06641  0.16865  0.78862  1.0000
  H   H443      1.0  0.07650  0.24602  0.80867  1.0000
  H   H444      1.0  0.06559  0.21424  0.81887  1.0000
  C   C551      1.0  0.09134  0.04376  0.48100  1.0000
  H   H445      1.0  0.16819  0.39084  0.82770  1.0000
  C   C552      1.0  0.04661  0.46815  0.89883  1.0000
  C   C553      1.0  0.10940  0.36883  0.74944  1.0000
  H   H446      1.0  0.07700  0.39770  0.49638  1.0000
  C   C554      1.0  0.00446  0.13816  0.60271  1.0000
  H   H447      1.0  0.07126  0.01005  0.77798  1.0000
  C   C555      1.0  0.03258  0.41357  0.94092  1.0000
  H   H448      1.0  0.04136  0.45537  0.89640  1.0000
  H   H449      1.0  0.01613  0.33368  0.71204  1.0000
  H   H450      1.0  0.15150  0.04145  0.81098  1.0000
  H   H451      1.0  0.00573  0.20023  0.50239  1.0000
  H   H452      1.0  0.07733  0.12346  0.89297  1.0000
  H   H453      1.0  0.04805  0.34477  0.75893  1.0000
  C   C556      1.0  0.17258  0.33394  0.91376  1.0000
  H   H454      1.0  0.06544  0.01169  0.54279  1.0000
  H   H455      1.0  0.12507  0.12564  0.89990  1.0000
  C   C557      1.0  0.12234  0.12006  0.88557  1.0000
  H   H456      1.0  0.10183  0.36536  0.73731  1.0000
  C   C558      1.0  0.03708  0.44497  0.85390  1.0000
  C   C559      1.0  0.03570  0.37884  0.88437  1.0000
  C   C560      1.0  0.05049  0.36371  0.72771  1.0000
  C   C561      1.0  0.05319  0.16125  0.80834  1.0000
  H   H457      1.0  0.05401  0.21163  0.89886  1.0000
  S   S72       1.0  0.17364  0.48953  0.63965  1.0000
  Fe  Fe39      1.0  0.01639  0.11951  0.88430  1.0000
  H   H458      1.0  0.01780  0.07686  0.78733  1.0000
  S   S73       1.0  0.15863  0.47134  0.70575  1.0000
  H   H459      1.0  0.98961  0.01222  0.94102  1.0000
  H   H460      1.0  0.06717  0.06572  0.84133  1.0000
  C   C562      1.0  0.00368  0.07530  0.51169  1.0000
  C   C563      1.0  0.17343  0.44971  0.58966  1.0000
  H   H461      1.0  0.07271  0.00131  0.92857  1.0000
  C   C564      1.0  0.13419  0.42957  0.69840  1.0000
  H   H462      1.0  0.17879  0.44764  0.96651  1.0000
  H   H463      1.0  0.09574  0.44075  0.79738  1.0000
  H   H464      1.0  0.05741  0.39272  0.82615  1.0000
  S   S74       1.0  0.00707  0.09923  0.81492  1.0000
  C   C565      1.0  0.00400  0.07299  0.79209  1.0000
  H   H465      1.0  0.00204  0.05235  0.77387  1.0000
  C   C566      1.0  0.08139  0.04704  0.83758  1.0000
  H   H466      1.0  0.16353  0.00841  0.82525  1.0000
  H   H467      1.0  0.07473  0.31654  0.87835  1.0000
  C   C567      1.0  0.07340  0.39470  0.79285  1.0000
  H   H468      1.0  0.13019  0.40504  0.72150  1.0000
  C   C568      1.0  0.99511  0.05913  0.78444  1.0000
  C   C569      1.0  0.13154  0.11605  0.84701  1.0000
  Fe  Fe40      1.0  0.99788  0.10748  0.84792  1.0000
  C   C570      1.0  0.10586  0.47907  0.87181  1.0000
  C   C571      1.0  0.00377  0.19259  0.80607  1.0000
  C   C572      1.0  0.11063  0.44290  0.70169  1.0000
  C   C573      1.0  0.16352  0.02671  0.89370  1.0000
  H   H469      1.0  0.99154  0.17319  0.49233  1.0000
  C   C574      1.0  0.15768  0.99637  0.74635  1.0000
  C   C575      1.0  0.17642  0.05699  0.79165  1.0000
  H   H470      1.0  0.17658  0.00867  0.50496  1.0000
  H   H471      1.0  0.17717  0.42924  0.92053  1.0000
  H   H472      1.0  0.99302  0.08125  0.72991  1.0000
  C   C576      1.0  0.17783  0.38040  0.85649  1.0000
  C   C577      1.0  0.17632  0.39372  0.83945  1.0000
  H   H473      1.0  0.10751  0.48461  0.50118  1.0000
  C   C578      1.0  0.98758  0.03539  0.95217  1.0000
  H   H474      1.0  0.98651  0.25247  0.70287  1.0000
  C   C579      1.0  0.17410  0.99485  0.50641  1.0000
  C   C580      1.0  0.98726  0.04423  0.67106  1.0000
  H   H475      1.0  0.03932  0.08603  0.48685  1.0000
  H   H476      1.0  0.18140  0.42997  0.75355  1.0000
  H   H477      1.0  0.98428  0.40221  0.93085  1.0000
  C   C581      1.0  0.17003  0.46125  0.89346  1.0000
  C   C582      1.0  0.05016  0.08298  0.47696  1.0000
  H   H478      1.0  0.14388  0.45489  0.46944  1.0000
  H   H479      1.0  0.18290  0.45190  0.71818  1.0000
  H   H480      1.0  0.09205  0.49019  0.47020  1.0000
  C   C583      1.0  0.98336  0.19456  0.84715  1.0000
  C   C584      1.0  0.98393  0.18062  0.50056  1.0000
  H   H481      1.0  0.98656  0.91734  0.40280  1.0000
  H   H482      1.0  0.17983  0.82842  0.37305  1.0000
  Fe  Fe41      1.0  0.01306  0.86843  0.39591  1.0000
  S   S75       1.0  0.02360  0.86318  0.36168  1.0000
  S   S76       1.0  0.02750  0.87499  0.42336  1.0000
  Fe  Fe42      1.0  0.00882  0.88119  0.34733  1.0000
  S   S77       1.0  0.01960  0.90350  0.31599  1.0000
  C   C585      1.0  0.00137  0.64613  0.98977  1.0000
  C   C586      1.0  0.00387  0.49938  0.37642  1.0000
  S   S78       1.0  0.00007  0.88770  0.38113  1.0000
  S   S79       1.0  0.98943  0.84613  0.40381  1.0000
  Fe  Fe43      1.0  0.10268  0.95291  0.43143  1.0000
  C   C587      1.0  0.04942  0.68981  0.97926  1.0000
  S   S80       1.0  0.09605  0.93441  0.40808  1.0000
  H   H483      1.0  0.02539  0.58165  0.01137  1.0000
  H   H484      1.0  0.02613  0.98311  0.24619  1.0000
  S   S81       1.0  0.12938  0.96895  0.42845  1.0000
  S   S82       1.0  0.09274  0.97637  0.42658  1.0000
  C   C588      1.0  0.07045  0.51441  0.17955  1.0000
  H   H485      1.0  0.01973  0.57509  0.36560  1.0000
  H   H486      1.0  0.05855  0.64663  0.96894  1.0000
  H   H487      1.0  0.05611  0.60882  0.40747  1.0000
  H   H488      1.0  0.01220  0.56429  0.42351  1.0000
  H   H489      1.0  0.08288  0.52353  0.17240  1.0000
  Fe  Fe44      1.0  0.14285  0.77321  0.35797  1.0000
  S   S83       1.0  0.14997  0.74800  0.36468  1.0000
  S   S84       1.0  0.15827  0.79835  0.36462  1.0000
  Fe  Fe45      1.0  0.11256  0.75713  0.33735  1.0000
  S   S85       1.0  0.11780  0.73089  0.34299  1.0000
  S   S86       1.0  0.09097  0.76403  0.32176  1.0000
  Fe  Fe46      1.0  0.12177  0.73569  0.37741  1.0000
  S   S87       1.0  0.11051  0.71779  0.41282  1.0000
  Fe  Fe47      1.0  0.14548  0.74571  0.32946  1.0000
  S   S88       1.0  0.16561  0.73752  0.30594  1.0000
  S   S89       1.0  0.11476  0.76109  0.37273  1.0000
  S   S90       1.0  0.14006  0.77179  0.32172  1.0000
  Fe  Fe48      1.0  0.10844  0.72053  0.98306  1.0000
  S   S91       1.0  0.11354  0.69473  0.99516  1.0000
  S   S92       1.0  0.08539  0.72982  0.99718  1.0000
  Fe  Fe49      1.0  0.14060  0.71021  0.99124  1.0000
  S   S93       1.0  0.15669  0.70206  0.01605  1.0000
  S   S94       1.0  0.13499  0.73610  0.98192  1.0000
  Fe  Fe50      1.0  0.00643  0.71805  0.28745  1.0000
  S   S95       1.0  0.02992  0.71143  0.29846  1.0000
  S   S96       1.0  0.00669  0.74151  0.26118  1.0000
  C   C589      1.0  0.03963  0.49565  0.26152  1.0000
  S   S97       1.0  0.01636  0.68060  0.06341  1.0000
  C   C590      1.0  0.17584  0.65498  0.13842  1.0000
  C   C591      1.0  0.98563  0.99279  0.16696  1.0000
  H   H490      1.0  0.05927  0.57994  0.40309  1.0000
  H   H491      1.0  0.03603  0.93954  0.22064  1.0000
  S   S98       1.0  0.16446  0.73493  0.20146  1.0000
  H   H492      1.0  0.02368  0.69748  0.40252  1.0000
  P   P20       1.0  0.08224  0.58523  0.97835  1.0000
  S   S99       1.0  0.17263  0.70800  0.15616  1.0000
  H   H493      1.0  0.06000  0.98716  0.39081  1.0000
  S   S100      1.0  0.08590  0.63718  0.41918  1.0000
  C   C592      1.0  0.09359  0.76566  0.45965  1.0000
  H   H494      1.0  0.01078  0.75873  0.12984  1.0000
  C   C593      1.0  0.04130  0.80090  0.00103  1.0000
  C   C594      1.0  0.07976  0.62844  0.00306  1.0000
  S   S101      1.0  0.05165  0.50894  0.40291  1.0000
  S   S102      1.0  0.05314  0.49732  0.34327  1.0000
  Fe  Fe51      1.0  0.13207  0.54631  0.12131  1.0000
  S   S103      1.0  0.13042  0.52806  0.15508  1.0000
  S   S104      1.0  0.12454  0.54087  0.08781  1.0000
  Fe  Fe52      1.0  0.14924  0.57834  0.13820  1.0000
  S   S105      1.0  0.14888  0.56234  0.17288  1.0000
  S   S106      1.0  0.15689  0.60790  0.12575  1.0000
  Fe  Fe53      1.0  0.15731  0.54343  0.15304  1.0000
  C   C595      1.0  0.08830  0.60545  0.98698  1.0000
  Fe  Fe54      1.0  0.12239  0.54820  0.17246  1.0000
  S   S107      1.0  0.10004  0.54402  0.20291  1.0000
  S   S108      1.0  0.15958  0.56046  0.11818  1.0000
  S   S109      1.0  0.12204  0.56539  0.13898  1.0000
  C   C596      1.0  0.11989  0.78155  0.42035  1.0000
  C   C597      1.0  0.04391  0.64125  0.45353  1.0000
  C   C598      1.0  0.10907  0.52467  0.08082  1.0000
  H   H495      1.0  0.11544  0.61078  0.97206  1.0000
  C   C599      1.0  0.10848  0.52565  0.05743  1.0000
  C   C600      1.0  0.01422  0.80393  0.02140  1.0000
  H   H496      1.0  0.11738  0.53615  0.04423  1.0000
  H   H497      1.0  0.01314  0.74047  0.98628  1.0000
  C   C601      1.0  0.02746  0.93495  0.35941  1.0000
  Fe  Fe55      1.0  0.99901  0.84221  0.36803  1.0000
  C   C602      1.0  0.11332  0.52407  0.23331  1.0000
  C   C603      1.0  0.10003  0.53167  0.23014  1.0000
  C   C604      1.0  0.08632  0.52938  0.24898  1.0000
  C   C605      1.0  0.08563  0.51917  0.27077  1.0000
  C   C606      1.0  0.03162  0.61491  0.03848  1.0000
  H   H498      1.0  0.12397  0.52582  0.21891  1.0000
  C   C607      1.0  0.11284  0.51420  0.25519  1.0000
  C   C608      1.0  0.10966  0.79139  0.42994  1.0000
  C   C609      1.0  0.08712  0.54813  0.43016  1.0000
  C   C610      1.0  0.06966  0.54697  0.43378  1.0000
  C   C611      1.0  0.05912  0.53513  0.42486  1.0000
  C   C612      1.0  0.06585  0.52419  0.41245  1.0000
  C   C613      1.0  0.08337  0.52547  0.40848  1.0000
  C   C614      1.0  0.09398  0.53740  0.41741  1.0000
  H   H499      1.0  0.06418  0.55502  0.44372  1.0000
  H   H500      1.0  0.04566  0.53444  0.42771  1.0000
  H   H501      1.0  0.08870  0.51714  0.39885  1.0000
  H   H502      1.0  0.03204  0.58816  0.04779  1.0000
  C   C615      1.0  0.01186  0.75726  0.11222  1.0000
  C   C616      1.0  0.17165  0.62009  0.15961  1.0000
  C   C617      1.0  0.16644  0.62411  0.13896  1.0000
  H   H503      1.0  0.09767  0.51002  0.11570  1.0000
  H   H504      1.0  0.06236  0.60476  0.00254  1.0000
  H   H505      1.0  0.17925  0.82275  0.31265  1.0000
  C   C618      1.0  0.00514  0.95139  0.42727  1.0000
  H   H506      1.0  0.01345  0.90672  0.44881  1.0000
  H   H507      1.0  0.07800  0.71057  0.39533  1.0000
  C   C619      1.0  0.16298  0.71225  0.03783  1.0000
  C   C620      1.0  0.15974  0.72805  0.04050  1.0000
  C   C621      1.0  0.16530  0.73575  0.05784  1.0000
  C   C622      1.0  0.17398  0.72769  0.07277  1.0000
  C   C623      1.0  0.06028  0.98317  0.29699  1.0000
  C   C624      1.0  0.17164  0.70421  0.05277  1.0000
  H   H508      1.0  0.15309  0.73438  0.02912  1.0000
  C   C625      1.0  0.02785  0.58266  0.37433  1.0000
  C   C626      1.0  0.06833  0.53803  0.04025  1.0000
  C   C627      1.0  0.03550  0.69425  0.04497  1.0000
  C   C628      1.0  0.03649  0.71138  0.03474  1.0000
  C   C629      1.0  0.05193  0.72213  0.02048  1.0000
  C   C630      1.0  0.06648  0.71586  0.01601  1.0000
  C   C631      1.0  0.06556  0.69874  0.02643  1.0000
  C   C632      1.0  0.05011  0.68799  0.04093  1.0000
  H   H509      1.0  0.02534  0.71635  0.03782  1.0000
  H   H510      1.0  0.05243  0.73529  0.01266  1.0000
  H   H511      1.0  0.07668  0.69376  0.02323  1.0000
  H   H512      1.0  0.04943  0.67474  0.04891  1.0000
  C   C633      1.0  0.10408  0.69533  0.41461  1.0000
  C   C634      1.0  0.10456  0.68892  0.39462  1.0000
  C   C635      1.0  0.09908  0.67104  0.39640  1.0000
  C   C636      1.0  0.09318  0.65941  0.41809  1.0000
  C   C637      1.0  0.09277  0.66576  0.43814  1.0000
  C   C638      1.0  0.09813  0.68372  0.43638  1.0000
  H   H513      1.0  0.10919  0.69771  0.37780  1.0000
  H   H514      1.0  0.09965  0.66617  0.38089  1.0000
  H   H515      1.0  0.07242  0.76042  0.01373  1.0000
  H   H516      1.0  0.09776  0.68860  0.45191  1.0000
  C   C639      1.0  0.16477  0.73642  0.27712  1.0000
  C   C640      1.0  0.15347  0.74343  0.26611  1.0000
  C   C641      1.0  0.15351  0.74280  0.24295  1.0000
  C   C642      1.0  0.16482  0.73521  0.23059  1.0000
  S   S110      1.0  0.03669  0.51217  0.96942  1.0000
  C   C643      1.0  0.12314  0.90918  0.43967  1.0000
  H   H517      1.0  0.14477  0.74940  0.27539  1.0000
  H   H518      1.0  0.14476  0.74831  0.23455  1.0000
  C   C644      1.0  0.00405  0.96210  0.25004  1.0000
  H   H519      1.0  0.06645  0.52265  0.01492  1.0000
  C   C645      1.0  0.07511  0.74912  0.31359  1.0000
  C   C646      1.0  0.07274  0.73115  0.32001  1.0000
  C   C647      1.0  0.05909  0.71982  0.31482  1.0000
  C   C648      1.0  0.04777  0.72625  0.30294  1.0000
  C   C649      1.0  0.05084  0.74416  0.29526  1.0000
  C   C650      1.0  0.06415  0.75551  0.30100  1.0000
  H   H520      1.0  0.08118  0.72598  0.32941  1.0000
  H   H521      1.0  0.05719  0.70599  0.32012  1.0000
  H   H522      1.0  0.04280  0.74927  0.28507  1.0000
  H   H523      1.0  0.06587  0.76933  0.29566  1.0000
  C   C651      1.0  0.16805  0.80132  0.38818  1.0000
  C   C652      1.0  0.01948  0.94711  0.41612  1.0000
  C   C653      1.0  0.99641  0.91583  0.02558  1.0000
  H   H524      1.0  0.08324  0.81630  0.39666  1.0000
  H   H525      1.0  0.02428  0.78220  0.03072  1.0000
  C   C654      1.0  0.16583  0.78784  0.40743  1.0000
  H   H526      1.0  0.05633  0.97759  0.10329  1.0000
  C   C655      1.0  0.99814  0.93994  0.04494  1.0000
  C   C656      1.0  0.98443  0.71825  0.18773  1.0000
  H   H527      1.0  0.15822  0.77504  0.40807  1.0000
  H   H528      1.0  0.03377  0.73896  0.07436  1.0000
  H   H529      1.0  0.00657  0.72343  0.15980  1.0000
  C   C657      1.0  0.04540  0.89310  0.41835  1.0000
  C   C658      1.0  0.04987  0.89934  0.43725  1.0000
  C   C659      1.0  0.06480  0.91272  0.43419  1.0000
  C   C660      1.0  0.07577  0.91959  0.41226  1.0000
  C   C661      1.0  0.07117  0.91350  0.39332  1.0000
  C   C662      1.0  0.05591  0.90059  0.39625  1.0000
  H   H530      1.0  0.04183  0.89367  0.45442  1.0000
  H   H531      1.0  0.06815  0.91725  0.44894  1.0000
  H   H532      1.0  0.07958  0.91867  0.37633  1.0000
  H   H533      1.0  0.05268  0.89587  0.38157  1.0000
  H   H534      1.0  0.12573  0.91673  0.42206  1.0000
  C   C663      1.0  0.00612  0.92945  0.03297  1.0000
  C   C664      1.0  0.05016  0.58540  0.39544  1.0000
  H   H535      1.0  0.01595  0.60359  0.37029  1.0000
  C   C665      1.0  0.13659  0.90697  0.45008  1.0000
  C   C666      1.0  0.06788  0.76652  0.06832  1.0000
  H   H536      1.0  0.07494  0.51734  0.28514  1.0000
  C   C667      1.0  0.00918  0.92017  0.31813  1.0000
  C   C668      1.0  0.01665  0.93696  0.30436  1.0000
  C   C669      1.0  0.00864  0.95039  0.30674  1.0000
  C   C670      1.0  0.99305  0.94701  0.32275  1.0000
  S   S111      1.0  0.99874  0.81433  0.36477  1.0000
  C   C671      1.0  0.99347  0.91681  0.33384  1.0000
  H   H537      1.0  0.02874  0.93966  0.29209  1.0000
  H   H538      1.0  0.01460  0.96332  0.29634  1.0000
  C   C672      1.0  0.99662  0.49718  0.46572  1.0000
  C   C673      1.0  0.01280  0.63179  0.38781  1.0000
  H   H539      1.0  0.04052  0.69642  0.09022  1.0000
  C   C674      1.0  0.03306  0.96214  0.23312  1.0000
  H   H540      1.0  0.06984  0.63366  0.01124  1.0000
  C   C675      1.0  0.06597  0.50579  0.20289  1.0000
  H   H541      1.0  0.00676  0.67950  0.33876  1.0000
  C   C676      1.0  0.00778  0.83075  0.06047  1.0000
  S   S112      1.0  0.99682  0.72522  0.20714  1.0000
  H   H542      1.0  0.07788  0.96397  0.37347  1.0000
  C   C677      1.0  0.00381  0.76189  0.07541  1.0000
  H   H543      1.0  0.14772  0.86964  0.42375  1.0000
  H   H544      1.0  0.12325  0.50850  0.25758  1.0000
  C   C678      1.0  0.02339  0.74838  0.10357  1.0000
  C   C679      1.0  0.03136  0.82637  0.98833  1.0000
  C   C680      1.0  0.99375  0.64324  0.01340  1.0000
  H   H545      1.0  0.11079  0.57080  0.98616  1.0000
  C   C681      1.0  0.98897  0.51826  0.39339  1.0000
  H   H546      1.0  0.09999  0.65119  0.99998  1.0000
  C   C682      1.0  0.07191  0.75923  0.04948  1.0000
  C   C683      1.0  0.06743  0.82668  0.41950  1.0000
  S   S113      1.0  0.06792  0.59106  0.44612  1.0000
  H   H547      1.0  0.03344  0.92761  0.41523  1.0000
  Fe  Fe56      1.0  0.99242  0.69033  0.06616  1.0000
  H   H548      1.0  0.00951  0.49542  0.36131  1.0000
  C   C684      1.0  0.10310  0.98012  0.36803  1.0000
  Fe  Fe57      1.0  0.99866  0.97636  0.06912  1.0000
  H   H549      1.0  0.05444  0.83793  0.44468  1.0000
  C   C685      1.0  0.03411  0.95281  0.35590  1.0000
  H   H550      1.0  0.98568  0.75123  0.45198  1.0000
  S   S114      1.0  0.11239  0.98980  0.46523  1.0000
  S   S115      1.0  0.18083  0.73803  0.09411  1.0000
  C   C686      1.0  0.03967  0.52412  0.26875  1.0000
  C   C687      1.0  0.06069  0.78062  0.06583  1.0000
  H   H551      1.0  0.04656  0.96860  0.22800  1.0000
  H   H552      1.0  0.04295  0.53806  0.26250  1.0000
  C   C688      1.0  0.00965  0.93771  0.23502  1.0000
  C   C689      1.0  0.05177  0.96019  0.34804  1.0000
  H   H553      1.0  0.02075  0.80038  0.09436  1.0000
  C   C690      1.0  0.08663  0.97630  0.36418  1.0000
  H   H554      1.0  0.08825  0.65687  0.45495  1.0000
  C   C691      1.0  0.98784  0.77379  0.33375  1.0000
  H   H555      1.0  0.99611  0.64448  0.34176  1.0000
  C   C692      1.0  0.99349  0.65364  0.97327  1.0000
  C   C693      1.0  0.08545  0.49858  0.09118  1.0000
  S   S116      1.0  0.10311  0.60626  0.46314  1.0000
  H   H556      1.0  0.02540  0.96078  0.35906  1.0000
  H   H557      1.0  0.12467  0.75632  0.42248  1.0000
  H   H558      1.0  0.05495  0.82242  0.97186  1.0000
  C   C694      1.0  0.06109  0.99092  0.27403  1.0000
  H   H559      1.0  0.16806  0.79737  0.97017  1.0000
  C   C695      1.0  0.03168  0.51659  0.29195  1.0000
  C   C696      1.0  0.98402  0.86356  0.46000  1.0000
  H   H560      1.0  0.06262  0.51777  0.14729  1.0000
  H   H561      1.0  0.04937  0.96994  0.02041  1.0000
  C   C697      1.0  0.99242  0.80185  0.34477  1.0000
  C   C698      1.0  0.11691  0.76392  0.43021  1.0000
  H   H562      1.0  0.06003  0.98306  0.26143  1.0000
  H   H563      1.0  0.03831  0.98720  0.04123  1.0000
  C   C699      1.0  0.17597  0.72801  0.24166  1.0000
  C   C700      1.0  0.09431  0.82111  0.42538  1.0000
  C   C701      1.0  0.06024  0.67804  0.35919  1.0000
  C   C702      1.0  0.02573  0.59885  0.37711  1.0000
  C   C703      1.0  0.17484  0.99280  0.44058  1.0000
  C   C704      1.0  0.06934  0.96023  0.97244  1.0000
  C   C705      1.0  0.09895  0.51158  0.27392  1.0000
  C   C706      1.0  0.09654  0.51319  0.05093  1.0000
  H   H564      1.0  0.04947  0.94560  0.00212  1.0000
  C   C707      1.0  0.99069  0.82191  0.06373  1.0000
  H   H565      1.0  0.00265  0.90775  0.01656  1.0000
  H   H566      1.0  0.14956  0.91280  0.44017  1.0000
  S   S117      1.0  0.99060  0.69954  0.27110  1.0000
  C   C708      1.0  0.02713  0.94582  0.22891  1.0000
  C   C709      1.0  0.10371  0.75594  0.44977  1.0000
  C   C710      1.0  0.98993  0.55454  0.45161  1.0000
  C   C711      1.0  0.09742  0.51102  0.09767  1.0000
  C   C712      1.0  0.00104  0.68677  0.34987  1.0000
  C   C713      1.0  0.08490  0.49954  0.06780  1.0000
  C   C714      1.0  0.14603  0.85575  0.42703  1.0000
  C   C715      1.0  0.02661  0.74707  0.98217  1.0000
  H   H567      1.0  0.00695  0.82694  0.00790  1.0000
  C   C716      1.0  0.14177  0.81987  0.43547  1.0000
  C   C717      1.0  0.13061  0.82725  0.42445  1.0000
  C   C718      1.0  0.13288  0.84529  0.42020  1.0000
  P   P21       1.0  0.11320  0.81396  0.41609  1.0000
  C   C719      1.0  0.11795  0.81561  0.38517  1.0000
  C   C720      1.0  0.10806  0.80343  0.37588  1.0000
  C   C721      1.0  0.11193  0.80414  0.35214  1.0000
  C   C722      1.0  0.12580  0.81690  0.33751  1.0000
  C   C723      1.0  0.13579  0.82899  0.34658  1.0000
  C   C724      1.0  0.13196  0.82832  0.37033  1.0000
  C   C725      1.0  0.09204  0.82720  0.44579  1.0000
  H   H568      1.0  0.99534  0.96876  0.25788  1.0000
  C   C726      1.0  0.02263  0.61425  0.44138  1.0000
  H   H569      1.0  0.98702  0.74793  0.97048  1.0000
  H   H570      1.0  0.12442  0.85125  0.41172  1.0000
  H   H571      1.0  0.09761  0.79308  0.38708  1.0000
  H   H572      1.0  0.10452  0.79445  0.34512  1.0000
  H   H573      1.0  0.12907  0.81707  0.31925  1.0000
  H   H574      1.0  0.14694  0.83845  0.33535  1.0000
  H   H575      1.0  0.14033  0.83735  0.37701  1.0000
  C   C727      1.0  0.10535  0.61536  0.98101  1.0000
  C   C728      1.0  0.98793  0.75081  0.41603  1.0000
  C   C729      1.0  0.07575  0.67564  0.34845  1.0000
  C   C730      1.0  0.99806  0.62843  0.40554  1.0000
  C   C731      1.0  0.98817  0.80901  0.32441  1.0000
  H   H576      1.0  0.05270  0.65134  0.45816  1.0000
  C   C732      1.0  0.12585  0.76350  0.05849  1.0000
  C   C733      1.0  0.12336  0.76326  0.03629  1.0000
  C   C734      1.0  0.11406  0.74813  0.03198  1.0000
  C   C735      1.0  0.10757  0.73308  0.04966  1.0000
  C   C736      1.0  0.11042  0.73306  0.07189  1.0000
  C   C737      1.0  0.11914  0.74857  0.07633  1.0000
  P   P22       1.0  0.10087  0.71398  0.09508  1.0000
  C   C738      1.0  0.07851  0.71344  0.10277  1.0000
  C   C739      1.0  0.10317  0.69436  0.08639  1.0000
  C   C740      1.0  0.11579  0.69473  0.06714  1.0000
  C   C741      1.0  0.11714  0.67935  0.06061  1.0000
  C   C742      1.0  0.10620  0.66351  0.07345  1.0000
  C   C743      1.0  0.09393  0.66299  0.09301  1.0000
  C   C744      1.0  0.09245  0.67835  0.09951  1.0000
  C   C745      1.0  0.06688  0.70443  0.09198  1.0000
  C   C746      1.0  0.04950  0.70364  0.09830  1.0000
  C   C747      1.0  0.04363  0.71201  0.11513  1.0000
  C   C748      1.0  0.05521  0.72161  0.12525  1.0000
  C   C749      1.0  0.07264  0.72254  0.11885  1.0000
  C   C750      1.0  0.11100  0.71451  0.11922  1.0000
  C   C751      1.0  0.12876  0.72102  0.11522  1.0000
  C   C752      1.0  0.13654  0.72234  0.13377  1.0000
  C   C753      1.0  0.12678  0.71660  0.15648  1.0000
  C   C754      1.0  0.10922  0.70918  0.16065  1.0000
  C   C755      1.0  0.10137  0.70799  0.14211  1.0000
  H   H577      1.0  0.13288  0.77530  0.06195  1.0000
  H   H578      1.0  0.12846  0.77484  0.02247  1.0000
  H   H579      1.0  0.11177  0.74810  0.01490  1.0000
  H   H580      1.0  0.10020  0.72154  0.04596  1.0000
  H   H581      1.0  0.12076  0.74927  0.09354  1.0000
  H   H582      1.0  0.12463  0.70680  0.05714  1.0000
  H   H583      1.0  0.12678  0.67968  0.04561  1.0000
  H   H584      1.0  0.10738  0.65165  0.06832  1.0000
  H   H585      1.0  0.08556  0.65068  0.10309  1.0000
  H   H586      1.0  0.08286  0.67777  0.11467  1.0000
  H   H587      1.0  0.07115  0.69797  0.07870  1.0000
  H   H588      1.0  0.05065  0.72821  0.13820  1.0000
  H   H589      1.0  0.08146  0.73020  0.12664  1.0000
  H   H590      1.0  0.13664  0.72533  0.09777  1.0000
  H   H591      1.0  0.15019  0.72786  0.13055  1.0000
  H   H592      1.0  0.13292  0.71783  0.17076  1.0000
  H   H593      1.0  0.10168  0.70452  0.17828  1.0000
  H   H594      1.0  0.08780  0.70212  0.14574  1.0000
  C   C756      1.0  0.09838  0.61492  0.34974  1.0000
  C   C757      1.0  0.09691  0.61065  0.37362  1.0000
  C   C758      1.0  0.09460  0.59346  0.38500  1.0000
  C   C759      1.0  0.09379  0.58053  0.37253  1.0000
  C   C760      1.0  0.09633  0.58484  0.34833  1.0000
  C   C761      1.0  0.09795  0.60205  0.33712  1.0000
  P   P23       1.0  0.09546  0.56800  0.33241  1.0000
  C   C762      1.0  0.10610  0.55208  0.34320  1.0000
  C   C763      1.0  0.07306  0.55903  0.33480  1.0000
  C   C764      1.0  0.06397  0.54374  0.35120  1.0000
  C   C765      1.0  0.04636  0.53754  0.35375  1.0000
  C   C766      1.0  0.03774  0.54658  0.34006  1.0000
  C   C767      1.0  0.04671  0.56190  0.32380  1.0000
  C   C768      1.0  0.06429  0.56817  0.32126  1.0000
  C   C769      1.0  0.10389  0.53643  0.33599  1.0000
  C   C770      1.0  0.11310  0.52461  0.34272  1.0000
  C   C771      1.0  0.12427  0.52808  0.35709  1.0000
  C   C772      1.0  0.12673  0.54371  0.36408  1.0000
  C   C773      1.0  0.11797  0.55582  0.35680  1.0000
  C   C774      1.0  0.10629  0.57580  0.30223  1.0000
  C   C775      1.0  0.10075  0.56711  0.28575  1.0000
  C   C776      1.0  0.10965  0.57244  0.26256  1.0000
  C   C777      1.0  0.12418  0.58642  0.25564  1.0000
  C   C778      1.0  0.12995  0.59491  0.27198  1.0000
  C   C779      1.0  0.12119  0.58948  0.29526  1.0000
  H   H595      1.0  0.09993  0.62823  0.34104  1.0000
  H   H596      1.0  0.09743  0.62062  0.38341  1.0000
  H   H597      1.0  0.09331  0.59010  0.40357  1.0000
  H   H598      1.0  0.09138  0.56719  0.38182  1.0000
  H   H599      1.0  0.09886  0.60556  0.31870  1.0000
  H   H600      1.0  0.07038  0.53673  0.36225  1.0000
  H   H601      1.0  0.03933  0.52579  0.36659  1.0000
  H   H602      1.0  0.02410  0.54181  0.34228  1.0000
  H   H603      1.0  0.04000  0.56901  0.31336  1.0000
  H   H604      1.0  0.07104  0.58023  0.30892  1.0000
  H   H605      1.0  0.09530  0.53344  0.32482  1.0000
  H   H606      1.0  0.11165  0.51276  0.33669  1.0000
  H   H607      1.0  0.13112  0.51872  0.36259  1.0000
  H   H608      1.0  0.13551  0.54652  0.37506  1.0000
  H   H609      1.0  0.12068  0.56809  0.36171  1.0000
  H   H610      1.0  0.08979  0.55595  0.29085  1.0000
  H   H611      1.0  0.10547  0.56551  0.25000  1.0000
  H   H612      1.0  0.13113  0.59045  0.23768  1.0000
  H   H613      1.0  0.14141  0.60553  0.26665  1.0000
  H   H614      1.0  0.12619  0.59579  0.30782  1.0000
  H   H615      1.0  0.03534  0.66596  0.38112  1.0000
  P   P24       1.0  0.03284  0.62898  0.39402  1.0000
  H   H616      1.0  0.03187  0.82973  0.06875  1.0000
  H   H617      1.0  0.02409  0.53457  0.46795  1.0000
  C   C780      1.0  0.05580  0.93176  0.34583  1.0000
  Fe  Fe58      1.0  0.08190  0.61639  0.45165  1.0000
  S   S118      1.0  0.99220  0.86031  0.00648  1.0000
  C   C781      1.0  0.05583  0.65864  0.97175  1.0000
  C   C782      1.0  0.04956  0.77032  0.98558  1.0000
  H   H618      1.0  0.99173  0.77554  0.98715  1.0000
  H   H619      1.0  0.99556  0.91428  0.27512  1.0000
  C   C783      1.0  0.01224  0.80626  0.08585  1.0000
  C   C784      1.0  0.00726  0.56269  0.44180  1.0000
  H   H620      1.0  0.09632  0.51418  0.03291  1.0000
  C   C785      1.0  0.04359  0.51371  0.25355  1.0000
  C   C786      1.0  0.05819  0.95814  0.99367  1.0000
  H   H621      1.0  0.07375  0.54791  0.98185  1.0000
  C   C787      1.0  0.03893  0.66000  0.97676  1.0000
  C   C788      1.0  0.02645  0.79452  0.01886  1.0000
  C   C789      1.0  0.06874  0.76601  0.02819  1.0000
  C   C790      1.0  0.98427  0.79873  0.30856  1.0000
  H   H622      1.0  0.00313  0.96403  0.42139  1.0000
  H   H623      1.0  0.07834  0.58197  0.02884  1.0000
  H   H624      1.0  0.06409  0.92359  0.34157  1.0000
  P   P25       1.0  0.02150  0.64121  0.98021  1.0000
  H   H625      1.0  0.08888  0.80761  0.00694  1.0000
  C   C791      1.0  0.99623  0.51315  0.37388  1.0000
  H   H626      1.0  0.05762  0.78632  0.08043  1.0000
  C   C792      1.0  0.04819  0.60164  0.39809  1.0000
  H   H627      1.0  0.03317  0.91065  0.35680  1.0000
  C   C793      1.0  0.09672  0.63829  0.99685  1.0000
  H   H628      1.0  0.01467  0.60342  0.43698  1.0000
  H   H629      1.0  0.01642  0.75098  0.04942  1.0000
  C   C794      1.0  0.01031  0.51212  0.45860  1.0000
  H   H630      1.0  0.05202  0.79842  0.04297  1.0000
  C   C795      1.0  0.05737  0.78734  0.04458  1.0000
  C   C796      1.0  0.99617  0.49517  0.41817  1.0000
  Fe  Fe59      1.0  0.08801  0.58062  0.45955  1.0000
  C   C797      1.0  0.06530  0.64472  0.36494  1.0000
  H   H631      1.0  0.05253  0.65272  0.41735  1.0000
  C   C798      1.0  0.17804  0.81787  0.38777  1.0000
  C   C799      1.0  0.03832  0.92444  0.35450  1.0000
  C   C800      1.0  0.02153  0.97028  0.24356  1.0000
  H   H632      1.0  0.16800  0.80294  0.28906  1.0000
  C   C801      1.0  0.07671  0.80224  0.97916  1.0000
  H   H633      1.0  0.04973  0.56034  0.97853  1.0000
  H   H634      1.0  0.03341  0.97237  0.08210  1.0000
  C   C802      1.0  0.07295  0.54999  0.99919  1.0000
  H   H635      1.0  0.09043  0.65723  0.34334  1.0000
  C   C803      1.0  0.05827  0.97216  0.00407  1.0000
  H   H636      1.0  0.02030  0.72343  0.42496  1.0000
  C   C804      1.0  0.08182  0.82082  0.41240  1.0000
  C   C805      1.0  0.04574  0.98115  0.07332  1.0000
  H   H637      1.0  0.02314  0.64024  0.35078  1.0000
  C   C806      1.0  0.01071  0.91899  0.44277  1.0000
  H   H638      1.0  0.99527  0.77847  0.36505  1.0000
  H   H639      1.0  0.11559  0.82657  0.98093  1.0000
  H   H640      1.0  0.01985  0.93178  0.02959  1.0000
  C   C807      1.0  0.99280  0.71891  0.16496  1.0000
  C   C808      1.0  0.07824  0.65898  0.35124  1.0000
  Fe  Fe60      1.0  0.98923  0.72323  0.24629  1.0000
  C   C809      1.0  0.03013  0.59822  0.03483  1.0000
  C   C810      1.0  0.02632  0.59454  0.01436  1.0000
  C   C811      1.0  0.02380  0.60748  0.99764  1.0000
  C   C812      1.0  0.02493  0.62423  0.00136  1.0000
  H   H641      1.0  0.07035  0.76124  0.08481  1.0000
  H   H642      1.0  0.04698  0.70178  0.98271  1.0000
  H   H643      1.0  0.17966  0.77769  0.28505  1.0000
  C   C813      1.0  0.17847  0.80099  0.29685  1.0000
  C   C814      1.0  0.99355  0.93948  0.44623  1.0000
  C   C815      1.0  0.17332  0.79092  0.42604  1.0000
  C   C816      1.0  0.03581  0.67569  0.98064  1.0000
  C   C817      1.0  0.04373  0.64197  0.43028  1.0000
  H   H644      1.0  0.04141  0.56320  0.38197  1.0000
  C   C818      1.0  0.17473  0.77856  0.99452  1.0000
  C   C819      1.0  0.01029  0.98450  0.99062  1.0000
  C   C820      1.0  0.10950  0.63171  0.98595  1.0000
  C   C821      1.0  0.17593  0.72862  0.26481  1.0000
  H   H645      1.0  0.02277  0.99032  0.99310  1.0000
  C   C822      1.0  0.99800  0.94570  0.24589  1.0000
  H   H646      1.0  0.03009  0.71107  0.12024  1.0000
  H   H647      1.0  0.03032  0.64079  0.02491  1.0000
  H   H648      1.0  0.00624  0.73348  0.45753  1.0000
  C   C823      1.0  0.01831  0.56847  0.45559  1.0000
  H   H649      1.0  0.17011  0.60669  0.16787  1.0000
  C   C824      1.0  0.01859  0.82288  0.07141  1.0000
  C   C825      1.0  0.06141  0.76341  0.97292  1.0000
  H   H650      1.0  0.12258  0.63960  0.98066  1.0000
  H   H651      1.0  0.07892  0.51500  0.46665  1.0000
  H   H652      1.0  0.17135  0.78038  0.44087  1.0000
  H   H653      1.0  0.01867  0.51515  0.44155  1.0000
  H   H654      1.0  0.16460  0.64486  0.11248  1.0000
  C   C826      1.0  0.01661  0.81980  0.00609  1.0000
  C   C827      1.0  0.02221  0.93088  0.42376  1.0000
  H   H655      1.0  0.09589  0.90418  0.44415  1.0000
  C   C828      1.0  0.98898  0.50934  0.41544  1.0000
  H   H656      1.0  0.99571  0.51968  0.35685  1.0000
  H   H657      1.0  0.00268  0.79877  0.03501  1.0000
  C   C829      1.0  0.99275  0.79282  0.16760  1.0000
  S   S119      1.0  0.10050  0.56284  0.44149  1.0000
  H   H658      1.0  0.07627  0.53562  0.24664  1.0000
  C   C830      1.0  0.04368  0.81698  0.98577  1.0000
  C   C831      1.0  0.99570  0.74495  0.39753  1.0000
  S   S120      1.0  0.17541  0.52770  0.16476  1.0000
  C   C832      1.0  0.17814  0.79400  0.97783  1.0000
  H   H659      1.0  0.98694  0.88767  0.30563  1.0000
  H   H660      1.0  0.16451  0.98117  0.44797  1.0000
  C   C833      1.0  0.06937  0.67279  0.97049  1.0000
  H   H661      1.0  0.99820  0.62399  0.42345  1.0000
  C   C834      1.0  0.04005  0.57593  0.38353  1.0000
  H   H662      1.0  0.13007  0.78746  0.40504  1.0000
  C   C835      1.0  0.06893  0.53565  0.01783  1.0000
  H   H663      1.0  0.17747  0.66838  0.13005  1.0000
  C   C836      1.0  0.06547  0.83308  0.43948  1.0000
  H   H664      1.0  0.04985  0.51988  0.23569  1.0000
  H   H665      1.0  0.01383  0.92927  0.36536  1.0000
  C   C837      1.0  0.04721  0.66382  0.37268  1.0000
  H   H666      1.0  0.03088  0.74312  0.11458  1.0000
  H   H667      1.0  0.14058  0.80607  0.43867  1.0000
  H   H668      1.0  0.07751  0.74831  0.05128  1.0000
  C   C838      1.0  0.00333  0.73672  0.44074  1.0000
  S   S121      1.0  0.01065  0.95667  0.05454  1.0000
  H   H669      1.0  0.99257  0.74823  0.38089  1.0000
  C   C839      1.0  0.01539  0.75304  0.06681  1.0000
  C   C840      1.0  0.05900  0.51121  0.16546  1.0000
  H   H670      1.0  0.04962  0.68976  0.41141  1.0000
  H   H671      1.0  0.00517  0.92523  0.23118  1.0000
  C   C841      1.0  0.10878  0.83818  0.28774  1.0000
  C   C842      1.0  0.10566  0.82152  0.28368  1.0000
  C   C843      1.0  0.09111  0.80880  0.29672  1.0000
  C   C844      1.0  0.07978  0.81261  0.31406  1.0000
  C   C845      1.0  0.08319  0.82911  0.31892  1.0000
  C   C846      1.0  0.09749  0.84202  0.30512  1.0000
  P   P26       1.0  0.06851  0.83442  0.34088  1.0000
  C   C847      1.0  0.05539  0.84538  0.32595  1.0000
  C   C848      1.0  0.05590  0.81568  0.36308  1.0000
  C   C849      1.0  0.03949  0.81540  0.37482  1.0000
  C   C850      1.0  0.03013  0.80143  0.39307  1.0000
  C   C851      1.0  0.03728  0.78789  0.40026  1.0000
  C   C852      1.0  0.05378  0.78824  0.38899  1.0000
  C   C853      1.0  0.06302  0.80203  0.37041  1.0000
  C   C854      1.0  0.06020  0.86352  0.31830  1.0000
  C   C855      1.0  0.04993  0.87202  0.30695  1.0000
  C   C856      1.0  0.03498  0.86248  0.30282  1.0000
  C   C857      1.0  0.03039  0.84441  0.30977  1.0000
  C   C858      1.0  0.04057  0.83587  0.32120  1.0000
  C   C859      1.0  0.07961  0.84812  0.35676  1.0000
  C   C860      1.0  0.09655  0.84849  0.35785  1.0000
  C   C861      1.0  0.10479  0.85874  0.37085  1.0000
  C   C862      1.0  0.09604  0.86829  0.38334  1.0000
  C   C863      1.0  0.07904  0.86758  0.38287  1.0000
  C   C864      1.0  0.07085  0.85756  0.36962  1.0000
  H   H672      1.0  0.11986  0.84815  0.27726  1.0000
  H   H673      1.0  0.11436  0.81847  0.27024  1.0000
  H   H674      1.0  0.08858  0.79595  0.29331  1.0000
  H   H675      1.0  0.06842  0.80261  0.32349  1.0000
  H   H676      1.0  0.09990  0.85509  0.30774  1.0000
  H   H677      1.0  0.03384  0.82597  0.36999  1.0000
  H   H678      1.0  0.01725  0.80116  0.40153  1.0000
  H   H679      1.0  0.02995  0.77706  0.41436  1.0000
  H   H680      1.0  0.05934  0.77770  0.39446  1.0000
  H   H681      1.0  0.07579  0.80214  0.36199  1.0000
  H   H682      1.0  0.07173  0.87116  0.32134  1.0000
  H   H683      1.0  0.05330  0.88605  0.30177  1.0000
  H   H684      1.0  0.02682  0.86912  0.29454  1.0000
  H   H685      1.0  0.01877  0.83701  0.30665  1.0000
  H   H686      1.0  0.03663  0.82187  0.32663  1.0000
  H   H687      1.0  0.10336  0.84075  0.34894  1.0000
  H   H688      1.0  0.11793  0.85919  0.37133  1.0000
  H   H689      1.0  0.10234  0.87619  0.39353  1.0000
  H   H690      1.0  0.07215  0.87468  0.39297  1.0000
  H   H691      1.0  0.05760  0.85703  0.36970  1.0000
  H   H692      1.0  0.10748  0.53823  0.41460  1.0000
  C   C865      1.0  0.17711  0.71185  0.07017  1.0000
  C   C866      1.0  0.04298  0.49951  0.17478  1.0000
  C   C867      1.0  0.04963  0.64703  0.37565  1.0000
  C   C868      1.0  0.00575  0.96697  0.99031  1.0000
  H   H693      1.0  0.16321  0.82460  0.45131  1.0000
  C   C869      1.0  0.01124  0.73095  0.42219  1.0000
  H   H694      1.0  0.08052  0.73904  0.36993  1.0000
  H   H695      1.0  0.06772  0.63205  0.36747  1.0000
  C   C870      1.0  0.13178  0.65503  0.11161  1.0000
  C   C871      1.0  0.14157  0.67209  0.10253  1.0000
  C   C872      1.0  0.14430  0.68332  0.11722  1.0000
  C   C873      1.0  0.13736  0.67749  0.14100  1.0000
  C   C874      1.0  0.12768  0.66033  0.15032  1.0000
  C   C875      1.0  0.12466  0.64921  0.13537  1.0000
  P   P27       1.0  0.11800  0.65317  0.18092  1.0000
  C   C876      1.0  0.11572  0.63012  0.18998  1.0000
  C   C877      1.0  0.13190  0.66483  0.19610  1.0000
  C   C878      1.0  0.14598  0.65919  0.20134  1.0000
  C   C879      1.0  0.15706  0.66870  0.21221  1.0000
  C   C880      1.0  0.15430  0.68397  0.21774  1.0000
  C   C881      1.0  0.14040  0.68973  0.21248  1.0000
  C   C882      1.0  0.12933  0.68031  0.20156  1.0000
  C   C883      1.0  0.10088  0.61916  0.20552  1.0000
  C   C884      1.0  0.09879  0.60121  0.21097  1.0000
  C   C885      1.0  0.11140  0.59409  0.20086  1.0000
  C   C886      1.0  0.12629  0.60491  0.18570  1.0000
  C   C887      1.0  0.12850  0.62284  0.18046  1.0000
  C   C888      1.0  0.09739  0.65789  0.18633  1.0000
  C   C889      1.0  0.08907  0.66108  0.16827  1.0000
  C   C890      1.0  0.07329  0.66505  0.17255  1.0000
  C   C891      1.0  0.06574  0.66597  0.19480  1.0000
  C   C892      1.0  0.07388  0.66271  0.21288  1.0000
  C   C893      1.0  0.08958  0.65857  0.20872  1.0000
  H   H696      1.0  0.12986  0.64625  0.10026  1.0000
  H   H697      1.0  0.14704  0.67658  0.08412  1.0000
  H   H698      1.0  0.15190  0.69656  0.11025  1.0000
  H   H699      1.0  0.13965  0.68639  0.15205  1.0000
  H   H700      1.0  0.11696  0.63599  0.14198  1.0000
  H   H701      1.0  0.14878  0.64776  0.19656  1.0000
  H   H702      1.0  0.16814  0.66451  0.21567  1.0000
  H   H703      1.0  0.16312  0.69158  0.22563  1.0000
  H   H704      1.0  0.13849  0.70176  0.21643  1.0000
  H   H705      1.0  0.11901  0.68536  0.19702  1.0000
  H   H706      1.0  0.09078  0.62432  0.21317  1.0000
  H   H707      1.0  0.08724  0.59274  0.22268  1.0000
  H   H708      1.0  0.10961  0.58017  0.20456  1.0000
  H   H709      1.0  0.13596  0.59936  0.17757  1.0000
  H   H710      1.0  0.14001  0.63101  0.16842  1.0000
  H   H711      1.0  0.09474  0.66056  0.15087  1.0000
  H   H712      1.0  0.06689  0.66747  0.15860  1.0000
  H   H713      1.0  0.05356  0.66917  0.19808  1.0000
  H   H714      1.0  0.06803  0.66344  0.23014  1.0000
  H   H715      1.0  0.09573  0.65606  0.22293  1.0000
  H   H716      1.0  0.16285  0.74803  0.05971  1.0000
  H   H717      1.0  0.05843  0.69098  0.35728  1.0000
  C   C894      1.0  0.07607  0.56687  0.00289  1.0000
  H   H718      1.0  0.07160  0.55654  0.06143  1.0000
  H   H719      1.0  0.07607  0.95506  0.33536  1.0000
  H   H720      1.0  0.98593  0.94551  0.98871  1.0000
  S   S122      1.0  0.98963  0.71489  0.07652  1.0000
  C   C895      1.0  0.03208  0.76192  0.99024  1.0000
  C   C896      1.0  0.06109  0.77987  0.02567  1.0000
  C   C897      1.0  0.03290  0.62856  0.42403  1.0000
  P   P28       1.0  0.05701  0.78844  0.99798  1.0000
  C   C898      1.0  0.00755  0.73513  0.40037  1.0000
  C   C899      1.0  0.02910  0.62789  0.02180  1.0000
  C   C900      1.0  0.15475  0.83036  0.44254  1.0000
  H   H721      1.0  0.17424  0.69202  0.05076  1.0000
  C   C901      1.0  0.06252  0.94958  0.34249  1.0000
  H   H722      1.0  0.08593  0.68673  0.33826  1.0000
  H   H723      1.0  0.07670  0.69929  0.97338  1.0000
  C   C902      1.0  0.07548  0.56916  0.02549  1.0000
  H   H724      1.0  0.03463  0.61782  0.05431  1.0000
  H   H725      1.0  0.02293  0.67704  0.98519  1.0000
  C   C903      1.0  0.03586  0.60844  0.38912  1.0000
  C   C904      1.0  0.08165  0.98831  0.34871  1.0000
  H   H726      1.0  0.07510  0.50834  0.21349  1.0000
  H   H727      1.0  0.03167  0.57446  0.44788  1.0000
  P   P29       1.0  0.01822  0.72871  0.37573  1.0000
  C   C905      1.0  0.00440  0.71042  0.36956  1.0000
  C   C906      1.0  0.02324  0.74739  0.35185  1.0000
  C   C907      1.0  0.01851  0.74596  0.33101  1.0000
  C   C908      1.0  0.02069  0.76083  0.31375  1.0000
  C   C909      1.0  0.02784  0.77717  0.31701  1.0000
  C   C910      1.0  0.03259  0.77869  0.33771  1.0000
  C   C911      1.0  0.03030  0.76387  0.35503  1.0000
  C   C912      1.0  0.01155  0.70005  0.35652  1.0000
  C   C913      1.0  0.16860  0.64161  0.12845  1.0000
  C   C914      1.0  0.15700  0.84827  0.43815  1.0000
  C   C915      1.0  0.99616  0.92314  0.45406  1.0000
  C   C916      1.0  0.00189  0.76398  0.09822  1.0000
  C   C917      1.0  0.03733  0.72297  0.38134  1.0000
  C   C918      1.0  0.05350  0.73460  0.37224  1.0000
  C   C919      1.0  0.06806  0.73010  0.37733  1.0000
  C   C920      1.0  0.06665  0.71399  0.39148  1.0000
  C   C921      1.0  0.05063  0.70228  0.40051  1.0000
  C   C922      1.0  0.03602  0.70669  0.39538  1.0000
  C   C923      1.0  0.99665  0.63996  0.35957  1.0000
  C   C924      1.0  0.02263  0.61374  0.46462  1.0000
  C   C925      1.0  0.02509  0.74616  0.08093  1.0000
  H   H728      1.0  0.01470  0.95920  0.99272  1.0000
  H   H729      1.0  0.05508  0.74704  0.36086  1.0000
  H   H730      1.0  0.01314  0.73346  0.32797  1.0000
  H   H731      1.0  0.01655  0.75970  0.29794  1.0000
  H   H732      1.0  0.02909  0.78863  0.30379  1.0000
  H   H733      1.0  0.03742  0.79136  0.34067  1.0000
  H   H734      1.0  0.03359  0.76520  0.37119  1.0000
  H   H735      1.0  0.02527  0.70275  0.35049  1.0000
  C   C926      1.0  0.98711  0.77679  0.13833  1.0000
  C   C927      1.0  0.17899  0.63347  0.16953  1.0000
  H   H736      1.0  0.15764  0.50694  0.22395  1.0000
  H   H737      1.0  0.99016  0.71413  0.13148  1.0000
  H   H738      1.0  0.05870  0.96933  0.30162  1.0000
  H   H739      1.0  0.05787  0.82652  0.40933  1.0000
  H   H740      1.0  0.07616  0.83817  0.46825  1.0000
  C   C928      1.0  0.07168  0.55477  0.04407  1.0000
  P   P30       1.0  0.06042  0.98328  0.34332  1.0000
  H   H741      1.0  0.01262  0.84366  0.04931  1.0000
  H   H742      1.0  0.99098  0.94744  0.38056  1.0000
  H   H743      1.0  0.02111  0.60429  0.98188  1.0000
  H   H744      1.0  0.02865  0.95643  0.40179  1.0000
  H   H745      1.0  0.16195  0.77002  0.00004  1.0000
  C   C929      1.0  0.01195  0.63756  0.36476  1.0000
  C   C930      1.0  0.07557  0.61209  0.99816  1.0000
  H   H746      1.0  0.06553  0.52687  0.05462  1.0000
  C   C931      1.0  0.98432  0.78110  0.31289  1.0000
  C   C932      1.0  0.09654  0.78333  0.44981  1.0000
  H   H747      1.0  0.99956  0.63780  0.02661  1.0000
  C   C933      1.0  0.03848  0.74042  0.96943  1.0000
  C   C934      1.0  0.09011  0.80988  0.98842  1.0000
  H   H748      1.0  0.02871  0.52462  0.30377  1.0000
  H   H749      1.0  0.10696  0.97067  0.37965  1.0000
  C   C935      1.0  0.17978  0.49751  0.22694  1.0000
  C   C936      1.0  0.98546  0.93016  0.33612  1.0000
  H   H750      1.0  0.18225  0.56752  0.18415  1.0000
  H   H751      1.0  0.16721  0.85630  0.44351  1.0000
  C   C937      1.0  0.98655  0.70713  0.37613  1.0000
  C   C938      1.0  0.06619  0.68838  0.97414  1.0000
  H   H752      1.0  0.08847  0.79056  0.45765  1.0000
  H   H753      1.0  0.98801  0.82248  0.32074  1.0000
  H   H754      1.0  0.98645  0.77763  0.20272  1.0000
  H   H755      1.0  0.02255  0.76652  0.00036  1.0000
  C   C939      1.0  0.99174  0.74669  0.43765  1.0000
  H   H756      1.0  0.07501  0.76905  0.96995  1.0000
  C   C940      1.0  0.98940  0.95926  0.98804  1.0000
  Fe  Fe61      1.0  0.11844  0.99209  0.42684  1.0000
  C   C941      1.0  0.18125  0.65098  0.15891  1.0000
  H   H757      1.0  0.10133  0.74218  0.45710  1.0000
  C   C942      1.0  0.10528  0.82068  0.97373  1.0000
  C   C943      1.0  0.99499  0.79737  0.08952  1.0000
  H   H758      1.0  0.99615  0.76689  0.06437  1.0000
  H   H759      1.0  0.98750  0.76020  0.33771  1.0000
  H   H760      1.0  0.12995  0.58190  0.46579  1.0000
  C   C944      1.0  0.16272  0.49767  0.23405  1.0000
  H   H761      1.0  0.10135  0.82733  0.45634  1.0000
  H   H762      1.0  0.98669  0.95713  0.20503  1.0000
  H   H763      1.0  0.03319  0.83874  0.97646  1.0000
  C   C945      1.0  0.02749  0.49863  0.29994  1.0000
  C   C946      1.0  0.05873  0.98394  0.08518  1.0000
  C   C947      1.0  0.99209  0.78416  0.34935  1.0000
  Fe  Fe62      1.0  0.99264  0.98978  0.30229  1.0000
  H   H764      1.0  0.98728  0.90384  0.34404  1.0000
  C   C948      1.0  0.06959  0.98850  0.99331  1.0000
  C   C949      1.0  0.07774  0.83327  0.45268  1.0000
  C   C950      1.0  0.10625  0.90216  0.45217  1.0000
  H   H765      1.0  0.18003  0.89099  0.45597  1.0000
  C   C951      1.0  0.08037  0.99056  0.97154  1.0000
  H   H766      1.0  0.98607  0.64292  0.28853  1.0000
  H   H767      1.0  0.03414  0.49702  0.16380  1.0000
  P   P31       1.0  0.98726  0.77598  0.10860  1.0000
  H   H768      1.0  0.99762  0.80461  0.13155  1.0000
  C   C952      1.0  0.04866  0.98934  0.04998  1.0000
  S   S123      1.0  0.09919  0.49919  0.30101  1.0000
  C   C953      1.0  0.04962  0.99170  0.38537  1.0000
  Fe  Fe63      1.0  0.08714  0.97204  0.46511  1.0000
  H   H769      1.0  0.17992  0.58982  0.06312  1.0000
  H   H770      1.0  0.98357  0.80304  0.98880  1.0000
  C   C954      1.0  0.99298  0.79253  0.14445  1.0000
  H   H771      1.0  0.99734  0.80494  0.17230  1.0000
  H   H772      1.0  0.18011  0.61752  0.07484  1.0000
  Fe  Fe64      1.0  0.12206  0.96566  0.46715  1.0000
  C   C955      1.0  0.18222  0.90453  0.45635  1.0000
  C   C956      1.0  0.98655  0.77747  0.18478  1.0000
  S   S124      1.0  0.98524  0.86008  0.35092  1.0000
  C   C957      1.0  0.98433  0.80522  0.07796  1.0000
  C   C958      1.0  0.04997  0.49389  0.21238  1.0000
  S   S125      1.0  0.00965  0.99227  0.09269  1.0000
  C   C959      1.0  0.04696  0.99166  0.36305  1.0000
  H   H773      1.0  0.18316  0.63025  0.18536  1.0000
  C   C960      1.0  0.98353  0.71369  0.14884  1.0000
  C   C961      1.0  0.98355  0.77654  0.00274  1.0000
  S   S126      1.0  0.98361  0.74290  0.01988  1.0000
  H   H774      1.0  0.12131  0.51087  0.69142  1.0000
  H   H775      1.0  0.99763  0.49470  0.96242  1.0000
  S   S127      1.0  0.14050  0.95698  0.48848  1.0000
  C   C962      1.0  0.12642  0.57303  0.95269  1.0000
  H   H776      1.0  0.16140  0.50799  0.91330  1.0000
  H   H777      1.0  0.99311  0.57096  0.79289  1.0000
  C   C963      1.0  0.03665  0.51634  0.87042  1.0000
  S   S128      1.0  0.02876  0.87429  0.94813  1.0000
  C   C964      1.0  0.00073  0.93324  0.93659  1.0000
  H   H778      1.0  0.98965  0.55684  0.50741  1.0000
  C   C965      1.0  0.17021  0.49493  0.94135  1.0000
  C   C966      1.0  0.00975  0.87703  0.85928  1.0000
  C   C967      1.0  0.01840  0.62525  0.91120  1.0000
  C   C968      1.0  0.09574  0.52035  0.51328  1.0000
  S   S129      1.0  0.01404  0.96171  0.57405  1.0000
  H   H779      1.0  0.98967  0.85134  0.51432  1.0000
  H   H780      1.0  0.14612  0.62151  0.88786  1.0000
  H   H781      1.0  0.17186  0.56050  0.68384  1.0000
  C   C969      1.0  0.01343  0.94803  0.93555  1.0000
  H   H782      1.0  0.03192  0.55583  0.87700  1.0000
  Fe  Fe65      1.0  0.09095  0.97065  0.89003  1.0000
  S   S130      1.0  0.06736  0.95445  0.91713  1.0000
  S   S131      1.0  0.10403  0.96975  0.85433  1.0000
  C   C970      1.0  0.98645  0.85307  0.47948  1.0000
  C   C971      1.0  0.99460  0.55852  0.48906  1.0000
  C   C972      1.0  0.15683  0.66118  0.85077  1.0000
  H   H783      1.0  0.04142  0.64551  0.89622  1.0000
  S   S132      1.0  0.15599  0.75531  0.91412  1.0000
  C   C973      1.0  0.05605  0.55333  0.55409  1.0000
  S   S133      1.0  0.11515  0.67011  0.94456  1.0000
  H   H784      1.0  0.00130  0.95610  0.85498  1.0000
  Fe  Fe66      1.0  0.16730  0.62115  0.64949  1.0000
  S   S134      1.0  0.14171  0.62154  0.64167  1.0000
  C   C974      1.0  0.15884  0.64647  0.86498  1.0000
  C   C975      1.0  0.10345  0.49451  0.85984  1.0000
  S   S135      1.0  0.15642  0.66386  0.62530  1.0000
  H   H785      1.0  0.13952  0.57680  0.91715  1.0000
  Fe  Fe67      1.0  0.14363  0.64403  0.65871  1.0000
  S   S136      1.0  0.12112  0.64821  0.68278  1.0000
  Fe  Fe68      1.0  0.15656  0.64102  0.60898  1.0000
  S   S137      1.0  0.15322  0.64142  0.57202  1.0000
  S   S138      1.0  0.16822  0.64252  0.66885  1.0000
  C   C976      1.0  0.04218  0.53900  0.55765  1.0000
  C   C977      1.0  0.00634  0.92339  0.50278  1.0000
  Fe  Fe69      1.0  0.08635  0.59982  0.49929  1.0000
  C   C978      1.0  0.02586  0.95576  0.91514  1.0000
  S   S139      1.0  0.09183  0.60044  0.53523  1.0000
  C   C979      1.0  0.11695  0.58619  0.91985  1.0000
  S   S140      1.0  0.11544  0.98167  0.89948  1.0000
  C   C980      1.0  0.09875  0.50296  0.91905  1.0000
  S   S141      1.0  0.06612  0.61193  0.48786  1.0000
  S   S142      1.0  0.07303  0.57321  0.49625  1.0000
  Fe  Fe70      1.0  0.06865  0.62657  0.85818  1.0000
  S   S143      1.0  0.09026  0.61513  0.84748  1.0000
  S   S144      1.0  0.07356  0.65245  0.86876  1.0000
  Fe  Fe71      1.0  0.04171  0.59572  0.85212  1.0000
  S   S145      1.0  0.06168  0.58199  0.84139  1.0000
  S   S146      1.0  0.01298  0.58218  0.86282  1.0000
  Fe  Fe72      1.0  0.07315  0.59018  0.86971  1.0000
  S   S147      1.0  0.08619  0.57401  0.89101  1.0000
  Fe  Fe73      1.0  0.07759  0.60797  0.81944  1.0000
  S   S148      1.0  0.09684  0.60662  0.78808  1.0000
  S   S149      1.0  0.05226  0.60199  0.88254  1.0000
  S   S150      1.0  0.05681  0.62153  0.82816  1.0000
  C   C981      1.0  0.16713  0.87033  0.49911  1.0000
  C   C982      1.0  0.99807  0.57342  0.84718  1.0000
  C   C983      1.0  0.13737  0.98825  0.78341  1.0000
  H   H786      1.0  0.13907  0.54174  0.89955  1.0000
  C   C984      1.0  0.00225  0.57560  0.82313  1.0000
  H   H787      1.0  0.01636  0.49453  0.87122  1.0000
  H   H788      1.0  0.01499  0.58270  0.81340  1.0000
  C   C985      1.0  0.07244  0.55679  0.91268  1.0000
  C   C986      1.0  0.05479  0.55424  0.91635  1.0000
  C   C987      1.0  0.04391  0.54040  0.93375  1.0000
  C   C988      1.0  0.05068  0.52912  0.94755  1.0000
  C   C989      1.0  0.06836  0.53159  0.94377  1.0000
  C   C990      1.0  0.07925  0.54545  0.92635  1.0000
  H   H789      1.0  0.04951  0.56301  0.90589  1.0000
  H   H790      1.0  0.02287  0.90414  0.96486  1.0000
  H   H791      1.0  0.09294  0.54741  0.92349  1.0000
  H   H792      1.0  0.05290  0.61674  0.92767  1.0000
  C   C991      1.0  0.08095  0.52156  0.83697  1.0000
  H   H793      1.0  0.16799  0.67164  0.84192  1.0000
  C   C992      1.0  0.15650  0.83995  0.50013  1.0000
  S   S151      1.0  0.01142  0.98721  0.82256  1.0000
  C   C993      1.0  0.15726  0.96848  0.49933  1.0000
  C   C994      1.0  0.11231  0.57508  0.96765  1.0000
  H   H794      1.0  0.01468  0.60268  0.47795  1.0000
  C   C995      1.0  0.00585  0.61674  0.93130  1.0000
  C   C996      1.0  0.11464  0.63693  0.71216  1.0000
  C   C997      1.0  0.12237  0.62429  0.72086  1.0000
  C   C998      1.0  0.11666  0.61516  0.74413  1.0000
  C   C999      1.0  0.10329  0.61866  0.75901  1.0000
  C   C1000     1.0  0.09570  0.63151  0.75045  1.0000
  C   C1001     1.0  0.10136  0.64059  0.72706  1.0000
  H   H795      1.0  0.13264  0.62142  0.70957  1.0000
  H   H796      1.0  0.12263  0.60527  0.75064  1.0000
  H   H797      1.0  0.08533  0.63425  0.76169  1.0000
  H   H798      1.0  0.09531  0.65035  0.72041  1.0000
  C   C1002     1.0  0.13584  0.63011  0.56221  1.0000
  C   C1003     1.0  0.12112  0.61895  0.57749  1.0000
  C   C1004     1.0  0.10766  0.61039  0.56886  1.0000
  C   C1005     1.0  0.10878  0.61264  0.54490  1.0000
  C   C1006     1.0  0.12346  0.62386  0.52962  1.0000
  C   C1007     1.0  0.13690  0.63249  0.53825  1.0000
  H   H799      1.0  0.12005  0.61704  0.59595  1.0000
  H   H800      1.0  0.09624  0.60205  0.58086  1.0000
  H   H801      1.0  0.12452  0.62579  0.51117  1.0000
  H   H802      1.0  0.14819  0.64114  0.52626  1.0000
  H   H803      1.0  0.14025  0.60185  0.48990  1.0000
  C   C1008     1.0  0.08408  0.65666  0.89109  1.0000
  C   C1009     1.0  0.09076  0.64434  0.90313  1.0000
  C   C1010     1.0  0.10002  0.64860  0.91967  1.0000
  C   C1011     1.0  0.10243  0.66508  0.92468  1.0000
  C   C1012     1.0  0.09510  0.67713  0.91337  1.0000
  C   C1013     1.0  0.08613  0.67298  0.89651  1.0000
  H   H804      1.0  0.08911  0.63167  0.89930  1.0000
  H   H805      1.0  0.10554  0.63914  0.92842  1.0000
  H   H806      1.0  0.09667  0.68979  0.91721  1.0000
  H   H807      1.0  0.08090  0.68256  0.88743  1.0000
  C   C1014     1.0  0.17788  0.58049  0.65259  1.0000
  C   C1015     1.0  0.16066  0.68261  0.71040  1.0000
  C   C1016     1.0  0.12871  0.57854  0.92878  1.0000
  C   C1017     1.0  0.98634  0.87625  0.49960  1.0000
  P   P32       1.0  0.09138  0.50666  0.87534  1.0000
  C   C1018     1.0  0.09305  0.49857  0.48222  1.0000
  C   C1019     1.0  0.16069  0.98637  0.49758  1.0000
  H   H808      1.0  0.03621  0.49661  0.93021  1.0000
  C   C1020     1.0  0.06489  0.58690  0.96426  1.0000
  C   C1021     1.0  0.13967  0.86008  0.49051  1.0000
  C   C1022     1.0  0.16973  0.70450  0.81004  1.0000
  C   C1023     1.0  0.18196  0.73483  0.59881  1.0000
  C   C1024     1.0  0.10323  0.50635  0.51510  1.0000
  H   H809      1.0  0.06526  0.51348  0.90897  1.0000
  H   H810      1.0  0.12589  0.92994  0.53837  1.0000
  C   C1025     1.0  0.05371  0.96495  0.52139  1.0000
  C   C1026     1.0  0.04334  0.96238  0.54360  1.0000
  C   C1027     1.0  0.02699  0.96525  0.54624  1.0000
  C   C1028     1.0  0.06180  0.94504  0.83648  1.0000
  S   S152      1.0  0.11430  0.71992  0.94537  1.0000
  H   H811      1.0  0.06624  0.96259  0.51937  1.0000
  H   H812      1.0  0.04790  0.95801  0.55875  1.0000
  H   H813      1.0  0.17731  0.76220  0.83432  1.0000
  C   C1029     1.0  0.03942  0.89659  0.93895  1.0000
  C   C1030     1.0  0.03384  0.90851  0.95038  1.0000
  C   C1031     1.0  0.04281  0.92607  0.94360  1.0000
  C   C1032     1.0  0.05710  0.93205  0.92487  1.0000
  C   C1033     1.0  0.06261  0.92020  0.91317  1.0000
  C   C1034     1.0  0.05386  0.90246  0.92035  1.0000
  H   H814      1.0  0.05395  0.56582  0.55574  1.0000
  C   C1035     1.0  0.13247  0.58883  0.49804  1.0000
  H   H815      1.0  0.07365  0.92465  0.89879  1.0000
  H   H816      1.0  0.05825  0.89329  0.91146  1.0000
  C   C1036     1.0  0.10322  0.51294  0.89619  1.0000
  Fe  Fe74      1.0  0.12126  0.69513  0.95720  1.0000
  H   H817      1.0  0.11720  0.62347  0.88360  1.0000
  C   C1037     1.0  0.03725  0.57463  0.95706  1.0000
  H   H818      1.0  0.12529  0.98844  0.79400  1.0000
  P   P33       1.0  0.09706  0.53440  0.53328  1.0000
  S   S153      1.0  0.02562  0.57268  0.49748  1.0000
  H   H819      1.0  0.99037  0.91483  0.91807  1.0000
  C   C1038     1.0  0.16978  0.97148  0.68634  1.0000
  C   C1039     1.0  0.08033  0.97645  0.96130  1.0000
  C   C1040     1.0  0.07565  0.53604  0.54393  1.0000
  C   C1041     1.0  0.00002  0.92466  0.54311  1.0000
  H   H820      1.0  0.17223  0.97332  0.78804  1.0000
  H   H821      1.0  0.16383  0.93338  0.47893  1.0000
  H   H822      1.0  0.17705  0.75613  0.94811  1.0000
  C   C1042     1.0  0.06077  0.95464  0.81535  1.0000
  H   H823      1.0  0.13191  0.83268  0.49220  1.0000
  H   H824      1.0  0.03538  0.95522  0.88018  1.0000
  H   H825      1.0  0.00414  0.92871  0.55778  1.0000
  H   H826      1.0  0.98632  0.51448  0.92367  1.0000
  C   C1043     1.0  0.07270  0.55183  0.54737  1.0000
  Fe  Fe75      1.0  0.99544  0.99008  0.79593  1.0000
  C   C1044     1.0  0.08417  0.55228  0.82352  1.0000
  H   H827      1.0  0.12825  0.86227  0.48556  1.0000
  Fe  Fe76      1.0  0.12845  0.98328  0.86265  1.0000
  H   H828      1.0  0.98762  0.84011  0.47906  1.0000
  C   C1045     1.0  0.17720  0.72483  0.70992  1.0000
  S   S154      1.0  0.98495  0.88633  0.96260  1.0000
  H   H829      1.0  0.07365  0.52288  0.95431  1.0000
  C   C1046     1.0  0.16557  0.73659  0.59752  1.0000
  H   H830      1.0  0.02648  0.56360  0.95942  1.0000
  H   H831      1.0  0.99962  0.97724  0.66953  1.0000
  H   H832      1.0  0.99498  0.53709  0.79699  1.0000
  C   C1047     1.0  0.14087  0.91514  0.55504  1.0000
  C   C1048     1.0  0.04063  0.98807  0.83775  1.0000
  H   H833      1.0  0.13552  0.56712  0.95970  1.0000
  H   H834      1.0  0.13847  0.72584  0.61120  1.0000
  C   C1049     1.0  0.00908  0.86698  0.88095  1.0000
  H   H835      1.0  0.15828  0.96275  0.68482  1.0000
  H   H836      1.0  0.08290  0.56305  0.81096  1.0000
  H   H837      1.0  0.16504  0.94547  0.51173  1.0000
  C   C1050     1.0  0.04499  0.52310  0.55473  1.0000
  H   H838      1.0  0.13036  0.91925  0.50299  1.0000
  C   C1051     1.0  0.01104  0.89239  0.89704  1.0000
  H   H839      1.0  0.07415  0.94509  0.84027  1.0000
  H   H840      1.0  0.16393  0.74691  0.58474  1.0000
  C   C1052     1.0  0.12292  0.52129  0.92790  1.0000
  H   H841      1.0  0.03023  0.53845  0.93654  1.0000
  C   C1053     1.0  0.01297  0.93376  0.89661  1.0000
  C   C1054     1.0  0.01171  0.92814  0.52191  1.0000
  H   H842      1.0  0.00198  0.54137  0.88004  1.0000
  C   C1055     1.0  0.09382  0.81651  0.94042  1.0000
  H   H843      1.0  0.02685  0.97783  0.48948  1.0000
  C   C1056     1.0  0.16926  0.71012  0.63145  1.0000
  H   H844      1.0  0.03357  0.62651  0.48871  1.0000
  H   H845      1.0  0.09524  0.81916  0.92183  1.0000
  C   C1057     1.0  0.99078  0.52347  0.83249  1.0000
  C   C1058     1.0  0.10031  0.58257  0.95877  1.0000
  C   C1059     1.0  0.03196  0.63868  0.91195  1.0000
  H   H846      1.0  0.13037  0.52457  0.94026  1.0000
  H   H847      1.0  0.13184  0.53528  0.53799  1.0000
  C   C1060     1.0  0.08815  0.52465  0.85569  1.0000
  C   C1061     1.0  0.14094  0.51345  0.66127  1.0000
  H   H848      1.0  0.98736  0.88091  0.51509  1.0000
  C   C1062     1.0  0.05210  0.60455  0.93918  1.0000
  C   C1063     1.0  0.98833  0.50531  0.50210  1.0000
  H   H849      1.0  0.16459  0.72414  0.89857  1.0000
  C   C1064     1.0  0.10548  0.52564  0.55712  1.0000
  S   S155      1.0  0.15251  0.97374  0.85578  1.0000
  H   H850      1.0  0.11333  0.56311  0.55140  1.0000
  S   S156      1.0  0.99250  0.98325  0.71526  1.0000
  C   C1065     1.0  0.18303  0.76703  0.93354  1.0000
  H   H851      1.0  0.12694  0.49617  0.80632  1.0000
  C   C1066     1.0  0.02086  0.63475  0.95318  1.0000
  C   C1067     1.0  0.07014  0.49396  0.89053  1.0000
  C   C1068     1.0  0.15297  0.71140  0.62936  1.0000
  C   C1069     1.0  0.98380  0.88683  0.48007  1.0000
  C   C1070     1.0  0.15224  0.65386  0.73548  1.0000
  C   C1071     1.0  0.13857  0.65807  0.74847  1.0000
  C   C1072     1.0  0.13594  0.67457  0.74254  1.0000
  C   C1073     1.0  0.14713  0.68707  0.72363  1.0000
  C   C1074     1.0  0.08561  0.51248  0.48027  1.0000
  P   P34       1.0  0.14311  0.70797  0.71467  1.0000
  C   C1075     1.0  0.16325  0.72326  0.69947  1.0000
  C   C1076     1.0  0.12813  0.70646  0.69629  1.0000
  C   C1077     1.0  0.12125  0.72047  0.68984  1.0000
  C   C1078     1.0  0.10932  0.71922  0.67606  1.0000
  C   C1079     1.0  0.10405  0.70392  0.66885  1.0000
  C   C1080     1.0  0.11074  0.68990  0.67540  1.0000
  C   C1081     1.0  0.12278  0.69118  0.68899  1.0000
  H   H852      1.0  0.15824  0.82695  0.50263  1.0000
  C   C1082     1.0  0.98611  0.97629  0.67434  1.0000
  C   C1083     1.0  0.02561  0.94876  0.89571  1.0000
  C   C1084     1.0  0.13333  0.71440  0.73995  1.0000
  C   C1085     1.0  0.14295  0.72576  0.75059  1.0000
  C   C1086     1.0  0.13502  0.73047  0.77011  1.0000
  C   C1087     1.0  0.11744  0.72398  0.77911  1.0000
  C   C1088     1.0  0.10776  0.71281  0.76855  1.0000
  C   C1089     1.0  0.11565  0.70798  0.74915  1.0000
  H   H853      1.0  0.99926  0.65634  0.95495  1.0000
  C   C1090     1.0  0.99087  0.94508  0.85608  1.0000
  H   H854      1.0  0.12967  0.64829  0.76267  1.0000
  H   H855      1.0  0.12495  0.67729  0.75247  1.0000
  C   C1091     1.0  0.14169  0.84321  0.49425  1.0000
  H   H856      1.0  0.12514  0.73233  0.69548  1.0000
  H   H857      1.0  0.10406  0.73006  0.67107  1.0000
  H   H858      1.0  0.09473  0.70285  0.65829  1.0000
  H   H859      1.0  0.10666  0.67796  0.66993  1.0000
  H   H860      1.0  0.12781  0.68018  0.69381  1.0000
  H   H861      1.0  0.18166  0.97712  0.64992  1.0000
  Fe  Fe77      1.0  0.00112  0.86776  0.96763  1.0000
  H   H862      1.0  0.15648  0.73120  0.74391  1.0000
  H   H863      1.0  0.14252  0.73930  0.77810  1.0000
  H   H864      1.0  0.11129  0.72767  0.79418  1.0000
  H   H865      1.0  0.09411  0.70782  0.77542  1.0000
  H   H866      1.0  0.10790  0.69917  0.74135  1.0000
  H   H867      1.0  0.16876  0.70917  0.82576  1.0000
  H   H868      1.0  0.13383  0.58343  0.69709  1.0000
  H   H869      1.0  0.05436  0.54012  0.87077  1.0000
  P   P35       1.0  0.15035  0.89587  0.48760  1.0000
  C   C1092     1.0  0.14900  0.52296  0.63878  1.0000
  C   C1093     1.0  0.03147  0.97349  0.50457  1.0000
  H   H870      1.0  0.04404  0.96231  0.79430  1.0000
  C   C1094     1.0  0.12738  0.51809  0.67386  1.0000
  H   H871      1.0  0.14988  0.98304  0.91468  1.0000
  C   C1095     1.0  0.13585  0.91432  0.51696  1.0000
  H   H872      1.0  0.11324  0.88397  0.50364  1.0000
  H   H873      1.0  0.99518  0.60652  0.93060  1.0000
  C   C1096     1.0  0.16329  0.66613  0.71648  1.0000
  C   C1097     1.0  0.14459  0.63287  0.87679  1.0000
  C   C1098     1.0  0.01955  0.50785  0.87271  1.0000
  Fe  Fe78      1.0  0.98396  0.98777  0.75115  1.0000
  C   C1099     1.0  0.11148  0.50083  0.83622  1.0000
  C   C1100     1.0  0.11721  0.56686  0.53270  1.0000
  C   C1101     1.0  0.07638  0.53391  0.62358  1.0000
  H   H874      1.0  0.17145  0.64563  0.86692  1.0000
  C   C1102     1.0  0.15356  0.89732  0.53271  1.0000
  C   C1103     1.0  0.06165  0.52161  0.54789  1.0000
  H   H875      1.0  0.13211  0.59216  0.53263  1.0000
  C   C1104     1.0  0.15098  0.90354  0.55285  1.0000
  C   C1105     1.0  0.12787  0.58336  0.52212  1.0000
  H   H876      1.0  0.17238  0.60466  0.55035  1.0000
  H   H877      1.0  0.04394  0.65391  0.93274  1.0000
  C   C1106     1.0  0.06548  0.60280  0.94987  1.0000
  H   H878      1.0  0.11171  0.55278  0.48405  1.0000
  C   C1107     1.0  0.14827  0.97979  0.79327  1.0000
  C   C1108     1.0  0.00457  0.98822  0.89717  1.0000
  C   C1109     1.0  0.15851  0.49680  0.92758  1.0000
  C   C1110     1.0  0.11609  0.56106  0.49501  1.0000
  C   C1111     1.0  0.10854  0.50718  0.93480  1.0000
  H   H879      1.0  0.02928  0.54035  0.56221  1.0000
  H   H880      1.0  0.12426  0.50789  0.60838  1.0000
  H   H881      1.0  0.03606  0.96691  0.91446  1.0000
  H   H882      1.0  0.14462  0.97342  0.81149  1.0000
  C   C1112     1.0  0.17336  0.69244  0.76942  1.0000
  H   H883      1.0  0.01199  0.89805  0.91178  1.0000
  H   H884      1.0  0.14184  0.70191  0.64055  1.0000
  S   S157      1.0  0.14876  0.70857  0.95419  1.0000
  C   C1113     1.0  0.02851  0.54239  0.87596  1.0000
  C   C1114     1.0  0.15244  0.87384  0.49283  1.0000
  Fe  Fe79      1.0  0.14130  0.73345  0.94518  1.0000
  C   C1115     1.0  0.02113  0.97084  0.52668  1.0000
  H   H885      1.0  0.15533  0.73149  0.66775  1.0000
  H   H886      1.0  0.08313  0.56327  0.54397  1.0000
  C   C1116     1.0  0.98358  0.55255  0.47529  1.0000
  C   C1117     1.0  0.16752  0.95929  0.51001  1.0000
  P   P36       1.0  0.98473  0.50603  0.87881  1.0000
  C   C1118     1.0  0.09459  0.51638  0.57850  1.0000
  C   C1119     1.0  0.12665  0.57763  0.48450  1.0000
  C   C1120     1.0  0.09240  0.54161  0.85885  1.0000
  C   C1121     1.0  0.11818  0.52657  0.88910  1.0000
  H   H887      1.0  0.09438  0.56852  0.84473  1.0000
  C   C1122     1.0  0.13319  0.89779  0.47323  1.0000
  H   H888      1.0  0.09371  0.59388  0.92736  1.0000
  C   C1123     1.0  0.16393  0.97968  0.77978  1.0000
  H   H889      1.0  0.10506  0.49930  0.95232  1.0000
  C   C1124     1.0  0.99231  0.97468  0.89373  1.0000
  H   H890      1.0  0.16088  0.78417  0.83199  1.0000
  C   C1125     1.0  0.13328  0.92049  0.53711  1.0000
  C   C1126     1.0  0.16555  0.73288  0.67676  1.0000
  H   H891      1.0  0.07705  0.50850  0.83462  1.0000
  H   H892      1.0  0.00939  0.87114  0.84462  1.0000
  H   H893      1.0  0.00863  0.97316  0.52855  1.0000
  C   C1127     1.0  0.07864  0.80571  0.95505  1.0000
  C   C1128     1.0  0.05062  0.57282  0.96780  1.0000
  H   H894      1.0  0.09292  0.50280  0.61333  1.0000
  C   C1129     1.0  0.13238  0.70450  0.88592  1.0000
  C   C1130     1.0  0.13356  0.72163  0.87537  1.0000
  C   C1131     1.0  0.13531  0.72642  0.85147  1.0000
  C   C1132     1.0  0.13605  0.71411  0.83810  1.0000
  C   C1133     1.0  0.13515  0.69692  0.84854  1.0000
  C   C1134     1.0  0.13305  0.69214  0.87264  1.0000
  P   P37       1.0  0.13762  0.68153  0.83077  1.0000
  C   C1135     1.0  0.11896  0.67502  0.81943  1.0000
  C   C1136     1.0  0.15657  0.69117  0.80755  1.0000
  C   C1137     1.0  0.15859  0.68517  0.78709  1.0000
  C   C1138     1.0  0.01205  0.56626  0.47934  1.0000
  H   H895      1.0  0.06516  0.74311  0.95566  1.0000
  H   H896      1.0  0.02785  0.59169  0.93388  1.0000
  H   H897      1.0  0.06333  0.98800  0.85052  1.0000
  C   C1139     1.0  0.11687  0.66049  0.80962  1.0000
  C   C1140     1.0  0.10228  0.65499  0.80146  1.0000
  C   C1141     1.0  0.08947  0.66371  0.80343  1.0000
  C   C1142     1.0  0.09120  0.67789  0.81367  1.0000
  C   C1143     1.0  0.10588  0.68355  0.82163  1.0000
  C   C1144     1.0  0.14050  0.66233  0.84825  1.0000
  C   C1145     1.0  0.12624  0.64867  0.86034  1.0000
  C   C1146     1.0  0.12830  0.63397  0.87443  1.0000
  H   H898      1.0  0.00819  0.85326  0.88322  1.0000
  H   H899      1.0  0.15392  0.64088  0.73967  1.0000
  H   H900      1.0  0.04644  0.50959  0.86718  1.0000
  H   H901      1.0  0.13090  0.70075  0.90449  1.0000
  H   H902      1.0  0.13316  0.73117  0.88579  1.0000
  H   H903      1.0  0.13617  0.73970  0.84337  1.0000
  H   H904      1.0  0.13758  0.71800  0.81958  1.0000
  H   H905      1.0  0.13194  0.67894  0.88139  1.0000
  H   H906      1.0  0.14896  0.67477  0.78469  1.0000
  H   H907      1.0  0.16143  0.96779  0.72308  1.0000
  C   C1147     1.0  0.16919  0.85352  0.50260  1.0000
  H   H908      1.0  0.01398  0.95322  0.95073  1.0000
  H   H909      1.0  0.16920  0.69760  0.88655  1.0000
  H   H910      1.0  0.12625  0.65301  0.80889  1.0000
  H   H911      1.0  0.10063  0.64357  0.79433  1.0000
  H   H912      1.0  0.07791  0.65908  0.79778  1.0000
  H   H913      1.0  0.08082  0.68402  0.81634  1.0000
  H   H914      1.0  0.10658  0.69413  0.83026  1.0000
  H   H915      1.0  0.11346  0.64939  0.85906  1.0000
  C   C1148     1.0  0.03331  0.64340  0.93282  1.0000
  H   H916      1.0  0.17748  0.78594  0.88154  1.0000
  H   H917      1.0  0.00478  0.52842  0.50662  1.0000
  C   C1149     1.0  0.98917  0.91498  0.50479  1.0000
  C   C1150     1.0  0.08464  0.56126  0.59538  1.0000
  C   C1151     1.0  0.04483  0.95468  0.81058  1.0000
  C   C1152     1.0  0.03801  0.59046  0.94270  1.0000
  C   C1153     1.0  0.09187  0.53816  0.63024  1.0000
  C   C1154     1.0  0.10394  0.55395  0.61930  1.0000
  C   C1155     1.0  0.10015  0.56549  0.60189  1.0000
  P   P38       1.0  0.12322  0.56056  0.62917  1.0000
  C   C1156     1.0  0.11900  0.57241  0.65122  1.0000
  C   C1157     1.0  0.13001  0.54191  0.64138  1.0000
  C   C1158     1.0  0.14369  0.53720  0.62891  1.0000
  H   H918      1.0  0.08868  0.97810  0.94452  1.0000
  C   C1159     1.0  0.11614  0.89078  0.48565  1.0000
  C   C1160     1.0  0.10715  0.82397  0.94975  1.0000
  C   C1161     1.0  0.12192  0.53225  0.66397  1.0000
  C   C1162     1.0  0.10565  0.58065  0.65232  1.0000
  C   C1163     1.0  0.10227  0.58946  0.66977  1.0000
  C   C1164     1.0  0.11222  0.59022  0.68614  1.0000
  C   C1165     1.0  0.12569  0.58231  0.68493  1.0000
  C   C1166     1.0  0.12910  0.57347  0.66753  1.0000
  C   C1167     1.0  0.13954  0.57408  0.60457  1.0000
  C   C1168     1.0  0.14132  0.56940  0.58315  1.0000
  C   C1169     1.0  0.15332  0.58025  0.56372  1.0000
  C   C1170     1.0  0.16342  0.59594  0.56548  1.0000
  C   C1171     1.0  0.16188  0.60053  0.58679  1.0000
  C   C1172     1.0  0.15011  0.58958  0.60633  1.0000
  H   H919      1.0  0.08176  0.57046  0.58221  1.0000
  H   H920      1.0  0.09427  0.52920  0.64403  1.0000
  H   H921      1.0  0.10902  0.57797  0.59367  1.0000
  H   H922      1.0  0.15064  0.54464  0.61180  1.0000
  C   C1173     1.0  0.17236  0.98621  0.83742  1.0000
  H   H923      1.0  0.99139  0.92704  0.95266  1.0000
  C   C1174     1.0  0.14597  0.90262  0.51456  1.0000
  H   H924      1.0  0.11156  0.53584  0.67409  1.0000
  H   H925      1.0  0.09791  0.58049  0.63968  1.0000
  H   H926      1.0  0.09214  0.59602  0.67038  1.0000
  H   H927      1.0  0.10975  0.59731  0.69938  1.0000
  H   H928      1.0  0.13982  0.56774  0.66660  1.0000
  H   H929      1.0  0.13333  0.55744  0.58147  1.0000
  H   H930      1.0  0.03212  0.98189  0.85446  1.0000
  C   C1175     1.0  0.17158  0.97448  0.70796  1.0000
  H   H931      1.0  0.16964  0.61276  0.58808  1.0000
  H   H932      1.0  0.14926  0.59332  0.62268  1.0000
  C   C1176     1.0  0.07903  0.53533  0.82093  1.0000
  C   C1177     1.0  0.00247  0.51969  0.49526  1.0000
  H   H933      1.0  0.06705  0.52176  0.63214  1.0000
  H   H934      1.0  0.07366  0.53295  0.80636  1.0000
  H   H935      1.0  0.03869  0.93508  0.95304  1.0000
  C   C1178     1.0  0.01145  0.53405  0.87789  1.0000
  C   C1179     1.0  0.01085  0.89471  0.85653  1.0000
  C   C1180     1.0  0.01132  0.90249  0.87544  1.0000
  H   H936      1.0  0.02495  0.93474  0.52024  1.0000
  P   P39       1.0  0.01188  0.92517  0.87118  1.0000
  H   H937      1.0  0.17079  0.69973  0.64433  1.0000
  C   C1181     1.0  0.03081  0.93626  0.84869  1.0000
  C   C1182     1.0  0.02988  0.94550  0.82712  1.0000
  C   C1183     1.0  0.00697  0.62158  0.95215  1.0000
  C   C1184     1.0  0.18094  0.96776  0.51879  1.0000
  C   C1185     1.0  0.04689  0.93572  0.85300  1.0000
  H   H938      1.0  0.15974  0.51965  0.62913  1.0000
  H   H939      1.0  0.00140  0.53257  0.83547  1.0000
  H   H940      1.0  0.00927  0.86684  0.91649  1.0000
  H   H941      1.0  0.01566  0.92635  0.48653  1.0000
  H   H942      1.0  0.09686  0.54438  0.87387  1.0000
  C   C1186     1.0  0.98979  0.56893  0.81152  1.0000
  C   C1187     1.0  0.00036  0.92623  0.91711  1.0000
  H   H943      1.0  0.99504  0.96229  0.89347  1.0000
  H   H944      1.0  0.08963  0.88785  0.48488  1.0000
  C   C1188     1.0  0.15112  0.72480  0.61266  1.0000
  Fe  Fe80      1.0  0.05388  0.58566  0.48299  1.0000
  H   H945      1.0  0.01693  0.98626  0.89840  1.0000
  H   H946      1.0  0.01124  0.90237  0.83967  1.0000
  C   C1189     1.0  0.04113  0.53354  0.87231  1.0000
  H   H947      1.0  0.01775  0.94598  0.82301  1.0000
  H   H948      1.0  0.11851  0.59019  0.90130  1.0000
  H   H949      1.0  0.04790  0.92858  0.86949  1.0000
  H   H950      1.0  0.07233  0.96231  0.80284  1.0000
  S   S158      1.0  0.17144  0.59573  0.66742  1.0000
  H   H951      1.0  0.04301  0.98472  0.94839  1.0000
  H   H952      1.0  0.12240  0.53384  0.87127  1.0000
  H   H953      1.0  0.16176  0.88869  0.53136  1.0000
  C   C1190     1.0  0.09073  0.55538  0.84253  1.0000
  S   S159      1.0  0.06025  0.97479  0.47370  1.0000
  H   H954      1.0  0.13916  0.92026  0.57041  1.0000
  H   H955      1.0  0.15462  0.57665  0.54722  1.0000
  H   H956      1.0  0.06836  0.80016  0.94757  1.0000
  H   H957      1.0  0.11007  0.50370  0.52845  1.0000
  H   H958      1.0  0.03421  0.72871  0.96363  1.0000
  C   C1191     1.0  0.10279  0.58821  0.93475  1.0000
  C   C1192     1.0  0.17535  0.76964  0.91485  1.0000
  C   C1193     1.0  0.07277  0.54545  0.60615  1.0000
  H   H959      1.0  0.11890  0.83238  0.93840  1.0000
  C   C1194     1.0  0.11113  0.55559  0.51923  1.0000
  C   C1195     1.0  0.06023  0.50077  0.90613  1.0000
  Fe  Fe81      1.0  0.98671  0.96260  0.57552  1.0000
  H   H960      1.0  0.06069  0.54226  0.60120  1.0000
  C   C1196     1.0  0.00679  0.51663  0.87661  1.0000
  C   C1197     1.0  0.12779  0.53093  0.90502  1.0000
  H   H961      1.0  0.01754  0.62154  0.89498  1.0000
  C   C1198     1.0  0.04774  0.97056  0.50187  1.0000
  H   H962      1.0  0.06933  0.94931  0.96448  1.0000
  C   C1199     1.0  0.12321  0.52828  0.55440  1.0000
  C   C1200     1.0  0.98724  0.52606  0.81054  1.0000
  C   C1201     1.0  0.18275  0.75761  0.52004  1.0000
  H   H963      1.0  0.17487  0.68755  0.75381  1.0000
  C   C1202     1.0  0.00970  0.87465  0.89976  1.0000
  H   H964      1.0  0.16902  0.69168  0.69508  1.0000
  H   H965      1.0  0.08109  0.53410  0.49389  1.0000
  C   C1203     1.0  0.99236  0.92826  0.86362  1.0000
  H   H966      1.0  0.99290  0.76325  0.92932  1.0000
  H   H967      1.0  0.15710  0.89961  0.56661  1.0000
  H   H968      1.0  0.11071  0.51314  0.82670  1.0000
  H   H969      1.0  0.17350  0.75045  0.51232  1.0000
  H   H970      1.0  0.08236  0.67164  0.96684  1.0000
  C   C1204     1.0  0.08687  0.52329  0.49577  1.0000
  C   C1205     1.0  0.17676  0.56381  0.66529  1.0000
  H   H971      1.0  0.17723  0.88068  0.50087  1.0000
  C   C1206     1.0  0.18143  0.74417  0.66507  1.0000
  C   C1207     1.0  0.05587  0.74861  0.96479  1.0000
  H   H972      1.0  0.03421  0.51206  0.55722  1.0000
  H   H973      1.0  0.99694  0.61509  0.96750  1.0000
  C   C1208     1.0  0.98762  0.85942  0.49929  1.0000
  C   C1209     1.0  0.98540  0.49405  0.48742  1.0000
  C   C1210     1.0  0.10275  0.89294  0.47512  1.0000
  Fe  Fe82      1.0  0.18109  0.66095  0.63443  1.0000
  H   H974      1.0  0.17727  0.98466  0.88856  1.0000
  H   H975      1.0  0.07637  0.61384  0.94668  1.0000
  C   C1211     1.0  0.12994  0.52195  0.57286  1.0000
  C   C1212     1.0  0.17473  0.72510  0.88380  1.0000
  C   C1213     1.0  0.17738  0.71018  0.87703  1.0000
  H   H976      1.0  0.17361  0.66268  0.70606  1.0000
  H   H977      1.0  0.06358  0.50929  0.54524  1.0000
  H   H978      1.0  0.17600  0.71701  0.72692  1.0000
  C   C1214     1.0  0.11903  0.51283  0.59411  1.0000
  H   H979      1.0  0.14364  0.52408  0.57069  1.0000
  C   C1215     1.0  0.17419  0.78787  0.83257  1.0000
  C   C1216     1.0  0.16872  0.98788  0.75614  1.0000
  S   S160      1.0  0.09598  0.94760  0.47019  1.0000
  H   H980      1.0  0.17794  0.73691  0.55004  1.0000
  H   H981      1.0  0.17462  0.81459  0.83163  1.0000
  H   H982      1.0  0.08089  0.51413  0.58110  1.0000
  C   C1217     1.0  0.10137  0.50997  0.59688  1.0000
  H   H983      1.0  0.14540  0.50268  0.66907  1.0000
  C   C1218     1.0  0.18193  0.80502  0.83233  1.0000
  C   C1219     1.0  0.17006  0.91055  0.46990  1.0000
  H   H984      1.0  0.18079  0.53853  0.66408  1.0000
  H   H985      1.0  0.18306  0.75274  0.87736  1.0000
  H   H986      1.0  0.18077  0.85112  0.50703  1.0000
  H   H987      1.0  0.18216  0.50475  0.93784  1.0000
  C   C1220     1.0  0.18290  0.97958  0.66668  1.0000
  C   C1221     1.0  0.03325  0.62722  0.47071  1.0000
  C   C1222     1.0  0.05836  0.99167  0.83557  1.0000
  C   C1223     1.0  0.03383  0.99222  0.81844  1.0000
  C   C1224     1.0  0.10182  0.49548  0.49965  1.0000
  C   C1225     1.0  0.01338  0.52316  0.47345  1.0000
  H   H988      1.0  0.08339  0.75942  0.47487  1.0000
  C   C1226     1.0  0.18184  0.55136  0.65415  1.0000
  S   S161      1.0  0.18226  0.63932  0.61579  1.0000
  C   C1227     1.0  0.17324  0.92832  0.46931  1.0000
  H   H989      1.0  0.18327  0.75137  0.64744  1.0000
  C   C1228     1.0  0.18336  0.78382  0.89603  1.0000
  Fe  Fe83      1.0  0.26251  0.39449  0.33356  1.0000
  S   S162      1.0  0.24400  0.41009  0.32524  1.0000
  S   S163      1.0  0.27077  0.37559  0.31248  1.0000
  Fe  Fe84      1.0  0.27309  0.41531  0.36916  1.0000
  S   S164      1.0  0.25516  0.43208  0.36346  1.0000
  S   S165      1.0  0.29070  0.41582  0.39464  1.0000
  Fe  Fe85      1.0  0.23606  0.40756  0.36376  1.0000
  S   S166      1.0  0.20748  0.40416  0.37677  1.0000
  Fe  Fe86      1.0  0.26414  0.43346  0.32548  1.0000
  S   S167      1.0  0.26929  0.45987  0.30100  1.0000
  S   S168      1.0  0.25324  0.39029  0.37221  1.0000
  S   S169      1.0  0.28349  0.41841  0.33109  1.0000
  Fe  Fe87      1.0  0.27819  0.48981  0.16515  1.0000
  S   S170      1.0  0.35173  0.25718  0.33783  1.0000
  Fe  Fe88      1.0  0.23354  0.38957  0.00215  1.0000
  S   S171      1.0  0.21582  0.40705  0.00640  1.0000
  S   S172      1.0  0.22644  0.36328  0.02786  1.0000
  C   C1229     1.0  0.23273  0.42027  0.08759  1.0000
  C   C1230     1.0  0.26448  0.03865  0.37301  1.0000
  Fe  Fe89      1.0  0.23958  0.42829  0.00287  1.0000
  S   S173      1.0  0.23902  0.44834  0.02522  1.0000
  H   H990      1.0  0.23510  0.47018  0.20940  1.0000
  S   S174      1.0  0.25676  0.41038  0.00139  1.0000
  H   H991      1.0  0.30098  0.47272  0.31675  1.0000
  H   H992      1.0  0.36777  0.45987  0.03240  1.0000
  H   H993      1.0  0.36713  0.25209  0.02573  1.0000
  Fe  Fe90      1.0  0.24260  0.24140  0.28265  1.0000
  S   S175      1.0  0.23052  0.26234  0.26945  1.0000
  S   S176      1.0  0.22926  0.21312  0.30130  1.0000
  Fe  Fe91      1.0  0.27894  0.26590  0.26698  1.0000
  S   S177      1.0  0.26922  0.28831  0.25199  1.0000
  S   S178      1.0  0.30804  0.27148  0.26221  1.0000
  Fe  Fe92      1.0  0.24861  0.27988  0.28466  1.0000
  S   S179      1.0  0.23916  0.29701  0.30778  1.0000
  Fe  Fe93      1.0  0.25217  0.26916  0.23771  1.0000
  S   S180      1.0  0.24932  0.27783  0.20055  1.0000
  S   S181      1.0  0.25908  0.25826  0.30035  1.0000
  S   S182      1.0  0.26347  0.24741  0.25015  1.0000
  Fe  Fe94      1.0  0.23644  0.24207  0.08519  1.0000
  S   S183      1.0  0.26096  0.25844  0.06098  1.0000
  S   S184      1.0  0.23338  0.23474  0.12460  1.0000
  Fe  Fe95      1.0  0.22079  0.23089  0.04491  1.0000
  S   S185      1.0  0.24462  0.24679  0.01833  1.0000
  C   C1231     1.0  0.33797  0.41971  0.37676  1.0000
  Fe  Fe96      1.0  0.25955  0.23656  0.04291  1.0000
  S   S186      1.0  0.28166  0.22414  0.03539  1.0000
  Fe  Fe97      1.0  0.24421  0.26773  0.03838  1.0000
  S   S187      1.0  0.25217  0.29570  0.01670  1.0000
  S   S188      1.0  0.23580  0.21936  0.06836  1.0000
  S   S189      1.0  0.21952  0.25260  0.06374  1.0000
  H   H994      1.0  0.21160  0.17793  0.32478  1.0000
  S   S190      1.0  0.30207  0.49157  0.13931  1.0000
  C   C1232     1.0  0.21072  0.47482  0.20581  1.0000
  S   S191      1.0  0.26939  0.46571  0.19446  1.0000
  H   H995      1.0  0.27866  0.05218  0.39384  1.0000
  C   C1233     1.0  0.19253  0.35017  0.98481  1.0000
  C   C1234     1.0  0.35673  0.46419  0.02909  1.0000
  S   S192      1.0  0.33223  0.47662  0.43283  1.0000
  H   H996      1.0  0.29560  0.17114  0.98110  1.0000
  C   C1235     1.0  0.19895  0.23783  0.22500  1.0000
  C   C1236     1.0  0.24525  0.26563  0.17952  1.0000
  C   C1237     1.0  0.24126  0.24755  0.18480  1.0000
  C   C1238     1.0  0.23768  0.23836  0.16778  1.0000
  C   C1239     1.0  0.23823  0.24712  0.14518  1.0000
  C   C1240     1.0  0.24259  0.26524  0.13974  1.0000
  C   C1241     1.0  0.24593  0.27441  0.15688  1.0000
  H   H997      1.0  0.24060  0.24071  0.20216  1.0000
  H   H998      1.0  0.23436  0.22435  0.17215  1.0000
  H   H999      1.0  0.24308  0.27219  0.12246  1.0000
  H   H1000     1.0  0.24896  0.28840  0.15258  1.0000
  C   C1242     1.0  0.33678  0.25274  0.99579  1.0000
  C   C1243     1.0  0.32375  0.26138  0.99618  1.0000
  C   C1244     1.0  0.30691  0.25294  0.00866  1.0000
  C   C1245     1.0  0.30285  0.23562  0.02056  1.0000
  C   C1246     1.0  0.31587  0.22693  0.02017  1.0000
  C   C1247     1.0  0.33279  0.23545  0.00799  1.0000
  H   H1001     1.0  0.34811  0.46625  0.06418  1.0000
  H   H1002     1.0  0.29702  0.25978  0.00879  1.0000
  H   H1003     1.0  0.31281  0.21351  0.02932  1.0000
  H   H1004     1.0  0.34270  0.22865  0.00797  1.0000
  H   H1005     1.0  0.30543  0.44823  0.97126  1.0000
  C   C1248     1.0  0.25338  0.45681  0.04177  1.0000
  C   C1249     1.0  0.24843  0.46715  0.05676  1.0000
  C   C1250     1.0  0.25950  0.47448  0.06977  1.0000
  C   C1251     1.0  0.27583  0.47175  0.06777  1.0000
  C   C1252     1.0  0.28072  0.46129  0.05290  1.0000
  C   C1253     1.0  0.26959  0.45385  0.04006  1.0000
  H   H1006     1.0  0.23594  0.46959  0.05826  1.0000
  H   H1007     1.0  0.36008  0.18461  0.03602  1.0000
  H   H1008     1.0  0.29317  0.45883  0.05137  1.0000
  H   H1009     1.0  0.27363  0.44604  0.02857  1.0000
  C   C1254     1.0  0.24503  0.31436  0.02068  1.0000
  C   C1255     1.0  0.25230  0.33001  0.00390  1.0000
  C   C1256     1.0  0.24684  0.34507  0.00592  1.0000
  C   C1257     1.0  0.23392  0.34467  0.02468  1.0000
  C   C1258     1.0  0.22672  0.32906  0.04156  1.0000
  C   C1259     1.0  0.23216  0.31396  0.03954  1.0000
  C   C1260     1.0  0.25781  0.39275  0.44843  1.0000
  H   H1010     1.0  0.25269  0.35703  0.99303  1.0000
  H   H1011     1.0  0.21681  0.32860  0.05625  1.0000
  H   H1012     1.0  0.22639  0.30203  0.05255  1.0000
  H   H1013     1.0  0.24932  0.36492  0.45747  1.0000
  H   H1014     1.0  0.36326  0.25833  0.22572  1.0000
  C   C1261     1.0  0.35333  0.11202  0.45084  1.0000
  C   C1262     1.0  0.19857  0.25508  0.33442  1.0000
  H   H1015     1.0  0.23806  0.43032  0.09569  1.0000
  C   C1263     1.0  0.33969  0.26222  0.31699  1.0000
  C   C1264     1.0  0.34700  0.27428  0.29588  1.0000
  C   C1265     1.0  0.33707  0.27722  0.27952  1.0000
  C   C1266     1.0  0.31964  0.26849  0.28421  1.0000
  C   C1267     1.0  0.31221  0.25688  0.30565  1.0000
  C   C1268     1.0  0.32222  0.25366  0.32178  1.0000
  H   H1016     1.0  0.36031  0.28122  0.29210  1.0000
  H   H1017     1.0  0.34295  0.28640  0.26318  1.0000
  H   H1018     1.0  0.29883  0.25008  0.30960  1.0000
  H   H1019     1.0  0.31637  0.24441  0.33811  1.0000
  C   C1269     1.0  0.30195  0.43295  0.40519  1.0000
  C   C1270     1.0  0.31215  0.42916  0.42078  1.0000
  C   C1271     1.0  0.32155  0.44230  0.42933  1.0000
  C   C1272     1.0  0.32082  0.45946  0.42247  1.0000
  C   C1273     1.0  0.31052  0.46323  0.40702  1.0000
  C   C1274     1.0  0.30117  0.45010  0.39839  1.0000
  H   H1020     1.0  0.31286  0.41595  0.42619  1.0000
  H   H1021     1.0  0.30979  0.47643  0.40163  1.0000
  H   H1022     1.0  0.29338  0.45324  0.38646  1.0000
  C   C1275     1.0  0.19642  0.40105  0.40584  1.0000
  C   C1276     1.0  0.20394  0.39686  0.42430  1.0000
  C   C1277     1.0  0.36938  0.09676  0.42765  1.0000
  H   H1023     1.0  0.21678  0.39529  0.42098  1.0000
  C   C1278     1.0  0.26940  0.46146  0.27133  1.0000
  C   C1279     1.0  0.27218  0.47782  0.25653  1.0000
  C   C1280     1.0  0.27227  0.47940  0.23288  1.0000
  C   C1281     1.0  0.26945  0.46460  0.22394  1.0000
  C   C1282     1.0  0.26642  0.44827  0.23881  1.0000
  C   C1283     1.0  0.26650  0.44670  0.26235  1.0000
  H   H1024     1.0  0.18748  0.20170  0.38683  1.0000
  C   C1284     1.0  0.19084  0.99375  0.44573  1.0000
  H   H1025     1.0  0.26414  0.43675  0.23205  1.0000
  H   H1026     1.0  0.26426  0.43403  0.27356  1.0000
  C   C1285     1.0  0.26189  0.35353  0.31205  1.0000
  C   C1286     1.0  0.27097  0.34578  0.29663  1.0000
  C   C1287     1.0  0.26433  0.32854  0.29516  1.0000
  C   C1288     1.0  0.24846  0.31874  0.30915  1.0000
  C   C1289     1.0  0.23956  0.32636  0.32489  1.0000
  C   C1290     1.0  0.24619  0.34361  0.32634  1.0000
  H   H1027     1.0  0.28316  0.35326  0.28555  1.0000
  H   H1028     1.0  0.27139  0.32293  0.28301  1.0000
  H   H1029     1.0  0.22731  0.31894  0.33588  1.0000
  H   H1030     1.0  0.23905  0.34929  0.33833  1.0000
  C   C1291     1.0  0.19223  0.20047  0.18029  1.0000
  H   H1031     1.0  0.32922  0.43913  0.44137  1.0000
  H   H1032     1.0  0.33411  0.41377  0.97355  1.0000
  S   S193      1.0  0.37606  0.18024  0.46498  1.0000
  H   H1033     1.0  0.20817  0.18700  0.02430  1.0000
  H   H1034     1.0  0.36231  0.46353  0.99315  1.0000
  Fe  Fe98      1.0  0.35219  0.47805  0.45484  1.0000
  C   C1292     1.0  0.20785  0.20093  0.30450  1.0000
  C   C1293     1.0  0.19600  0.20806  0.29495  1.0000
  C   C1294     1.0  0.20254  0.18362  0.31738  1.0000
  H   H1035     1.0  0.19980  0.22132  0.28500  1.0000
  C   C1295     1.0  0.28848  0.21691  0.97912  1.0000
  H   H1036     1.0  0.23172  0.44661  0.30060  1.0000
  C   C1296     1.0  0.32356  0.22723  0.12742  1.0000
  C   C1297     1.0  0.34053  0.23704  0.12146  1.0000
  C   C1298     1.0  0.34685  0.24663  0.13646  1.0000
  C   C1299     1.0  0.33625  0.24623  0.15757  1.0000
  C   C1300     1.0  0.31938  0.23580  0.16414  1.0000
  C   C1301     1.0  0.31296  0.22672  0.14856  1.0000
  P   P40       1.0  0.30565  0.23588  0.19107  1.0000
  C   C1302     1.0  0.28636  0.21852  0.19795  1.0000
  C   C1303     1.0  0.31528  0.23205  0.21553  1.0000
  C   C1304     1.0  0.30661  0.23277  0.23745  1.0000
  C   C1305     1.0  0.31391  0.23019  0.25651  1.0000
  C   C1306     1.0  0.32975  0.22638  0.25403  1.0000
  C   C1307     1.0  0.33813  0.22478  0.23254  1.0000
  C   C1308     1.0  0.33088  0.22747  0.21338  1.0000
  C   C1309     1.0  0.27020  0.22181  0.20255  1.0000
  C   C1310     1.0  0.25541  0.20817  0.20809  1.0000
  C   C1311     1.0  0.25662  0.19117  0.20935  1.0000
  C   C1312     1.0  0.27265  0.18777  0.20517  1.0000
  C   C1313     1.0  0.28748  0.20138  0.19959  1.0000
  C   C1314     1.0  0.30048  0.25651  0.18614  1.0000
  C   C1315     1.0  0.29325  0.26114  0.16737  1.0000
  C   C1316     1.0  0.28887  0.27690  0.16332  1.0000
  C   C1317     1.0  0.29157  0.28810  0.17805  1.0000
  C   C1318     1.0  0.29885  0.28365  0.19668  1.0000
  C   C1319     1.0  0.30342  0.26799  0.20063  1.0000
  H   H1037     1.0  0.31857  0.22007  0.11557  1.0000
  H   H1038     1.0  0.34872  0.23731  0.10508  1.0000
  H   H1039     1.0  0.35995  0.25444  0.13163  1.0000
  H   H1040     1.0  0.34120  0.25403  0.16882  1.0000
  H   H1041     1.0  0.29974  0.21936  0.15250  1.0000
  H   H1042     1.0  0.29430  0.23568  0.23978  1.0000
  H   H1043     1.0  0.30735  0.23143  0.27316  1.0000
  H   H1044     1.0  0.33545  0.22459  0.26883  1.0000
  H   H1045     1.0  0.35025  0.22145  0.23076  1.0000
  H   H1046     1.0  0.33745  0.22575  0.19713  1.0000
  H   H1047     1.0  0.26890  0.23482  0.20212  1.0000
  H   H1048     1.0  0.24298  0.21078  0.21157  1.0000
  H   H1049     1.0  0.24511  0.18065  0.21377  1.0000
  H   H1050     1.0  0.27358  0.17456  0.20636  1.0000
  H   H1051     1.0  0.29983  0.19855  0.19657  1.0000
  H   H1052     1.0  0.29059  0.25237  0.15620  1.0000
  H   H1053     1.0  0.28277  0.28016  0.14928  1.0000
  H   H1054     1.0  0.28734  0.29990  0.17559  1.0000
  H   H1055     1.0  0.30042  0.29209  0.20855  1.0000
  H   H1056     1.0  0.30886  0.26486  0.21529  1.0000
  H   H1057     1.0  0.24778  0.27633  0.34752  1.0000
  C   C1320     1.0  0.36503  0.25788  0.04045  1.0000
  H   H1058     1.0  0.26521  0.47305  0.98450  1.0000
  H   H1059     1.0  0.22214  0.17312  0.15852  1.0000
  H   H1060     1.0  0.32616  0.43726  0.99021  1.0000
  H   H1061     1.0  0.31926  0.43342  0.07211  1.0000
  H   H1062     1.0  0.35190  0.99707  0.00199  1.0000
  H   H1063     1.0  0.32858  0.47616  0.32849  1.0000
  H   H1064     1.0  0.21372  0.38577  0.05610  1.0000
  C   C1321     1.0  0.25553  0.03391  0.41468  1.0000
  C   C1322     1.0  0.26732  0.04250  0.39384  1.0000
  H   H1065     1.0  0.27361  0.04535  0.35688  1.0000
  H   H1066     1.0  0.33267  0.29395  0.21401  1.0000
  H   H1067     1.0  0.35583  0.20495  0.33460  1.0000
  C   C1323     1.0  0.34649  0.27465  0.22022  1.0000
  C   C1324     1.0  0.22530  0.48158  0.26615  1.0000
  C   C1325     1.0  0.23977  0.36983  0.12043  1.0000
  H   H1068     1.0  0.22120  0.30351  0.99677  1.0000
  H   H1069     1.0  0.35889  0.31809  0.19754  1.0000
  H   H1070     1.0  0.21424  0.43141  0.27755  1.0000
  C   C1326     1.0  0.19654  0.18836  0.19643  1.0000
  H   H1071     1.0  0.21495  0.19510  0.13041  1.0000
  C   C1327     1.0  0.30471  0.21523  0.97001  1.0000
  C   C1328     1.0  0.22685  0.45395  0.28766  1.0000
  H   H1072     1.0  0.25798  0.03719  0.43052  1.0000
  H   H1073     1.0  0.22568  0.34347  0.13684  1.0000
  H   H1074     1.0  0.20132  0.41074  0.05885  1.0000
  H   H1075     1.0  0.21232  0.43588  0.34348  1.0000
  H   H1076     1.0  0.23485  0.19157  0.26926  1.0000
  H   H1077     1.0  0.36684  0.18426  0.31424  1.0000
  H   H1078     1.0  0.25105  0.33177  0.13052  1.0000
  H   H1079     1.0  0.30029  0.47220  0.46653  1.0000
  H   H1080     1.0  0.21188  0.23795  0.32022  1.0000
  C   C1329     1.0  0.37530  0.26941  0.07093  1.0000
  H   H1081     1.0  0.22916  0.46562  0.34078  1.0000
  H   H1082     1.0  0.33506  0.26423  0.22783  1.0000
  C   C1330     1.0  0.35067  0.30529  0.37591  1.0000
  H   H1083     1.0  0.18519  0.32930  0.05000  1.0000
  C   C1331     1.0  0.32830  0.47547  0.02052  1.0000
  C   C1332     1.0  0.20068  0.46590  0.17330  1.0000
  H   H1084     1.0  0.29669  0.06479  0.46085  1.0000
  C   C1333     1.0  0.21369  0.18064  0.16467  1.0000
  H   H1085     1.0  0.38138  0.39229  0.44461  1.0000
  C   C1334     1.0  0.19886  0.29990  0.98236  1.0000
  C   C1335     1.0  0.19266  0.32627  0.01522  1.0000
  C   C1336     1.0  0.19269  0.44273  0.01626  1.0000
  C   C1337     1.0  0.35992  0.30504  0.20349  1.0000
  C   C1338     1.0  0.20045  0.23890  0.33150  1.0000
  H   H1086     1.0  0.31998  0.43423  0.03080  1.0000
  H   H1087     1.0  0.33182  0.42947  0.37022  1.0000
  C   C1339     1.0  0.31256  0.48123  0.30506  1.0000
  C   C1340     1.0  0.31488  0.47946  0.22964  1.0000
  C   C1341     1.0  0.28430  0.45916  0.97771  1.0000
  C   C1342     1.0  0.20761  0.27673  0.00472  1.0000
  C   C1343     1.0  0.18732  0.19889  0.02401  1.0000
  C   C1344     1.0  0.30778  0.42784  0.06695  1.0000
  H   H1088     1.0  0.18343  0.47863  0.37014  1.0000
  C   C1345     1.0  0.33857  0.19328  0.98431  1.0000
  H   H1089     1.0  0.36454  0.48348  0.38849  1.0000
  C   C1346     1.0  0.18409  0.35126  0.02490  1.0000
  H   H1090     1.0  0.35787  0.38428  0.40405  1.0000
  H   H1091     1.0  0.36577  0.03115  0.46279  1.0000
  H   H1092     1.0  0.25547  0.48243  0.08112  1.0000
  H   H1093     1.0  0.26699  0.17438  0.99700  1.0000
  C   C1347     1.0  0.20726  0.47405  0.35514  1.0000
  H   H1094     1.0  0.22854  0.37473  0.12328  1.0000
  C   C1348     1.0  0.20010  0.22158  0.22143  1.0000
  H   H1095     1.0  0.28652  0.22963  0.97951  1.0000
  C   C1349     1.0  0.18959  0.46925  0.36413  1.0000
  H   H1096     1.0  0.35728  0.28910  0.35315  1.0000
  C   C1350     1.0  0.37740  0.28506  0.21098  1.0000
  H   H1097     1.0  0.30497  0.45492  0.22186  1.0000
  C   C1351     1.0  0.24671  0.37686  0.46075  1.0000
  C   C1352     1.0  0.35734  0.09662  0.44729  1.0000
  C   C1353     1.0  0.27872  0.47366  0.98143  1.0000
  H   H1098     1.0  0.21466  0.48702  0.35421  1.0000
  C   C1354     1.0  0.18826  0.17532  0.38833  1.0000
  C   C1355     1.0  0.36392  0.19197  0.99901  1.0000
  C   C1356     1.0  0.19873  0.20271  0.15661  1.0000
  C   C1357     1.0  0.18651  0.48539  0.23954  1.0000
  C   C1358     1.0  0.22828  0.02110  0.46437  1.0000
  H   H1099     1.0  0.36960  0.48977  0.34566  1.0000
  C   C1359     1.0  0.20722  0.17835  0.18842  1.0000
  H   H1100     1.0  0.19513  0.31387  0.02102  1.0000
  H   H1101     1.0  0.28264  0.38273  0.09683  1.0000
  C   C1360     1.0  0.19576  0.18604  0.02043  1.0000
  H   H1102     1.0  0.20345  0.45330  0.40152  1.0000
  H   H1103     1.0  0.24738  0.39127  0.14975  1.0000
  H   H1104     1.0  0.23835  0.38303  0.07258  1.0000
  H   H1105     1.0  0.26905  0.39310  0.43568  1.0000
  C   C1361     1.0  0.23802  0.01758  0.39380  1.0000
  P   P41       1.0  0.18838  0.18593  0.22705  1.0000
  H   H1106     1.0  0.26248  0.20362  0.99649  1.0000
  C   C1362     1.0  0.33644  0.18502  0.02573  1.0000
  H   H1107     1.0  0.37267  0.08490  0.42530  1.0000
  H   H1108     1.0  0.21730  0.45493  0.15194  1.0000
  H   H1109     1.0  0.36445  0.02645  0.97754  1.0000
  C   C1363     1.0  0.22757  0.46166  0.18036  1.0000
  C   C1364     1.0  0.26040  0.27564  0.34968  1.0000
  C   C1365     1.0  0.26357  0.25960  0.35716  1.0000
  C   C1366     1.0  0.27999  0.25873  0.35914  1.0000
  C   C1367     1.0  0.29323  0.27389  0.35380  1.0000
  C   C1368     1.0  0.29012  0.29009  0.34648  1.0000
  C   C1369     1.0  0.27362  0.29080  0.34414  1.0000
  P   P42       1.0  0.30733  0.30970  0.33805  1.0000
  C   C1370     1.0  0.32390  0.30757  0.35354  1.0000
  C   C1371     1.0  0.31607  0.31393  0.30728  1.0000
  C   C1372     1.0  0.30546  0.30951  0.29240  1.0000
  C   C1373     1.0  0.31223  0.31285  0.26860  1.0000
  C   C1374     1.0  0.32963  0.32051  0.25946  1.0000
  C   C1375     1.0  0.34025  0.32517  0.27409  1.0000
  C   C1376     1.0  0.33349  0.32205  0.29789  1.0000
  C   C1377     1.0  0.33533  0.29786  0.34701  1.0000
  H   H1110     1.0  0.28323  0.48037  0.43867  1.0000
  C   C1378     1.0  0.32595  0.31604  0.37157  1.0000
  C   C1379     1.0  0.29908  0.32752  0.34463  1.0000
  C   C1380     1.0  0.30553  0.34411  0.32996  1.0000
  C   C1381     1.0  0.29930  0.35791  0.33537  1.0000
  C   C1382     1.0  0.28654  0.35524  0.35532  1.0000
  C   C1383     1.0  0.28010  0.33878  0.37006  1.0000
  C   C1384     1.0  0.28642  0.32497  0.36485  1.0000
  C   C1385     1.0  0.22497  0.16517  0.26756  1.0000
  H   H1111     1.0  0.25337  0.24784  0.36091  1.0000
  H   H1112     1.0  0.28255  0.24627  0.36447  1.0000
  H   H1113     1.0  0.30586  0.27280  0.35513  1.0000
  H   H1114     1.0  0.27096  0.30303  0.33761  1.0000
  H   H1115     1.0  0.29196  0.30341  0.29901  1.0000
  H   H1116     1.0  0.30398  0.30910  0.25733  1.0000
  H   H1117     1.0  0.32670  0.27472  0.98679  1.0000
  H   H1118     1.0  0.35374  0.33113  0.26703  1.0000
  H   H1119     1.0  0.34189  0.32595  0.30889  1.0000
  H   H1120     1.0  0.33407  0.29126  0.33314  1.0000
  H   H1121     1.0  0.31741  0.32365  0.37703  1.0000
  H   H1122     1.0  0.31517  0.34643  0.31419  1.0000
  H   H1123     1.0  0.30384  0.37059  0.32363  1.0000
  H   H1124     1.0  0.28130  0.36586  0.35892  1.0000
  H   H1125     1.0  0.26999  0.33670  0.38528  1.0000
  H   H1126     1.0  0.28132  0.31230  0.37647  1.0000
  H   H1127     1.0  0.36759  0.20831  0.43788  1.0000
  C   C1386     1.0  0.20284  0.17798  0.24286  1.0000
  C   C1387     1.0  0.18812  0.17186  0.01181  1.0000
  H   H1128     1.0  0.31158  0.12129  0.45691  1.0000
  H   H1129     1.0  0.19125  0.46497  0.16291  1.0000
  H   H1130     1.0  0.20056  0.39103  0.46131  1.0000
  C   C1388     1.0  0.26841  0.35665  0.11334  1.0000
  H   H1131     1.0  0.26221  0.33048  0.98919  1.0000
  C   C1389     1.0  0.27491  0.20221  0.98880  1.0000
  C   C1390     1.0  0.25431  0.40822  0.45219  1.0000
  C   C1391     1.0  0.36149  0.42503  0.44247  1.0000
  H   H1132     1.0  0.35872  0.13965  0.43639  1.0000
  H   H1133     1.0  0.27414  0.48931  0.26337  1.0000
  H   H1134     1.0  0.26659  0.40836  0.04820  1.0000
  H   H1135     1.0  0.29352  0.42150  0.01893  1.0000
  H   H1136     1.0  0.37952  0.13956  0.40161  1.0000
  C   C1392     1.0  0.32868  0.18801  0.00716  1.0000
  P   P43       1.0  0.22537  0.00999  0.44147  1.0000
  C   C1393     1.0  0.36252  0.27141  0.21931  1.0000
  S   S194      1.0  0.29062  0.48097  0.08331  1.0000
  H   H1137     1.0  0.23900  0.47856  0.29323  1.0000
  C   C1394     1.0  0.37154  0.41450  0.43441  1.0000
  C   C1395     1.0  0.33001  0.40223  0.37941  1.0000
  H   H1138     1.0  0.35916  0.43541  0.43048  1.0000
  C   C1396     1.0  0.26179  0.45809  0.45388  1.0000
  C   C1397     1.0  0.20601  0.45272  0.43648  1.0000
  C   C1398     1.0  0.21879  0.42179  0.07797  1.0000
  C   C1399     1.0  0.21544  0.46205  0.34756  1.0000
  H   H1139     1.0  0.29249  0.42010  0.10164  1.0000
  C   C1400     1.0  0.23093  0.47201  0.28350  1.0000
  S   S195      1.0  0.19600  0.21706  0.03540  1.0000
  C   C1401     1.0  0.20951  0.19287  0.14879  1.0000
  H   H1140     1.0  0.32877  0.18122  0.04330  1.0000
  C   C1402     1.0  0.19474  0.39452  0.44715  1.0000
  C   C1403     1.0  0.34517  0.29145  0.21249  1.0000
  C   C1404     1.0  0.19551  0.33383  0.99157  1.0000
  H   H1141     1.0  0.31589  0.46585  0.17950  1.0000
  H   H1142     1.0  0.21163  0.22045  0.21070  1.0000
  C   C1405     1.0  0.37743  0.11225  0.41126  1.0000
  C   C1406     1.0  0.35333  0.42455  0.38352  1.0000
  C   C1407     1.0  0.35404  0.18692  0.02166  1.0000
  H   H1143     1.0  0.22432  0.43631  0.39345  1.0000
  C   C1408     1.0  0.36130  0.12750  0.43404  1.0000
  C   C1409     1.0  0.20124  0.02296  0.42193  1.0000
  C   C1410     1.0  0.21473  0.18922  0.25086  1.0000
  C   C1411     1.0  0.29372  0.18401  0.98007  1.0000
  C   C1412     1.0  0.36110  0.41187  0.39248  1.0000
  H   H1144     1.0  0.25982  0.43818  0.17294  1.0000
  H   H1145     1.0  0.26848  0.44038  0.10022  1.0000
  H   H1146     1.0  0.35876  0.43813  0.38237  1.0000
  C   C1413     1.0  0.20427  0.00875  0.43612  1.0000
  C   C1414     1.0  0.19831  0.47305  0.19265  1.0000
  C   C1415     1.0  0.30817  0.42828  0.04365  1.0000
  C   C1416     1.0  0.20984  0.44904  0.41474  1.0000
  C   C1417     1.0  0.32733  0.49177  0.18186  1.0000
  H   H1147     1.0  0.37759  0.19346  0.99578  1.0000
  C   C1418     1.0  0.27014  0.37438  0.10558  1.0000
  H   H1148     1.0  0.31502  0.18635  0.01081  1.0000
  C   C1419     1.0  0.21548  0.47308  0.25286  1.0000
  C   C1420     1.0  0.31841  0.47443  0.19096  1.0000
  H   H1149     1.0  0.24855  0.40635  0.18147  1.0000
  C   C1421     1.0  0.38030  0.15294  0.98533  1.0000
  Fe  Fe99      1.0  0.38225  0.25522  0.97727  1.0000
  C   C1422     1.0  0.33932  0.47190  0.00240  1.0000
  C   C1423     1.0  0.22584  0.18283  0.26293  1.0000
  H   H1150     1.0  0.37409  0.25164  0.29412  1.0000
  C   C1424     1.0  0.28115  0.24456  0.11263  1.0000
  C   C1425     1.0  0.27984  0.22948  0.10441  1.0000
  C   C1426     1.0  0.29314  0.22822  0.08739  1.0000
  C   C1427     1.0  0.30774  0.24205  0.07850  1.0000
  C   C1428     1.0  0.30924  0.25725  0.08677  1.0000
  C   C1429     1.0  0.29563  0.25847  0.10368  1.0000
  P   P44       1.0  0.32697  0.27606  0.07328  1.0000
  C   C1430     1.0  0.32909  0.29018  0.09308  1.0000
  C   C1431     1.0  0.34679  0.26996  0.06576  1.0000
  C   C1432     1.0  0.35986  0.27370  0.07759  1.0000
  C   C1433     1.0  0.31355  0.47467  0.97502  1.0000
  H   H1151     1.0  0.23899  0.45740  0.17551  1.0000
  C   C1434     1.0  0.22531  0.46894  0.19959  1.0000
  C   C1435     1.0  0.34963  0.26217  0.04702  1.0000
  C   C1436     1.0  0.33185  0.30813  0.08533  1.0000
  C   C1437     1.0  0.33343  0.31891  0.10086  1.0000
  C   C1438     1.0  0.33236  0.31185  0.12415  1.0000
  C   C1439     1.0  0.32978  0.29400  0.13193  1.0000
  C   C1440     1.0  0.32811  0.28320  0.11648  1.0000
  C   C1441     1.0  0.32207  0.28703  0.04748  1.0000
  C   C1442     1.0  0.30509  0.28694  0.04700  1.0000
  C   C1443     1.0  0.30117  0.29524  0.02703  1.0000
  C   C1444     1.0  0.31419  0.30383  0.00746  1.0000
  C   C1445     1.0  0.33116  0.30423  0.00789  1.0000
  C   C1446     1.0  0.33512  0.29592  0.02783  1.0000
  H   H1152     1.0  0.27058  0.24573  0.12525  1.0000
  H   H1153     1.0  0.26821  0.21907  0.11059  1.0000
  H   H1154     1.0  0.29180  0.21681  0.08026  1.0000
  H   H1155     1.0  0.31742  0.24094  0.06463  1.0000
  H   H1156     1.0  0.29580  0.27036  0.10937  1.0000
  H   H1157     1.0  0.35838  0.28012  0.09169  1.0000
  C   C1447     1.0  0.21187  0.40933  0.06674  1.0000
  H   H1158     1.0  0.32275  0.47595  0.05661  1.0000
  H   H1159     1.0  0.27520  0.44745  0.97750  1.0000
  H   H1160     1.0  0.34009  0.25984  0.03705  1.0000
  H   H1161     1.0  0.33275  0.31386  0.06736  1.0000
  H   H1162     1.0  0.33545  0.33275  0.09482  1.0000
  H   H1163     1.0  0.33348  0.32020  0.13618  1.0000
  H   H1164     1.0  0.32886  0.28852  0.15000  1.0000
  H   H1165     1.0  0.32591  0.26937  0.12275  1.0000
  H   H1166     1.0  0.29479  0.28037  0.06193  1.0000
  H   H1167     1.0  0.28798  0.29487  0.02665  1.0000
  C   C1448     1.0  0.21311  0.15385  0.25985  1.0000
  C   C1449     1.0  0.21891  0.39534  0.06508  1.0000
  H   H1168     1.0  0.34834  0.29632  0.02771  1.0000
  H   H1169     1.0  0.18689  0.47738  0.19695  1.0000
  H   H1170     1.0  0.20405  0.44356  0.98092  1.0000
  H   H1171     1.0  0.31716  0.47980  0.01785  1.0000
  C   C1450     1.0  0.27795  0.46874  0.45240  1.0000
  H   H1172     1.0  0.21534  0.20286  0.24832  1.0000
  H   H1173     1.0  0.27946  0.35149  0.11049  1.0000
  C   C1451     1.0  0.33145  0.47332  0.04270  1.0000
  C   C1452     1.0  0.27751  0.18576  0.98920  1.0000
  H   H1174     1.0  0.18500  0.37165  0.99603  1.0000
  H   H1175     1.0  0.26960  0.45520  0.13223  1.0000
  C   C1453     1.0  0.25240  0.34552  0.12461  1.0000
  H   H1176     1.0  0.19671  0.46003  0.44006  1.0000
  C   C1454     1.0  0.32812  0.48313  0.31161  1.0000
  C   C1455     1.0  0.20594  0.44528  0.34901  1.0000
  C   C1456     1.0  0.25800  0.41467  0.12245  1.0000
  C   C1457     1.0  0.38082  0.20905  0.43080  1.0000
  C   C1458     1.0  0.22556  0.43669  0.44950  1.0000
  H   H1177     1.0  0.23331  0.16025  0.27747  1.0000
  H   H1178     1.0  0.20397  0.44807  0.24706  1.0000
  H   H1179     1.0  0.31106  0.31005  0.99193  1.0000
  C   C1459     1.0  0.22171  0.43951  0.41017  1.0000
  C   C1460     1.0  0.22963  0.43341  0.42740  1.0000
  H   H1180     1.0  0.20582  0.03096  0.46503  1.0000
  Fe  Fe100     1.0  0.37910  0.26958  0.33983  1.0000
  C   C1461     1.0  0.24079  0.02135  0.41481  1.0000
  C   C1462     1.0  0.18691  0.35888  0.00140  1.0000
  C   C1463     1.0  0.27744  0.41344  0.07710  1.0000
  C   C1464     1.0  0.18460  0.28765  0.98036  1.0000
  H   H1181     1.0  0.26302  0.42038  0.44211  1.0000
  H   H1182     1.0  0.37771  0.27413  0.25901  1.0000
  H   H1183     1.0  0.29968  0.48841  0.27857  1.0000
  P   P45       1.0  0.25771  0.40392  0.09873  1.0000
  C   C1465     1.0  0.23290  0.39381  0.07456  1.0000
  H   H1184     1.0  0.23850  0.42575  0.42347  1.0000
  P   P46       1.0  0.20857  0.48522  0.22985  1.0000
  C   C1466     1.0  0.37601  0.30188  0.20268  1.0000
  H   H1185     1.0  0.32370  0.08747  0.45107  1.0000
  H   H1186     1.0  0.36935  0.15744  0.99182  1.0000
  C   C1467     1.0  0.23981  0.40618  0.08615  1.0000
  C   C1468     1.0  0.33736  0.38952  0.38898  1.0000
  C   C1469     1.0  0.18379  0.25626  0.34889  1.0000
  P   P47       1.0  0.37985  0.41787  0.40374  1.0000
  C   C1470     1.0  0.23810  0.35212  0.12817  1.0000
  C   C1471     1.0  0.26407  0.43278  0.11785  1.0000
  C   C1472     1.0  0.21022  0.29429  0.99481  1.0000
  C   C1473     1.0  0.37326  0.12756  0.41433  1.0000
  C   C1474     1.0  0.34859  0.29669  0.35822  1.0000
  H   H1187     1.0  0.36114  0.30452  0.38432  1.0000
  C   C1475     1.0  0.30161  0.45964  0.97439  1.0000
  C   C1476     1.0  0.29252  0.42037  0.08365  1.0000
  C   C1477     1.0  0.33931  0.31492  0.38264  1.0000
  C   C1478     1.0  0.21382  0.44659  0.45380  1.0000
  H   H1188     1.0  0.21658  0.27255  0.01412  1.0000
  H   H1189     1.0  0.34094  0.32156  0.39640  1.0000
  H   H1190     1.0  0.31787  0.39857  0.37467  1.0000
  C   C1479     1.0  0.24983  0.02621  0.37300  1.0000
  H   H1191     1.0  0.24759  0.02326  0.35685  1.0000
  S   S196      1.0  0.37646  0.46987  0.44716  1.0000
  H   H1192     1.0  0.34124  0.31071  0.99261  1.0000
  H   H1193     1.0  0.30950  0.47440  0.24795  1.0000
  H   H1194     1.0  0.20856  0.26671  0.32541  1.0000
  H   H1195     1.0  0.33484  0.32273  0.24108  1.0000
  C   C1480     1.0  0.25222  0.40520  0.14555  1.0000
  C   C1481     1.0  0.29331  0.42113  0.03701  1.0000
  C   C1482     1.0  0.35272  0.39430  0.39579  1.0000
  H   H1196     1.0  0.22672  0.00794  0.39351  1.0000
  C   C1483     1.0  0.21534  0.46026  0.16711  1.0000
  C   C1484     1.0  0.25580  0.38110  0.10900  1.0000
  C   C1485     1.0  0.27799  0.41370  0.05368  1.0000
  H   H1197     1.0  0.25474  0.46173  0.44118  1.0000
  H   H1198     1.0  0.19487  0.16213  0.00912  1.0000
  C   C1486     1.0  0.26470  0.44123  0.13598  1.0000
  C   C1487     1.0  0.31228  0.46827  0.21484  1.0000
  C   C1488     1.0  0.21136  0.45490  0.25726  1.0000
  H   H1199     1.0  0.33091  0.37596  0.39158  1.0000
  H   H1200     1.0  0.21223  0.14010  0.26375  1.0000
  C   C1489     1.0  0.18758  0.22391  0.34300  1.0000
  H   H1201     1.0  0.21070  0.16887  0.20034  1.0000
  C   C1490     1.0  0.35451  0.42232  0.46612  1.0000
  H   H1202     1.0  0.21128  0.03480  0.41465  1.0000
  C   C1491     1.0  0.25286  0.41370  0.16366  1.0000
  C   C1492     1.0  0.25916  0.43168  0.15888  1.0000
  H   H1203     1.0  0.21374  0.43298  0.07850  1.0000
  C   C1493     1.0  0.30747  0.19875  0.97031  1.0000
  S   S197      1.0  0.35783  0.26434  0.98040  1.0000
  C   C1494     1.0  0.19351  0.26458  0.00249  1.0000
  C   C1495     1.0  0.35357  0.46624  0.00688  1.0000
  H   H1204     1.0  0.20036  0.17707  0.39338  1.0000
  C   C1496     1.0  0.37471  0.19166  0.32343  1.0000
  C   C1497     1.0  0.35628  0.19545  0.98046  1.0000
  C   C1498     1.0  0.34569  0.46777  0.04697  1.0000
  C   C1499     1.0  0.18827  0.44042  0.35796  1.0000
  P   P48       1.0  0.33574  0.47504  0.97343  1.0000
  C   C1500     1.0  0.21706  0.44540  0.27457  1.0000
  H   H1205     1.0  0.19155  0.25094  0.01019  1.0000
  C   C1501     1.0  0.31186  0.49012  0.28331  1.0000
  H   H1206     1.0  0.35133  0.08450  0.45988  1.0000
  H   H1207     1.0  0.18922  0.21151  0.34038  1.0000
  C   C1502     1.0  0.35484  0.99901  0.98333  1.0000
  H   H1208     1.0  0.20960  0.24915  0.21718  1.0000
  H   H1209     1.0  0.27441  0.49199  0.22160  1.0000
  H   H1210     1.0  0.18579  0.14839  0.38814  1.0000
  C   C1503     1.0  0.37787  0.26147  0.05241  1.0000
  C   C1504     1.0  0.38020  0.01531  0.44735  1.0000
  H   H1211     1.0  0.30127  0.14762  0.45151  1.0000
  C   C1505     1.0  0.33489  0.44047  0.97347  1.0000
  C   C1506     1.0  0.36847  0.20325  0.33493  1.0000
  C   C1507     1.0  0.37853  0.21267  0.34697  1.0000
  C   C1508     1.0  0.20212  0.16021  0.24750  1.0000
  H   H1212     1.0  0.38265  0.27144  0.17347  1.0000
  H   H1213     1.0  0.37370  0.22163  0.35599  1.0000
  C   C1509     1.0  0.19280  0.44424  0.99284  1.0000
  H   H1214     1.0  0.20389  0.44105  0.02245  1.0000
  C   C1510     1.0  0.37410  0.40092  0.45029  1.0000
  H   H1215     1.0  0.19591  0.21254  0.14424  1.0000
  H   H1216     1.0  0.19291  0.15123  0.24180  1.0000
  C   C1511     1.0  0.38241  0.25145  0.27808  1.0000
  C   C1512     1.0  0.18559  0.17360  0.32083  1.0000
  C   C1513     1.0  0.37946  0.14267  0.96916  1.0000
  S   S198      1.0  0.26278  0.49265  0.13807  1.0000
  C   C1514     1.0  0.18691  0.33496  0.03179  1.0000
  C   C1515     1.0  0.18514  0.02204  0.41709  1.0000
  P   P49       1.0  0.20257  0.32274  0.96978  1.0000
  C   C1516     1.0  0.36865  0.01864  0.46492  1.0000
  H   H1217     1.0  0.18399  0.12952  0.03625  1.0000
  C   C1517     1.0  0.18651  0.20683  0.23177  1.0000
  C   C1518     1.0  0.31200  0.14729  0.45943  1.0000
  C   C1519     1.0  0.31790  0.13235  0.46258  1.0000
  C   C1520     1.0  0.30789  0.48935  0.97829  1.0000
  C   C1521     1.0  0.29053  0.48879  0.98162  1.0000
  H   H1218     1.0  0.31543  0.17340  0.46404  1.0000
  C   C1522     1.0  0.28762  0.46411  0.46807  1.0000
  C   C1523     1.0  0.31517  0.08531  0.46774  1.0000
  C   C1524     1.0  0.36223  0.01566  0.96934  1.0000
  C   C1525     1.0  0.23959  0.40792  0.46838  1.0000
  C   C1526     1.0  0.31994  0.16178  0.46650  1.0000
  H   H1219     1.0  0.18403  0.20838  0.18595  1.0000
  C   C1527     1.0  0.18409  0.23953  0.23867  1.0000
  S   S199      1.0  0.28472  0.42068  0.93918  1.0000
  H   H1220     1.0  0.29626  0.47683  0.66138  1.0000
  H   H1221     1.0  0.18946  0.38239  0.94837  1.0000
  H   H1222     1.0  0.37702  0.32443  0.86236  1.0000
  C   C1528     1.0  0.21211  0.42893  0.53866  1.0000
  H   H1223     1.0  0.26359  0.48059  0.58880  1.0000
  S   S200      1.0  0.33526  0.08361  0.53742  1.0000
  H   H1224     1.0  0.26862  0.44158  0.84333  1.0000
  S   S201      1.0  0.20049  0.41960  0.94731  1.0000
  H   H1225     1.0  0.21961  0.48005  0.55296  1.0000
  Fe  Fe101     1.0  0.36148  0.11029  0.84115  1.0000
  H   H1226     1.0  0.34774  0.43908  0.60332  1.0000
  S   S202      1.0  0.33604  0.09109  0.84180  1.0000
  C   C1529     1.0  0.30848  0.01761  0.59493  1.0000
  S   S203      1.0  0.19190  0.46290  0.59528  1.0000
  H   H1227     1.0  0.20238  0.07204  0.77713  1.0000
  H   H1228     1.0  0.25680  0.47440  0.49643  1.0000
  H   H1229     1.0  0.29984  0.48983  0.57119  1.0000
  H   H1230     1.0  0.27894  0.45518  0.93060  1.0000
  C   C1530     1.0  0.21909  0.03858  0.49034  1.0000
  C   C1531     1.0  0.21167  0.44839  0.82057  1.0000
  C   C1532     1.0  0.22350  0.47920  0.53515  1.0000
  H   H1231     1.0  0.33911  0.49248  0.69062  1.0000
  S   S204      1.0  0.28637  0.01942  0.51468  1.0000
  S   S205      1.0  0.23908  0.00755  0.55857  1.0000
  Fe  Fe102     1.0  0.27098  0.01107  0.73157  1.0000
  S   S206      1.0  0.29143  0.00428  0.74862  1.0000
  S   S207      1.0  0.27536  0.01715  0.69193  1.0000
  Fe  Fe103     1.0  0.24834  0.00942  0.77841  1.0000
  S   S208      1.0  0.26700  0.00185  0.79902  1.0000
  S   S209      1.0  0.22453  0.01817  0.79104  1.0000
  Fe  Fe104     1.0  0.28720  0.02252  0.77183  1.0000
  S   S210      1.0  0.31168  0.03996  0.77731  1.0000
  S   S211      1.0  0.26849  0.03113  0.75241  1.0000
  C   C1533     1.0  0.38063  0.17394  0.89985  1.0000
  S   S212      1.0  0.34793  0.46868  0.49348  1.0000
  C   C1534     1.0  0.22514  0.33170  0.95698  1.0000
  S   S213      1.0  0.36484  0.13915  0.83186  1.0000
  S   S214      1.0  0.19934  0.46740  0.65908  1.0000
  H   H1232     1.0  0.29890  0.44543  0.60644  1.0000
  H   H1233     1.0  0.28900  0.44500  0.49685  1.0000
  C   C1535     1.0  0.19067  0.41275  0.52279  1.0000
  C   C1536     1.0  0.18818  0.38420  0.87175  1.0000
  H   H1234     1.0  0.21038  0.44928  0.47067  1.0000
  C   C1537     1.0  0.34519  0.49263  0.65432  1.0000
  H   H1235     1.0  0.25977  0.32018  0.93050  1.0000
  H   H1236     1.0  0.32269  0.00929  0.79730  1.0000
  C   C1538     1.0  0.27194  0.43955  0.61970  1.0000
  C   C1539     1.0  0.29176  0.07999  0.50975  1.0000
  C   C1540     1.0  0.33967  0.16838  0.94717  1.0000
  C   C1541     1.0  0.26353  0.00708  0.67371  1.0000
  C   C1542     1.0  0.21682  0.03041  0.47223  1.0000
  C   C1543     1.0  0.22473  0.43361  0.88545  1.0000
  H   H1237     1.0  0.22900  0.46462  0.58883  1.0000
  C   C1544     1.0  0.32963  0.07693  0.82357  1.0000
  C   C1545     1.0  0.31226  0.06805  0.82762  1.0000
  C   C1546     1.0  0.30649  0.05682  0.81368  1.0000
  C   C1547     1.0  0.31805  0.05417  0.79546  1.0000
  C   C1548     1.0  0.33541  0.06309  0.79136  1.0000
  C   C1549     1.0  0.34116  0.07440  0.80521  1.0000
  H   H1238     1.0  0.30317  0.06989  0.84169  1.0000
  H   H1239     1.0  0.29313  0.05012  0.81713  1.0000
  H   H1240     1.0  0.34452  0.06118  0.77740  1.0000
  H   H1241     1.0  0.35452  0.08114  0.80171  1.0000
  C   C1550     1.0  0.32278  0.06477  0.53155  1.0000
  C   C1551     1.0  0.32736  0.05905  0.51139  1.0000
  C   C1552     1.0  0.31625  0.04490  0.50678  1.0000
  C   C1553     1.0  0.30048  0.03625  0.52225  1.0000
  C   C1554     1.0  0.29611  0.04163  0.54273  1.0000
  C   C1555     1.0  0.30723  0.05576  0.54736  1.0000
  H   H1242     1.0  0.33927  0.06573  0.49917  1.0000
  C   C1556     1.0  0.31851  0.99750  0.81087  1.0000
  H   H1243     1.0  0.28400  0.03518  0.55477  1.0000
  H   H1244     1.0  0.30353  0.06008  0.56298  1.0000
  H   H1245     1.0  0.31945  0.02318  0.62331  1.0000
  C   C1557     1.0  0.27533  0.46954  0.78698  1.0000
  C   C1558     1.0  0.33407  0.47794  0.57162  1.0000
  H   H1246     1.0  0.26058  0.42583  0.49945  1.0000
  H   H1247     1.0  0.36169  0.25756  0.93435  1.0000
  H   H1248     1.0  0.23421  0.04338  0.51520  1.0000
  C   C1559     1.0  0.18895  0.08190  0.86247  1.0000
  C   C1560     1.0  0.29821  0.44136  0.92490  1.0000
  C   C1561     1.0  0.29210  0.45617  0.92286  1.0000
  C   C1562     1.0  0.30306  0.47233  0.91063  1.0000
  C   C1563     1.0  0.32004  0.47379  0.89986  1.0000
  C   C1564     1.0  0.32622  0.45903  0.90213  1.0000
  C   C1565     1.0  0.31535  0.44288  0.91471  1.0000
  C   C1566     1.0  0.31477  0.17389  0.93436  1.0000
  H   H1249     1.0  0.33927  0.46000  0.89379  1.0000
  H   H1250     1.0  0.32018  0.43148  0.91620  1.0000
  H   H1251     1.0  0.34987  0.17143  0.95590  1.0000
  H   H1252     1.0  0.27786  0.46148  0.77499  1.0000
  H   H1253     1.0  0.28045  0.02370  0.64232  1.0000
  C   C1567     1.0  0.28800  0.06992  0.49403  1.0000
  C   C1568     1.0  0.30993  0.48112  0.65908  1.0000
  H   H1254     1.0  0.18612  0.45110  0.55465  1.0000
  H   H1255     1.0  0.24710  0.41381  0.56879  1.0000
  C   C1569     1.0  0.20455  0.00535  0.80867  1.0000
  H   H1256     1.0  0.23613  0.47517  0.47172  1.0000
  H   H1257     1.0  0.33429  0.43885  0.84499  1.0000
  C   C1570     1.0  0.25230  0.32829  0.93743  1.0000
  H   H1258     1.0  0.26490  0.01016  0.61586  1.0000
  H   H1259     1.0  0.21136  0.00240  0.69098  1.0000
  C   C1571     1.0  0.22139  0.04021  0.83980  1.0000
  C   C1572     1.0  0.24000  0.47785  0.52629  1.0000
  C   C1573     1.0  0.23858  0.04006  0.83580  1.0000
  H   H1260     1.0  0.31224  0.03101  0.58533  1.0000
  C   C1574     1.0  0.19542  0.41920  0.54119  1.0000
  H   H1261     1.0  0.19084  0.08432  0.84386  1.0000
  C   C1575     1.0  0.34407  0.21565  0.91488  1.0000
  H   H1262     1.0  0.36810  0.13154  0.74423  1.0000
  H   H1263     1.0  0.32727  0.14161  0.91270  1.0000
  C   C1576     1.0  0.34900  0.05340  0.92967  1.0000
  H   H1264     1.0  0.20499  0.47164  0.82743  1.0000
  C   C1577     1.0  0.24921  0.04814  0.84838  1.0000
  C   C1578     1.0  0.21717  0.44022  0.80309  1.0000
  C   C1579     1.0  0.29952  0.00477  0.58593  1.0000
  C   C1580     1.0  0.33408  0.48975  0.67589  1.0000
  C   C1581     1.0  0.35734  0.40898  0.48184  1.0000
  C   C1582     1.0  0.24442  0.47615  0.50341  1.0000
  C   C1583     1.0  0.23352  0.45376  0.58458  1.0000
  H   H1265     1.0  0.25056  0.46615  0.64247  1.0000
  C   C1584     1.0  0.33121  0.11218  0.78465  1.0000
  C   C1585     1.0  0.32169  0.10369  0.77117  1.0000
  C   C1586     1.0  0.32877  0.10540  0.74763  1.0000
  C   C1587     1.0  0.34566  0.11539  0.73801  1.0000
  P   P50       1.0  0.31643  0.09532  0.72948  1.0000
  C   C1588     1.0  0.32210  0.07584  0.72454  1.0000
  C   C1589     1.0  0.29386  0.08924  0.74304  1.0000
  C   C1590     1.0  0.28715  0.07451  0.76136  1.0000
  C   C1591     1.0  0.26969  0.06922  0.77166  1.0000
  C   C1592     1.0  0.25872  0.07850  0.76364  1.0000
  C   C1593     1.0  0.26526  0.09320  0.74542  1.0000
  C   C1594     1.0  0.28276  0.09858  0.73512  1.0000
  C   C1595     1.0  0.31109  0.06386  0.71631  1.0000
  C   C1596     1.0  0.31535  0.04879  0.71221  1.0000
  C   C1597     1.0  0.33057  0.04551  0.71644  1.0000
  C   C1598     1.0  0.34160  0.05736  0.72463  1.0000
  C   C1599     1.0  0.33739  0.07249  0.72870  1.0000
  C   C1600     1.0  0.32083  0.11097  0.70229  1.0000
  C   C1601     1.0  0.32407  0.10611  0.68108  1.0000
  C   C1602     1.0  0.32794  0.11850  0.66021  1.0000
  C   C1603     1.0  0.32860  0.13580  0.66034  1.0000
  C   C1604     1.0  0.32543  0.14075  0.68135  1.0000
  C   C1605     1.0  0.32157  0.12841  0.70225  1.0000
  H   H1266     1.0  0.18586  0.10745  0.86351  1.0000
  C   C1606     1.0  0.22567  0.43723  0.59864  1.0000
  H   H1267     1.0  0.32572  0.11078  0.80283  1.0000
  H   H1268     1.0  0.30889  0.09584  0.77932  1.0000
  H   H1269     1.0  0.35149  0.11674  0.71997  1.0000
  H   H1270     1.0  0.29544  0.06702  0.76757  1.0000
  H   H1271     1.0  0.26465  0.05770  0.78562  1.0000
  H   H1272     1.0  0.24516  0.07418  0.77149  1.0000
  H   H1273     1.0  0.25673  0.10037  0.73914  1.0000
  H   H1274     1.0  0.28748  0.10986  0.72089  1.0000
  H   H1275     1.0  0.29913  0.06607  0.71319  1.0000
  H   H1276     1.0  0.30667  0.03948  0.70616  1.0000
  C   C1607     1.0  0.31258  0.01317  0.61629  1.0000
  C   C1608     1.0  0.23075  0.42287  0.59316  1.0000
  H   H1277     1.0  0.34581  0.08121  0.73571  1.0000
  H   H1278     1.0  0.32371  0.09283  0.68047  1.0000
  H   H1279     1.0  0.30789  0.48228  0.69484  1.0000
  H   H1280     1.0  0.33153  0.14536  0.64414  1.0000
  H   H1281     1.0  0.32595  0.15417  0.68145  1.0000
  H   H1282     1.0  0.31918  0.13244  0.71842  1.0000
  C   C1609     1.0  0.22430  0.43163  0.51801  1.0000
  H   H1283     1.0  0.34774  0.11803  0.55823  1.0000
  H   H1284     1.0  0.27373  0.35071  0.92954  1.0000
  H   H1285     1.0  0.21531  0.43560  0.61347  1.0000
  H   H1286     1.0  0.35188  0.00854  0.49879  1.0000
  C   C1610     1.0  0.18502  0.40701  0.93556  1.0000
  H   H1287     1.0  0.35898  0.45062  0.56095  1.0000
  H   H1288     1.0  0.20440  0.40387  0.88263  1.0000
  H   H1289     1.0  0.37006  0.31967  0.79489  1.0000
  C   C1611     1.0  0.18983  0.33431  0.90721  1.0000
  H   H1290     1.0  0.36690  0.25759  0.89263  1.0000
  H   H1291     1.0  0.25089  0.01282  0.46935  1.0000
  C   C1612     1.0  0.26052  0.47536  0.78889  1.0000
  C   C1613     1.0  0.25519  0.44271  0.47119  1.0000
  H   H1292     1.0  0.30504  0.15785  0.91247  1.0000
  C   C1614     1.0  0.23219  0.37641  0.47711  1.0000
  S   S215      1.0  0.37150  0.48128  0.84357  1.0000
  H   H1293     1.0  0.35537  0.12844  0.78558  1.0000
  C   C1615     1.0  0.18418  0.01250  0.87743  1.0000
  C   C1616     1.0  0.33942  0.42713  0.96411  1.0000
  C   C1617     1.0  0.32571  0.47612  0.82035  1.0000
  C   C1618     1.0  0.33418  0.46304  0.82347  1.0000
  C   C1619     1.0  0.32760  0.44887  0.84239  1.0000
  C   C1620     1.0  0.31249  0.44773  0.85811  1.0000
  C   C1621     1.0  0.30419  0.46098  0.85531  1.0000
  P   P51       1.0  0.19232  0.04852  0.86142  1.0000
  C   C1622     1.0  0.19797  0.06191  0.81384  1.0000
  S   S216      1.0  0.20099  0.99705  0.52808  1.0000
  H   H1294     1.0  0.20907  0.48561  0.78630  1.0000
  P   P52       1.0  0.23493  0.42808  0.47242  1.0000
  C   C1623     1.0  0.23281  0.03756  0.50066  1.0000
  H   H1295     1.0  0.25160  0.47183  0.77838  1.0000
  C   C1624     1.0  0.20413  0.00875  0.73641  1.0000
  H   H1296     1.0  0.31502  0.22687  0.96338  1.0000
  H   H1297     1.0  0.29862  0.47000  0.79802  1.0000
  H   H1298     1.0  0.35826  0.31502  0.83704  1.0000
  H   H1299     1.0  0.35311  0.05451  0.72859  1.0000
  C   C1625     1.0  0.22157  0.01101  0.72724  1.0000
  C   C1626     1.0  0.32699  0.15144  0.92264  1.0000
  C   C1627     1.0  0.26916  0.49095  0.81716  1.0000
  C   C1628     1.0  0.28708  0.47439  0.80014  1.0000
  H   H1300     1.0  0.34594  0.46399  0.81130  1.0000
  C   C1629     1.0  0.19890  0.33042  0.92407  1.0000
  H   H1301     1.0  0.30744  0.43680  0.87288  1.0000
  H   H1302     1.0  0.19584  0.01271  0.86571  1.0000
  P   P53       1.0  0.25465  0.47704  0.54505  1.0000
  H   H1303     1.0  0.29285  0.46006  0.86815  1.0000
  H   H1304     1.0  0.21095  0.06781  0.81437  1.0000
  P   P54       1.0  0.31303  0.48093  0.61202  1.0000
  H   H1305     1.0  0.21229  0.33100  0.91861  1.0000
  H   H1306     1.0  0.33084  0.48680  0.80533  1.0000
  C   C1630     1.0  0.32244  0.99753  0.83240  1.0000
  H   H1307     1.0  0.35565  0.23071  0.88016  1.0000
  H   H1308     1.0  0.22350  0.36408  0.48656  1.0000
  S   S217      1.0  0.23677  0.39477  0.96343  1.0000
  C   C1631     1.0  0.35343  0.23073  0.89838  1.0000
  C   C1632     1.0  0.21460  0.04834  0.85653  1.0000
  H   H1309     1.0  0.34941  0.14845  0.93455  1.0000
  H   H1310     1.0  0.33546  0.12474  0.52223  1.0000
  H   H1311     1.0  0.25477  0.02734  0.50113  1.0000
  C   C1633     1.0  0.32755  0.47145  0.59550  1.0000
  C   C1634     1.0  0.38239  0.32643  0.84401  1.0000
  H   H1312     1.0  0.32980  0.00935  0.83541  1.0000
  C   C1635     1.0  0.23315  0.34895  0.95628  1.0000
  H   H1313     1.0  0.23706  0.05233  0.73147  1.0000
  C   C1636     1.0  0.19549  0.41483  0.85301  1.0000
  H   H1314     1.0  0.19623  0.33779  0.88905  1.0000
  C   C1637     1.0  0.21151  0.47301  0.79103  1.0000
  H   H1315     1.0  0.36643  0.15012  0.62657  1.0000
  C   C1638     1.0  0.36860  0.09376  0.52352  1.0000
  H   H1316     1.0  0.34935  0.05276  0.94764  1.0000
  C   C1639     1.0  0.38306  0.20856  0.84225  1.0000
  H   H1317     1.0  0.24538  0.43703  0.63422  1.0000
  C   C1640     1.0  0.28403  0.48506  0.81545  1.0000
  C   C1641     1.0  0.19959  0.99384  0.69016  1.0000
  C   C1642     1.0  0.23917  0.43267  0.89414  1.0000
  C   C1643     1.0  0.33698  0.06062  0.92066  1.0000
  H   H1318     1.0  0.29635  0.00818  0.56932  1.0000
  C   C1644     1.0  0.22783  0.04029  0.73266  1.0000
  H   H1319     1.0  0.23707  0.43921  0.51651  1.0000
  C   C1645     1.0  0.25635  0.43944  0.85508  1.0000
  H   H1320     1.0  0.32789  0.45233  0.62536  1.0000
  C   C1646     1.0  0.25497  0.43547  0.87899  1.0000
  H   H1321     1.0  0.28288  0.07767  0.52627  1.0000
  C   C1647     1.0  0.35695  0.24580  0.92887  1.0000
  C   C1648     1.0  0.31457  0.16068  0.92239  1.0000
  H   H1322     1.0  0.21913  0.42739  0.80749  1.0000
  H   H1323     1.0  0.38071  0.07674  0.92482  1.0000
  H   H1324     1.0  0.35054  0.47563  0.54093  1.0000
  H   H1325     1.0  0.36791  0.13929  0.96302  1.0000
  C   C1649     1.0  0.35252  0.46151  0.93924  1.0000
  C   C1650     1.0  0.35728  0.44820  0.93008  1.0000
  H   H1326     1.0  0.22052  0.06271  0.88225  1.0000
  H   H1327     1.0  0.36505  0.09189  0.48828  1.0000
  H   H1328     1.0  0.36952  0.38813  0.48621  1.0000
  C   C1651     1.0  0.19036  0.01238  0.81006  1.0000
  H   H1329     1.0  0.25245  0.47553  0.90187  1.0000
  H   H1330     1.0  0.37406  0.21555  0.84838  1.0000
  H   H1331     1.0  0.20714  0.47793  0.48753  1.0000
  H   H1332     1.0  0.34741  0.05638  0.86528  1.0000
  H   H1333     1.0  0.33361  0.03358  0.71389  1.0000
  P   P55       1.0  0.32864  0.19625  0.96005  1.0000
  H   H1334     1.0  0.26961  0.42685  0.61589  1.0000
  H   H1335     1.0  0.21732  0.39099  0.49375  1.0000
  H   H1336     1.0  0.28326  0.46281  0.55505  1.0000
  H   H1337     1.0  0.19905  0.48036  0.52820  1.0000
  C   C1652     1.0  0.33945  0.15524  0.93510  1.0000
  H   H1338     1.0  0.31017  0.09999  0.51727  1.0000
  C   C1653     1.0  0.33387  0.16138  0.47649  1.0000
  C   C1654     1.0  0.26121  0.46169  0.63470  1.0000
  C   C1655     1.0  0.36692  0.01816  0.94517  1.0000
  H   H1339     1.0  0.36498  0.19173  0.82918  1.0000
  S   S218      1.0  0.24310  0.43616  0.96414  1.0000
  S   S219      1.0  0.37009  0.16131  0.88269  1.0000
  C   C1656     1.0  0.30497  0.47660  0.52754  1.0000
  C   C1657     1.0  0.25057  0.35581  0.94617  1.0000
  C   C1658     1.0  0.19871  0.45883  0.87968  1.0000
  C   C1659     1.0  0.28860  0.45016  0.61449  1.0000
  C   C1660     1.0  0.19314  0.06441  0.79271  1.0000
  H   H1340     1.0  0.26043  0.44285  0.54317  1.0000
  C   C1661     1.0  0.36289  0.00392  0.93520  1.0000
  H   H1341     1.0  0.22446  0.41005  0.60395  1.0000
  C   C1662     1.0  0.21972  0.42480  0.49960  1.0000
  C   C1663     1.0  0.34807  0.23061  0.94544  1.0000
  H   H1342     1.0  0.22289  0.44153  0.76643  1.0000
  H   H1343     1.0  0.31974  0.04086  0.49088  1.0000
  C   C1664     1.0  0.34128  0.45778  0.96101  1.0000
  C   C1665     1.0  0.37563  0.14324  0.63118  1.0000
  C   C1666     1.0  0.36086  0.00591  0.48524  1.0000
  C   C1667     1.0  0.34483  0.11730  0.52184  1.0000
  C   C1668     1.0  0.34532  0.47038  0.55929  1.0000
  C   C1669     1.0  0.23330  0.02680  0.72493  1.0000
  C   C1670     1.0  0.34794  0.12212  0.77494  1.0000
  C   C1671     1.0  0.31647  0.48407  0.67823  1.0000
  C   C1672     1.0  0.35514  0.12377  0.75162  1.0000
  P   P56       1.0  0.33891  0.11211  0.47731  1.0000
  H   H1344     1.0  0.36821  0.09801  0.55958  1.0000
  H   H1345     1.0  0.22899  0.30813  0.94747  1.0000
  S   S220      1.0  0.37310  0.14745  0.52035  1.0000
  C   C1673     1.0  0.26427  0.48492  0.89239  1.0000
  H   H1346     1.0  0.25084  0.06251  0.87487  1.0000
  P   P57       1.0  0.37713  0.03952  0.92685  1.0000
  C   C1674     1.0  0.35018  0.45634  0.57064  1.0000
  C   C1675     1.0  0.33652  0.06179  0.89742  1.0000
  C   C1676     1.0  0.34781  0.05538  0.88332  1.0000
  C   C1677     1.0  0.24651  0.45608  0.56484  1.0000
  H   H1347     1.0  0.35757  0.47464  0.92913  1.0000
  C   C1678     1.0  0.26017  0.34546  0.93688  1.0000
  H   H1348     1.0  0.37666  0.08490  0.52434  1.0000
  C   C1679     1.0  0.31075  0.47532  0.83642  1.0000
  C   C1680     1.0  0.26040  0.00532  0.63439  1.0000
  S   S221      1.0  0.37124  0.11230  0.87361  1.0000
  C   C1681     1.0  0.33995  0.14653  0.47938  1.0000
  C   C1682     1.0  0.23484  0.32146  0.94725  1.0000
  C   C1683     1.0  0.35184  0.11319  0.54322  1.0000
  H   H1349     1.0  0.21251  0.43093  0.89750  1.0000
  H   H1350     1.0  0.36831  0.04308  0.88106  1.0000
  C   C1684     1.0  0.18497  0.41085  0.83780  1.0000
  C   C1685     1.0  0.21932  0.44819  0.77981  1.0000
  C   C1686     1.0  0.34384  0.44986  0.59445  1.0000
  Fe  Fe105     1.0  0.19357  0.47721  0.62465  1.0000
  H   H1351     1.0  0.19176  0.02526  0.80002  1.0000
  C   C1687     1.0  0.34962  0.10969  0.50123  1.0000
  C   C1688     1.0  0.36080  0.04749  0.91540  1.0000
  Fe  Fe106     1.0  0.37705  0.14150  0.86213  1.0000
  H   H1352     1.0  0.33914  0.20419  0.90898  1.0000
  H   H1353     1.0  0.24669  0.02848  0.71738  1.0000
  C   C1689     1.0  0.19250  0.44671  0.86733  1.0000
  H   H1354     1.0  0.21765  0.47050  0.75574  1.0000
  C   C1690     1.0  0.26918  0.01303  0.64950  1.0000
  H   H1355     1.0  0.21217  0.46269  0.87937  1.0000
  C   C1691     1.0  0.30734  0.09253  0.50468  1.0000
  H   H1356     1.0  0.34623  0.23078  0.96359  1.0000
  C   C1692     1.0  0.27660  0.48117  0.52969  1.0000
  C   C1693     1.0  0.21056  0.03803  0.74243  1.0000
  H   H1357     1.0  0.24321  0.44327  0.82781  1.0000
  C   C1694     1.0  0.24259  0.05629  0.86507  1.0000
  C   C1695     1.0  0.29964  0.07267  0.47296  1.0000
  H   H1358     1.0  0.32817  0.06556  0.93157  1.0000
  C   C1696     1.0  0.33262  0.45741  0.60686  1.0000
  P   P58       1.0  0.29952  0.49195  0.83180  1.0000
  C   C1697     1.0  0.22535  0.05638  0.86919  1.0000
  H   H1359     1.0  0.26254  0.04799  0.84528  1.0000
  H   H1360     1.0  0.24360  0.03355  0.82300  1.0000
  C   C1698     1.0  0.37988  0.13126  0.61878  1.0000
  Fe  Fe107     1.0  0.22054  0.41352  0.96750  1.0000
  P   P59       1.0  0.20679  0.43707  0.85064  1.0000
  C   C1699     1.0  0.20919  0.46502  0.81435  1.0000
  C   C1700     1.0  0.35978  0.24584  0.90537  1.0000
  C   C1701     1.0  0.21637  0.46452  0.77378  1.0000
  H   H1361     1.0  0.21546  0.43447  0.55272  1.0000
  C   C1702     1.0  0.22591  0.43741  0.86149  1.0000
  C   C1703     1.0  0.24434  0.02845  0.49280  1.0000
  Fe  Fe108     1.0  0.37051  0.11952  0.51357  1.0000
  C   C1704     1.0  0.19074  0.32617  0.94766  1.0000
  H   H1362     1.0  0.19877  0.41078  0.48786  1.0000
  H   H1363     1.0  0.26608  0.43445  0.88587  1.0000
  C   C1705     1.0  0.20272  0.41569  0.50205  1.0000
  H   H1364     1.0  0.21337  0.03388  0.82988  1.0000
  H   H1365     1.0  0.19477  0.35628  0.96666  1.0000
  C   C1706     1.0  0.30766  0.99589  0.62872  1.0000
  C   C1707     1.0  0.36370  0.10143  0.54408  1.0000
  H   H1366     1.0  0.31359  0.46998  0.53465  1.0000
  H   H1367     1.0  0.20985  0.04515  0.49697  1.0000
  C   C1708     1.0  0.34126  0.21548  0.93859  1.0000
  C   C1709     1.0  0.27292  0.48293  0.87129  1.0000
  H   H1368     1.0  0.32749  0.06775  0.89022  1.0000
  C   C1710     1.0  0.27782  0.47239  0.62937  1.0000
  C   C1711     1.0  0.36167  0.09793  0.50225  1.0000
  H   H1369     1.0  0.35233  0.40723  0.50022  1.0000
  C   C1712     1.0  0.19871  0.02235  0.74426  1.0000
  H   H1370     1.0  0.23798  0.42943  0.91271  1.0000
  H   H1371     1.0  0.30541  0.18133  0.93328  1.0000
  C   C1713     1.0  0.25828  0.44527  0.62994  1.0000
  C   C1714     1.0  0.24189  0.44044  0.84633  1.0000
  C   C1715     1.0  0.29171  0.46664  0.61952  1.0000
  H   H1372     1.0  0.35110  0.14672  0.48641  1.0000
  C   C1716     1.0  0.24352  0.42502  0.57337  1.0000
  H   H1373     1.0  0.36563  0.19245  0.89616  1.0000
  C   C1717     1.0  0.25740  0.48601  0.80402  1.0000
  C   C1718     1.0  0.25119  0.44153  0.55903  1.0000
  C   C1719     1.0  0.28771  0.47244  0.53885  1.0000
  H   H1374     1.0  0.35415  0.42071  0.93510  1.0000
  C   C1720     1.0  0.24206  0.02019  0.47480  1.0000
  H   H1375     1.0  0.37796  0.20949  0.92223  1.0000
  C   C1721     1.0  0.18747  0.46593  0.89288  1.0000
  C   C1722     1.0  0.28123  0.44876  0.48517  1.0000
  C   C1723     1.0  0.23265  0.47635  0.48941  1.0000
  Fe  Fe109     1.0  0.25888  0.41693  0.96293  1.0000
  C   C1724     1.0  0.26515  0.43800  0.48661  1.0000
  H   H1376     1.0  0.18891  0.37394  0.88544  1.0000
  C   C1725     1.0  0.37794  0.19521  0.83136  1.0000
  C   C1726     1.0  0.32101  0.48395  0.63735  1.0000
  H   H1377     1.0  0.36588  0.00559  0.91659  1.0000
  Fe  Fe110     1.0  0.26144  0.00120  0.53764  1.0000
  H   H1378     1.0  0.38287  0.15408  0.70711  1.0000
  H   H1379     1.0  0.29833  0.48373  0.90936  1.0000
  H   H1380     1.0  0.33042  0.11465  0.64391  1.0000
  H   H1381     1.0  0.22612  0.35707  0.96393  1.0000
  H   H1382     1.0  0.36596  0.45123  0.91320  1.0000
  H   H1383     1.0  0.34714  0.43076  0.47234  1.0000
  H   H1384     1.0  0.25673  0.36907  0.94604  1.0000
  C   C1727     1.0  0.36714  0.39830  0.47394  1.0000
  C   C1728     1.0  0.31940  0.09498  0.48393  1.0000
  H   H1385     1.0  0.27622  0.05974  0.49840  1.0000
  C   C1729     1.0  0.35978  0.04805  0.89231  1.0000
  C   C1730     1.0  0.37531  0.18862  0.90424  1.0000
  C   C1731     1.0  0.37171  0.32112  0.82971  1.0000
  H   H1386     1.0  0.36420  0.19966  0.96309  1.0000
  H   H1387     1.0  0.26750  0.47213  0.86451  1.0000
  C   C1732     1.0  0.35066  0.43101  0.94244  1.0000
  C   C1733     1.0  0.19693  0.40133  0.87012  1.0000
  H   H1388     1.0  0.20638  0.04830  0.74900  1.0000
  H   H1389     1.0  0.22610  0.00055  0.72178  1.0000
  Fe  Fe111     1.0  0.37358  0.46273  0.48563  1.0000
  H   H1390     1.0  0.19223  0.47488  0.90290  1.0000
  C   C1734     1.0  0.18624  0.09511  0.87350  1.0000
  C   C1735     1.0  0.26020  0.49221  0.58163  1.0000
  C   C1736     1.0  0.22869  0.39184  0.48106  1.0000
  H   H1391     1.0  0.27979  0.48519  0.63295  1.0000
  H   H1392     1.0  0.37936  0.18220  0.71388  1.0000
  C   C1737     1.0  0.21176  0.47932  0.52114  1.0000
  C   C1738     1.0  0.37835  0.32375  0.80597  1.0000
  C   C1739     1.0  0.31129  0.48968  0.50729  1.0000
  H   H1393     1.0  0.24599  0.49066  0.80529  1.0000
  C   C1740     1.0  0.18658  0.06311  0.89963  1.0000
  H   H1394     1.0  0.37414  0.12901  0.60445  1.0000
  H   H1395     1.0  0.18674  0.05083  0.91004  1.0000
  C   C1741     1.0  0.38218  0.19823  0.91922  1.0000
  C   C1742     1.0  0.18900  0.06574  0.87549  1.0000
  S   S222      1.0  0.37978  0.43874  0.50370  1.0000
  C   C1743     1.0  0.32732  0.17786  0.94689  1.0000
  C   C1744     1.0  0.33178  0.13175  0.47294  1.0000
  H   H1396     1.0  0.37782  0.08667  0.72573  1.0000
  H   H1397     1.0  0.33082  0.48900  0.56244  1.0000
  H   H1398     1.0  0.20806  0.99681  0.65336  1.0000
  C   C1745     1.0  0.18363  0.07627  0.91061  1.0000
  C   C1746     1.0  0.21633  0.47792  0.49828  1.0000
  H   H1399     1.0  0.38208  0.20037  0.50912  1.0000
  C   C1747     1.0  0.33869  0.49003  0.63506  1.0000
  H   H1400     1.0  0.18548  0.02087  0.75220  1.0000
  C   C1748     1.0  0.18615  0.05173  0.83406  1.0000
  H   H1401     1.0  0.34018  0.17271  0.48168  1.0000
  H   H1402     1.0  0.38059  0.15655  0.65770  1.0000
  H   H1403     1.0  0.18608  0.41681  0.55734  1.0000
  C   C1749     1.0  0.18344  0.09224  0.89756  1.0000
  H   H1404     1.0  0.34748  0.49306  0.61829  1.0000
  H   H1405     1.0  0.32472  0.49312  0.49873  1.0000
  C   C1750     1.0  0.32673  0.50096  0.26778  1.0000
  S   S223      1.0  0.26953  0.86748  0.40701  1.0000
  C   C1751     1.0  0.20086  0.71884  0.31266  1.0000
  H   H1406     1.0  0.20584  0.51640  0.24654  1.0000
  H   H1407     1.0  0.30352  0.88112  0.98436  1.0000
  H   H1408     1.0  0.36470  0.83828  0.00083  1.0000
  H   H1409     1.0  0.22062  0.80890  0.97378  1.0000
  Fe  Fe112     1.0  0.36077  0.91548  0.00790  1.0000
  S   S224      1.0  0.35198  0.91028  0.04690  1.0000
  S   S225      1.0  0.35181  0.93585  0.98642  1.0000
  Fe  Fe113     1.0  0.34104  0.84432  0.20041  1.0000
  S   S226      1.0  0.33080  0.81591  0.21680  1.0000
  S   S227      1.0  0.34029  0.86546  0.22069  1.0000
  Fe  Fe114     1.0  0.35097  0.83742  0.15208  1.0000
  S   S228      1.0  0.34177  0.80843  0.16547  1.0000
  S   S229      1.0  0.36456  0.84687  0.11402  1.0000
  Fe  Fe115     1.0  0.31870  0.81368  0.18632  1.0000
  S   S230      1.0  0.29027  0.79919  0.19293  1.0000
  Fe  Fe116     1.0  0.35466  0.81322  0.19438  1.0000
  S   S231      1.0  0.32728  0.84258  0.17137  1.0000
  S   S232      1.0  0.36544  0.84170  0.17962  1.0000
  S   S233      1.0  0.21229  0.71420  0.12715  1.0000
  S   S234      1.0  0.20414  0.71332  0.18308  1.0000
  Fe  Fe117     1.0  0.22034  0.73208  0.15025  1.0000
  S   S235      1.0  0.24899  0.74519  0.14422  1.0000
  S   S236      1.0  0.20011  0.74609  0.14543  1.0000
  Fe  Fe118     1.0  0.36827  0.90358  0.37311  1.0000
  S   S237      1.0  0.36493  0.91574  0.33829  1.0000
  S   S238      1.0  0.34808  0.89320  0.40673  1.0000
  C   C1752     1.0  0.22640  0.53724  0.22481  1.0000
  Fe  Fe119     1.0  0.24946  0.85592  0.44066  1.0000
  C   C1753     1.0  0.24153  0.60317  0.11689  1.0000
  C   C1754     1.0  0.22535  0.72927  0.27994  1.0000
  C   C1755     1.0  0.29349  0.79470  0.03369  1.0000
  H   H1410     1.0  0.33385  0.83275  0.01751  1.0000
  H   H1411     1.0  0.22557  0.82371  0.40744  1.0000
  Fe  Fe120     1.0  0.27193  0.52120  0.13592  1.0000
  S   S239      1.0  0.29581  0.52506  0.10810  1.0000
  S   S240      1.0  0.25611  0.54081  0.13064  1.0000
  Fe  Fe121     1.0  0.30874  0.52030  0.13776  1.0000
  S   S241      1.0  0.33694  0.53263  0.13761  1.0000
  C   C1756     1.0  0.28601  0.53170  0.26364  1.0000
  H   H1412     1.0  0.33319  0.54976  0.23523  1.0000
  C   C1757     1.0  0.34859  0.55042  0.14699  1.0000
  C   C1758     1.0  0.34078  0.56197  0.15662  1.0000
  C   C1759     1.0  0.35068  0.57613  0.16301  1.0000
  C   C1760     1.0  0.36853  0.57906  0.15996  1.0000
  C   C1761     1.0  0.37631  0.56741  0.15049  1.0000
  C   C1762     1.0  0.36641  0.55322  0.14415  1.0000
  H   H1413     1.0  0.32714  0.56010  0.15897  1.0000
  H   H1414     1.0  0.34443  0.58495  0.17036  1.0000
  H   H1415     1.0  0.27529  0.78185  0.06600  1.0000
  H   H1416     1.0  0.37269  0.54447  0.13669  1.0000
  C   C1763     1.0  0.23347  0.53634  0.13858  1.0000
  C   C1764     1.0  0.22548  0.54927  0.13109  1.0000
  C   C1765     1.0  0.20764  0.54660  0.13816  1.0000
  C   C1766     1.0  0.21391  0.78449  0.24532  1.0000
  C   C1767     1.0  0.20557  0.51806  0.16021  1.0000
  C   C1768     1.0  0.22333  0.52051  0.15273  1.0000
  H   H1417     1.0  0.23313  0.56137  0.11969  1.0000
  C   C1769     1.0  0.33691  0.96398  0.40118  1.0000
  H   H1418     1.0  0.22917  0.51025  0.15812  1.0000
  C   C1770     1.0  0.22990  0.71366  0.28595  1.0000
  C   C1771     1.0  0.35092  0.86924  0.24316  1.0000
  C   C1772     1.0  0.34956  0.88351  0.25288  1.0000
  C   C1773     1.0  0.35766  0.88690  0.27086  1.0000
  C   C1774     1.0  0.36710  0.87593  0.27950  1.0000
  H   H1419     1.0  0.35482  0.94075  0.43301  1.0000
  C   C1775     1.0  0.36037  0.85828  0.25181  1.0000
  H   H1420     1.0  0.34225  0.89205  0.24638  1.0000
  H   H1421     1.0  0.35663  0.89800  0.27797  1.0000
  C   C1776     1.0  0.35993  0.52588  0.21665  1.0000
  H   H1422     1.0  0.36144  0.84718  0.24468  1.0000
  C   C1777     1.0  0.27903  0.78487  0.17823  1.0000
  C   C1778     1.0  0.26103  0.77964  0.18452  1.0000
  C   C1779     1.0  0.25163  0.76768  0.17422  1.0000
  C   C1780     1.0  0.26009  0.76080  0.15734  1.0000
  C   C1781     1.0  0.27806  0.76626  0.15075  1.0000
  C   C1782     1.0  0.28748  0.77817  0.16112  1.0000
  H   H1423     1.0  0.25424  0.78486  0.19744  1.0000
  H   H1424     1.0  0.23785  0.76376  0.17936  1.0000
  H   H1425     1.0  0.28478  0.76109  0.13770  1.0000
  H   H1426     1.0  0.30127  0.78202  0.15602  1.0000
  H   H1427     1.0  0.29924  0.88341  0.37011  1.0000
  Fe  Fe122     1.0  0.18342  0.72629  0.17681  1.0000
  C   C1783     1.0  0.35487  0.89210  0.06520  1.0000
  C   C1784     1.0  0.34851  0.88902  0.08919  1.0000
  C   C1785     1.0  0.35095  0.87490  0.10436  1.0000
  C   C1786     1.0  0.35987  0.86383  0.09559  1.0000
  C   C1787     1.0  0.36592  0.86670  0.07156  1.0000
  C   C1788     1.0  0.36345  0.88079  0.05638  1.0000
  H   H1428     1.0  0.34179  0.89768  0.09611  1.0000
  H   H1429     1.0  0.34619  0.87279  0.12283  1.0000
  C   C1789     1.0  0.22271  0.79807  0.07303  1.0000
  C   C1790     1.0  0.22157  0.50736  0.22106  1.0000
  S   S242      1.0  0.36602  0.50524  0.45505  1.0000
  S   S243      1.0  0.28541  0.51812  0.16534  1.0000
  C   C1791     1.0  0.29134  0.87432  0.40722  1.0000
  C   C1792     1.0  0.29687  0.87238  0.42786  1.0000
  C   C1793     1.0  0.31435  0.87790  0.42739  1.0000
  C   C1794     1.0  0.32641  0.88544  0.40636  1.0000
  C   C1795     1.0  0.32089  0.88732  0.38570  1.0000
  C   C1796     1.0  0.30341  0.88181  0.38616  1.0000
  H   H1430     1.0  0.28770  0.86663  0.44418  1.0000
  H   H1431     1.0  0.31852  0.87639  0.44343  1.0000
  H   H1432     1.0  0.33006  0.89312  0.36940  1.0000
  S   S244      1.0  0.37047  0.79633  0.20948  1.0000
  C   C1797     1.0  0.26877  0.82617  0.39080  1.0000
  C   C1798     1.0  0.26348  0.80847  0.39191  1.0000
  C   C1799     1.0  0.27292  0.80102  0.37687  1.0000
  C   C1800     1.0  0.28780  0.81123  0.36092  1.0000
  C   C1801     1.0  0.29329  0.82907  0.35975  1.0000
  C   C1802     1.0  0.28356  0.83643  0.37481  1.0000
  P   P60       1.0  0.31343  0.84216  0.34094  1.0000
  C   C1803     1.0  0.31937  0.83238  0.31711  1.0000
  C   C1804     1.0  0.31186  0.86375  0.32974  1.0000
  C   C1805     1.0  0.29638  0.86651  0.32543  1.0000
  C   C1806     1.0  0.29522  0.88327  0.31674  1.0000
  C   C1807     1.0  0.30953  0.89734  0.31207  1.0000
  C   C1808     1.0  0.32502  0.89465  0.31598  1.0000
  C   C1809     1.0  0.32623  0.87793  0.32471  1.0000
  C   C1810     1.0  0.31789  0.83938  0.29475  1.0000
  C   C1811     1.0  0.32213  0.83140  0.27667  1.0000
  C   C1812     1.0  0.32812  0.81658  0.28062  1.0000
  C   C1813     1.0  0.32969  0.80958  0.30277  1.0000
  C   C1814     1.0  0.32546  0.81750  0.32091  1.0000
  C   C1815     1.0  0.32965  0.84378  0.35747  1.0000
  H   H1433     1.0  0.38241  0.50265  0.40719  1.0000
  C   C1816     1.0  0.23239  0.76075  0.33700  1.0000
  H   H1434     1.0  0.28615  0.49996  0.98482  1.0000
  S   S245      1.0  0.38025  0.59723  0.16863  1.0000
  C   C1817     1.0  0.30616  0.87993  0.00142  1.0000
  H   H1435     1.0  0.20546  0.75161  0.98436  1.0000
  H   H1436     1.0  0.25213  0.80054  0.40459  1.0000
  H   H1437     1.0  0.29499  0.80504  0.34984  1.0000
  C   C1818     1.0  0.18883  0.61011  0.07987  1.0000
  H   H1438     1.0  0.28521  0.85574  0.32877  1.0000
  H   H1439     1.0  0.28323  0.88536  0.31361  1.0000
  H   H1440     1.0  0.30866  0.91032  0.30529  1.0000
  H   H1441     1.0  0.33617  0.90552  0.31215  1.0000
  H   H1442     1.0  0.33845  0.87617  0.32736  1.0000
  H   H1443     1.0  0.31368  0.85109  0.29103  1.0000
  H   H1444     1.0  0.32122  0.83700  0.25936  1.0000
  H   H1445     1.0  0.33180  0.81069  0.26643  1.0000
  H   H1446     1.0  0.33435  0.79812  0.30579  1.0000
  H   H1447     1.0  0.32692  0.81204  0.33796  1.0000
  H   H1448     1.0  0.31299  0.84526  0.38892  1.0000
  H   H1449     1.0  0.21205  0.79237  0.41454  1.0000
  H   H1450     1.0  0.25636  0.53353  0.18060  1.0000
  P   P61       1.0  0.22227  0.79173  0.33123  1.0000
  P   P62       1.0  0.30689  0.84594  0.00043  1.0000
  C   C1819     1.0  0.24307  0.80677  0.28678  1.0000
  H   H1451     1.0  0.30469  0.52016  0.20652  1.0000
  H   H1452     1.0  0.23891  0.59257  0.15343  1.0000
  P   P63       1.0  0.29623  0.92881  0.44855  1.0000
  H   H1453     1.0  0.27426  0.85445  0.00039  1.0000
  C   C1820     1.0  0.19398  0.58931  0.19663  1.0000
  C   C1821     1.0  0.20788  0.80032  0.97980  1.0000
  C   C1822     1.0  0.37276  0.56561  0.08348  1.0000
  Fe  Fe123     1.0  0.19464  0.69642  0.15972  1.0000
  H   H1454     1.0  0.26154  0.83195  0.40262  1.0000
  H   H1455     1.0  0.22893  0.49556  0.26289  1.0000
  H   H1456     1.0  0.24863  0.95937  0.43317  1.0000
  C   C1823     1.0  0.22320  0.74563  0.03105  1.0000
  C   C1824     1.0  0.29392  0.84641  0.97937  1.0000
  C   C1825     1.0  0.27826  0.85069  0.98439  1.0000
  C   C1826     1.0  0.23621  0.51232  0.20287  1.0000
  C   C1827     1.0  0.22948  0.74284  0.34484  1.0000
  C   C1828     1.0  0.23814  0.98121  0.43622  1.0000
  C   C1829     1.0  0.24555  0.52967  0.19536  1.0000
  C   C1830     1.0  0.21309  0.73268  0.35634  1.0000
  H   H1457     1.0  0.25743  0.80033  0.33631  1.0000
  C   C1831     1.0  0.30862  0.89457  0.01075  1.0000
  C   C1832     1.0  0.37601  0.80528  0.11436  1.0000
  H   H1458     1.0  0.25729  0.78571  0.01177  1.0000
  H   H1459     1.0  0.20250  0.81805  0.33122  1.0000
  C   C1833     1.0  0.31307  0.89369  0.03208  1.0000
  H   H1460     1.0  0.38210  0.78994  0.25660  1.0000
  H   H1461     1.0  0.22368  0.72076  0.05034  1.0000
  C   C1834     1.0  0.20502  0.78027  0.22867  1.0000
  H   H1462     1.0  0.35242  0.94760  0.03462  1.0000
  C   C1835     1.0  0.20239  0.75824  0.35195  1.0000
  H   H1463     1.0  0.24513  0.76836  0.32809  1.0000
  C   C1836     1.0  0.32234  0.95666  0.41925  1.0000
  C   C1837     1.0  0.27382  0.81771  0.27886  1.0000
  C   C1838     1.0  0.35160  0.98481  0.97330  1.0000
  H   H1464     1.0  0.31071  0.81079  0.00237  1.0000
  H   H1465     1.0  0.28496  0.79667  0.98322  1.0000
  C   C1839     1.0  0.20945  0.74507  0.99889  1.0000
  C   C1840     1.0  0.25767  0.80425  0.31811  1.0000
  H   H1466     1.0  0.18447  0.72287  0.27323  1.0000
  H   H1467     1.0  0.30636  0.52382  0.27655  1.0000
  C   C1841     1.0  0.29176  0.94381  0.46611  1.0000
  C   C1842     1.0  0.20077  0.93362  0.44314  1.0000
  P   P64       1.0  0.32566  0.51194  0.23936  1.0000
  C   C1843     1.0  0.24062  0.54214  0.20620  1.0000
  C   C1844     1.0  0.27330  0.81235  0.30237  1.0000
  H   H1468     1.0  0.24770  0.55561  0.19994  1.0000
  H   H1469     1.0  0.33879  0.96292  0.06151  1.0000
  H   H1470     1.0  0.34270  0.92735  0.38495  1.0000
  H   H1471     1.0  0.31711  0.96508  0.42875  1.0000
  H   H1472     1.0  0.31684  0.50108  0.97895  1.0000
  H   H1473     1.0  0.31909  0.87770  0.06031  1.0000
  H   H1474     1.0  0.24757  0.61137  0.07952  1.0000
  C   C1845     1.0  0.23055  0.63595  0.11529  1.0000
  C   C1846     1.0  0.25084  0.60444  0.09445  1.0000
  C   C1847     1.0  0.21120  0.60401  0.15026  1.0000
  C   C1848     1.0  0.35204  0.96284  0.06026  1.0000
  H   H1475     1.0  0.19171  0.76400  0.35481  1.0000
  H   H1476     1.0  0.24413  0.98801  0.41852  1.0000
  C   C1849     1.0  0.19954  0.74037  0.35974  1.0000
  C   C1850     1.0  0.21131  0.77613  0.05366  1.0000
  H   H1477     1.0  0.37066  0.52365  0.10155  1.0000
  C   C1851     1.0  0.35676  0.84388  0.99085  1.0000
  H   H1478     1.0  0.28499  0.81455  0.30839  1.0000
  H   H1479     1.0  0.27094  0.59690  0.07378  1.0000
  H   H1480     1.0  0.23155  0.80496  0.28037  1.0000
  C   C1852     1.0  0.37836  0.97055  0.07284  1.0000
  H   H1481     1.0  0.24026  0.50301  0.19395  1.0000
  H   H1482     1.0  0.28757  0.85007  0.37459  1.0000
  H   H1483     1.0  0.34623  0.97188  0.98416  1.0000
  C   C1853     1.0  0.20999  0.59011  0.09493  1.0000
  C   C1854     1.0  0.35672  0.52629  0.05151  1.0000
  H   H1484     1.0  0.20702  0.91118  0.43328  1.0000
  C   C1855     1.0  0.34475  0.52942  0.22693  1.0000
  H   H1485     1.0  0.36326  0.55376  0.09268  1.0000
  C   C1856     1.0  0.24218  0.78583  0.98594  1.0000
  H   H1486     1.0  0.34262  0.97782  0.39683  1.0000
  C   C1857     1.0  0.34660  0.84481  0.34692  1.0000
  C   C1858     1.0  0.30724  0.52072  0.24151  1.0000
  H   H1487     1.0  0.19659  0.58068  0.14346  1.0000
  H   H1488     1.0  0.36828  0.49806  0.97582  1.0000
  H   H1489     1.0  0.35509  0.49538  0.30139  1.0000
  C   C1859     1.0  0.26121  0.92135  0.45054  1.0000
  H   H1490     1.0  0.22359  0.62533  0.16342  1.0000
  C   C1860     1.0  0.19764  0.53112  0.15325  1.0000
  H   H1491     1.0  0.36082  0.78815  0.29214  1.0000
  S   S246      1.0  0.37750  0.87926  0.30229  1.0000
  H   H1492     1.0  0.28376  0.95980  0.43962  1.0000
  C   C1861     1.0  0.33925  0.84067  0.00016  1.0000
  C   C1862     1.0  0.27738  0.92141  0.43800  1.0000
  H   H1493     1.0  0.24147  0.82062  0.05119  1.0000
  C   C1863     1.0  0.24652  0.91502  0.44303  1.0000
  C   C1864     1.0  0.24775  0.90838  0.42322  1.0000
  C   C1865     1.0  0.26372  0.90831  0.41072  1.0000
  C   C1866     1.0  0.27847  0.91474  0.41806  1.0000
  H   H1494     1.0  0.19099  0.95340  0.45609  1.0000
  C   C1867     1.0  0.32571  0.84513  0.38059  1.0000
  C   C1868     1.0  0.36133  0.97091  0.07423  1.0000
  C   C1869     1.0  0.18507  0.78680  0.29454  1.0000
  S   S247      1.0  0.19171  0.66731  0.17121  1.0000
  C   C1870     1.0  0.31488  0.93870  0.42492  1.0000
  H   H1495     1.0  0.21531  0.67038  0.12527  1.0000
  C   C1871     1.0  0.35922  0.84643  0.35958  1.0000
  H   H1496     1.0  0.20989  0.77841  0.38202  1.0000
  H   H1497     1.0  0.27593  0.97941  0.46426  1.0000
  C   C1872     1.0  0.32244  0.92826  0.41243  1.0000
  H   H1498     1.0  0.31489  0.85178  0.04404  1.0000
  C   C1873     1.0  0.19831  0.78403  0.30502  1.0000
  C   C1874     1.0  0.33841  0.84697  0.39311  1.0000
  H   H1499     1.0  0.35951  0.57327  0.21821  1.0000
  H   H1500     1.0  0.18505  0.76191  0.01660  1.0000
  C   C1875     1.0  0.19934  0.58775  0.15641  1.0000
  H   H1501     1.0  0.36371  0.78398  0.14379  1.0000
  H   H1502     1.0  0.23632  0.90287  0.41789  1.0000
  H   H1503     1.0  0.26465  0.90272  0.39570  1.0000
  H   H1504     1.0  0.29054  0.91397  0.40840  1.0000
  H   H1505     1.0  0.38216  0.94683  0.03201  1.0000
  H   H1506     1.0  0.33229  0.51153  0.04875  1.0000
  H   H1507     1.0  0.18946  0.72078  0.32283  1.0000
  C   C1876     1.0  0.21025  0.60584  0.10162  1.0000
  H   H1508     1.0  0.30767  0.90676  0.00098  1.0000
  H   H1509     1.0  0.24531  0.68609  0.10612  1.0000
  C   C1877     1.0  0.28549  0.95774  0.45717  1.0000
  H   H1510     1.0  0.31722  0.91436  0.41680  1.0000
  C   C1878     1.0  0.19929  0.58449  0.08084  1.0000
  C   C1879     1.0  0.24241  0.80151  0.31046  1.0000
  C   C1880     1.0  0.23047  0.81968  0.35163  1.0000
  C   C1881     1.0  0.21737  0.79992  0.39692  1.0000
  C   C1882     1.0  0.30140  0.81049  0.01772  1.0000
  C   C1883     1.0  0.28517  0.52972  0.22438  1.0000
  C   C1884     1.0  0.20470  0.78448  0.99582  1.0000
  H   H1511     1.0  0.35552  0.95906  0.37475  1.0000
  C   C1885     1.0  0.28478  0.82494  0.04119  1.0000
  H   H1512     1.0  0.36185  0.58047  0.10539  1.0000
  C   C1886     1.0  0.25873  0.81480  0.27105  1.0000
  H   H1513     1.0  0.36006  0.53324  0.03359  1.0000
  H   H1514     1.0  0.23742  0.84126  0.36730  1.0000
  H   H1515     1.0  0.28110  0.83648  0.04422  1.0000
  H   H1516     1.0  0.24116  0.71148  0.27581  1.0000
  C   C1887     1.0  0.29728  0.82575  0.02154  1.0000
  C   C1888     1.0  0.22499  0.81763  0.39293  1.0000
  H   H1517     1.0  0.20788  0.61267  0.20384  1.0000
  H   H1518     1.0  0.22250  0.54693  0.23313  1.0000
  C   C1889     1.0  0.25748  0.78843  0.99348  1.0000
  H   H1519     1.0  0.27927  0.53146  0.20981  1.0000
  C   C1890     1.0  0.20604  0.72701  0.00381  1.0000
  H   H1520     1.0  0.32730  0.91932  0.45782  1.0000
  C   C1891     1.0  0.19467  0.80495  0.97067  1.0000
  H   H1521     1.0  0.35027  0.84497  0.32871  1.0000
  C   C1892     1.0  0.20648  0.76583  0.21979  1.0000
  C   C1893     1.0  0.21612  0.79207  0.37834  1.0000
  C   C1894     1.0  0.32982  0.50305  0.19656  1.0000
  H   H1522     1.0  0.38278  0.90028  0.09735  1.0000
  C   C1895     1.0  0.20523  0.70320  0.31822  1.0000
  P   P65       1.0  0.22355  0.61257  0.12081  1.0000
  C   C1896     1.0  0.27694  0.80915  0.05717  1.0000
  H   H1523     1.0  0.28592  0.82404  0.26661  1.0000
  H   H1524     1.0  0.26704  0.53875  0.24624  1.0000
  C   C1897     1.0  0.28132  0.79405  0.05346  1.0000
  H   H1525     1.0  0.26599  0.66982  0.09287  1.0000
  C   C1898     1.0  0.21170  0.78213  0.07386  1.0000
  H   H1526     1.0  0.18727  0.58363  0.21448  1.0000
  H   H1527     1.0  0.19334  0.83369  0.40563  1.0000
  C   C1899     1.0  0.35973  0.95429  0.04503  1.0000
  C   C1900     1.0  0.37467  0.55630  0.20820  1.0000
  C   C1901     1.0  0.21900  0.64532  0.12262  1.0000
  H   H1528     1.0  0.20162  0.55650  0.13214  1.0000
  H   H1529     1.0  0.28077  0.53500  0.27952  1.0000
  C   C1902     1.0  0.18573  0.82090  0.40626  1.0000
  C   C1903     1.0  0.30793  0.86422  0.01357  1.0000
  C   C1904     1.0  0.29962  0.52326  0.22262  1.0000
  C   C1905     1.0  0.33696  0.93559  0.39439  1.0000
  C   C1906     1.0  0.21693  0.51992  0.23227  1.0000
  H   H1530     1.0  0.36559  0.81091  0.31457  1.0000
  C   C1907     1.0  0.35511  0.84744  0.38271  1.0000
  C   C1908     1.0  0.23154  0.82751  0.37030  1.0000
  H   H1531     1.0  0.20826  0.70424  0.02633  1.0000
  C   C1909     1.0  0.18866  0.59446  0.07336  1.0000
  C   C1910     1.0  0.30050  0.52527  0.26192  1.0000
  H   H1532     1.0  0.23990  0.73679  0.34201  1.0000
  H   H1533     1.0  0.26883  0.78725  0.37789  1.0000
  S   S248      1.0  0.22325  0.85996  0.44097  1.0000
  H   H1534     1.0  0.19891  0.62763  0.09933  1.0000
  C   C1911     1.0  0.26408  0.59629  0.09112  1.0000
  H   H1535     1.0  0.26206  0.57807  0.14714  1.0000
  H   H1536     1.0  0.31555  0.90517  0.03896  1.0000
  S   S249      1.0  0.19240  0.81041  0.44986  1.0000
  C   C1912     1.0  0.22431  0.66331  0.11926  1.0000
  C   C1913     1.0  0.24078  0.96497  0.44446  1.0000
  H   H1537     1.0  0.25921  0.81883  0.25276  1.0000
  C   C1914     1.0  0.27320  0.79451  0.97737  1.0000
  C   C1915     1.0  0.19100  0.58031  0.17954  1.0000
  C   C1916     1.0  0.24593  0.59397  0.13595  1.0000
  C   C1917     1.0  0.26816  0.58689  0.11014  1.0000
  C   C1918     1.0  0.20496  0.79536  0.31811  1.0000
  H   H1538     1.0  0.20714  0.74385  0.28973  1.0000
  C   C1919     1.0  0.32900  0.84825  0.98747  1.0000
  C   C1920     1.0  0.37185  0.58083  0.09075  1.0000
  H   H1539     1.0  0.20591  0.63867  0.13121  1.0000
  C   C1921     1.0  0.31262  0.86350  0.03487  1.0000
  C   C1922     1.0  0.31506  0.87816  0.04414  1.0000
  H   H1540     1.0  0.21776  0.58193  0.10099  1.0000
  C   C1923     1.0  0.27830  0.53384  0.24491  1.0000
  C   C1924     1.0  0.36835  0.94698  0.42922  1.0000
  H   H1541     1.0  0.22994  0.75259  0.04173  1.0000
  H   H1542     1.0  0.21276  0.79571  0.25212  1.0000
  C   C1925     1.0  0.24122  0.67214  0.10851  1.0000
  H   H1543     1.0  0.21082  0.71880  0.36240  1.0000
  H   H1544     1.0  0.29684  0.78296  0.03084  1.0000
  C   C1926     1.0  0.19757  0.91602  0.44321  1.0000
  H   H1545     1.0  0.23561  0.82754  0.33420  1.0000
  C   C1927     1.0  0.21985  0.72757  0.03584  1.0000
  H   H1546     1.0  0.21266  0.94250  0.43298  1.0000
  C   C1928     1.0  0.34098  0.51395  0.05998  1.0000
  H   H1547     1.0  0.22298  0.80264  0.08876  1.0000
  S   S250      1.0  0.35520  0.89629  0.98612  1.0000
  P   P66       1.0  0.23849  0.74600  0.25542  1.0000
  C   C1929     1.0  0.25596  0.75892  0.26412  1.0000
  C   C1930     1.0  0.24644  0.73583  0.23296  1.0000
  C   C1931     1.0  0.26320  0.74233  0.21939  1.0000
  C   C1932     1.0  0.26891  0.73480  0.20144  1.0000
  C   C1933     1.0  0.25794  0.72084  0.19674  1.0000
  C   C1934     1.0  0.24136  0.71409  0.21038  1.0000
  C   C1935     1.0  0.23563  0.72148  0.22848  1.0000
  C   C1936     1.0  0.26557  0.77491  0.24966  1.0000
  C   C1937     1.0  0.27968  0.78458  0.25553  1.0000
  C   C1938     1.0  0.28405  0.77861  0.27624  1.0000
  C   C1939     1.0  0.27433  0.76288  0.29104  1.0000
  C   C1940     1.0  0.26038  0.75301  0.28498  1.0000
  C   C1941     1.0  0.22566  0.75958  0.24448  1.0000
  C   C1942     1.0  0.21675  0.75553  0.22762  1.0000
  H   H1548     1.0  0.22321  0.68851  0.30927  1.0000
  C   C1943     1.0  0.32366  0.49698  0.22062  1.0000
  H   H1549     1.0  0.19884  0.57213  0.07629  1.0000
  C   C1944     1.0  0.22409  0.77412  0.25334  1.0000
  C   C1945     1.0  0.25917  0.58582  0.13252  1.0000
  H   H1550     1.0  0.27183  0.75350  0.22200  1.0000
  H   H1551     1.0  0.28164  0.74029  0.19052  1.0000
  H   H1552     1.0  0.26215  0.71558  0.18212  1.0000
  H   H1553     1.0  0.23280  0.70343  0.20647  1.0000
  H   H1554     1.0  0.22259  0.71633  0.23851  1.0000
  H   H1555     1.0  0.26248  0.77970  0.23345  1.0000
  H   H1556     1.0  0.28734  0.79662  0.24374  1.0000
  H   H1557     1.0  0.29506  0.78613  0.28063  1.0000
  H   H1558     1.0  0.27780  0.75819  0.30701  1.0000
  H   H1559     1.0  0.25324  0.74073  0.29646  1.0000
  H   H1560     1.0  0.21749  0.74441  0.22047  1.0000
  C   C1946     1.0  0.21757  0.75447  0.01294  1.0000
  C   C1947     1.0  0.31630  0.90897  0.46754  1.0000
  H   H1561     1.0  0.37235  0.84770  0.35113  1.0000
  H   H1562     1.0  0.23062  0.77734  0.26657  1.0000
  C   C1948     1.0  0.34700  0.50838  0.09794  1.0000
  C   C1949     1.0  0.36270  0.52074  0.08960  1.0000
  C   C1950     1.0  0.19954  0.61578  0.09397  1.0000
  C   C1951     1.0  0.22277  0.80186  0.35550  1.0000
  H   H1563     1.0  0.19721  0.69303  0.33272  1.0000
  H   H1564     1.0  0.19788  0.50593  0.17137  1.0000
  H   H1565     1.0  0.34296  0.50190  0.11612  1.0000
  C   C1952     1.0  0.20560  0.60562  0.19064  1.0000
  H   H1566     1.0  0.36021  0.51276  0.21575  1.0000
  H   H1567     1.0  0.26751  0.80860  0.07255  1.0000
  H   H1568     1.0  0.33538  0.84859  0.41069  1.0000
  C   C1953     1.0  0.23286  0.80210  0.03165  1.0000
  S   S251      1.0  0.23949  0.82717  0.45450  1.0000
  C   C1954     1.0  0.21122  0.71826  0.02228  1.0000
  C   C1955     1.0  0.37399  0.96421  0.43055  1.0000
  H   H1569     1.0  0.18675  0.73249  0.36831  1.0000
  C   C1956     1.0  0.18491  0.81223  0.30998  1.0000
  P   P67       1.0  0.22185  0.77780  0.00663  1.0000
  C   C1957     1.0  0.29970  0.91001  0.46630  1.0000
  C   C1958     1.0  0.36834  0.86159  0.26990  1.0000
  H   H1570     1.0  0.32381  0.49571  0.08982  1.0000
  H   H1571     1.0  0.33612  0.51661  0.18897  1.0000
  C   C1959     1.0  0.37540  0.79379  0.13492  1.0000
  C   C1960     1.0  0.21435  0.61287  0.16760  1.0000
  H   H1572     1.0  0.37249  0.85794  0.06468  1.0000
  C   C1961     1.0  0.36776  0.52972  0.06627  1.0000
  H   H1573     1.0  0.38084  0.97416  0.99975  1.0000
  H   H1574     1.0  0.25685  0.63812  0.09889  1.0000
  H   H1575     1.0  0.27798  0.58000  0.10759  1.0000
  C   C1962     1.0  0.25284  0.66296  0.10109  1.0000
  H   H1576     1.0  0.23410  0.91470  0.45306  1.0000
  C   C1963     1.0  0.19808  0.80943  0.32064  1.0000
  H   H1577     1.0  0.18465  0.72202  0.23238  1.0000
  H   H1578     1.0  0.36821  0.88294  0.03791  1.0000
  H   H1579     1.0  0.20313  0.77288  0.30310  1.0000
  C   C1964     1.0  0.23317  0.80813  0.05189  1.0000
  C   C1965     1.0  0.33615  0.50499  0.08316  1.0000
  C   C1966     1.0  0.21982  0.70065  0.30497  1.0000
  Fe  Fe124     1.0  0.21324  0.83142  0.45702  1.0000
  H   H1580     1.0  0.20342  0.77434  0.09018  1.0000
  Fe  Fe125     1.0  0.19069  0.72687  0.12502  1.0000
  H   H1581     1.0  0.18385  0.70556  0.08145  1.0000
  C   C1967     1.0  0.24756  0.64493  0.10449  1.0000
  C   C1968     1.0  0.34471  0.54658  0.22769  1.0000
  C   C1969     1.0  0.21887  0.76860  0.34070  1.0000
  C   C1970     1.0  0.34418  0.95345  0.38870  1.0000
  C   C1971     1.0  0.38015  0.93780  0.42255  1.0000
  H   H1582     1.0  0.18765  0.50678  0.21143  1.0000
  C   C1972     1.0  0.21097  0.73194  0.29378  1.0000
  Fe  Fe126     1.0  0.38150  0.89947  0.32423  1.0000
  C   C1973     1.0  0.22224  0.78582  0.03253  1.0000
  H   H1583     1.0  0.24085  0.81017  0.01537  1.0000
  H   H1584     1.0  0.19691  0.78810  0.22268  1.0000
  Fe  Fe127     1.0  0.28718  0.49610  0.11200  1.0000
  H   H1585     1.0  0.20250  0.76387  0.05459  1.0000
  H   H1586     1.0  0.19945  0.76244  0.20702  1.0000
  H   H1587     1.0  0.35529  0.97731  0.08634  1.0000
  C   C1974     1.0  0.35963  0.55994  0.21830  1.0000
  C   C1975     1.0  0.23331  0.95594  0.46735  1.0000
  H   H1588     1.0  0.36464  0.97124  0.43521  1.0000
  C   C1976     1.0  0.34236  0.50275  0.27446  1.0000
  H   H1589     1.0  0.36471  0.80446  0.10739  1.0000
  H   H1590     1.0  0.19905  0.71974  0.99359  1.0000
  C   C1977     1.0  0.18792  0.77392  0.00369  1.0000
  H   H1591     1.0  0.35407  0.51095  0.26295  1.0000
  H   H1592     1.0  0.25979  0.92567  0.46655  1.0000
  C   C1978     1.0  0.37481  0.53929  0.20728  1.0000
  H   H1593     1.0  0.38179  0.93027  0.08324  1.0000
  H   H1594     1.0  0.25583  0.85394  0.97235  1.0000
  H   H1595     1.0  0.37572  0.92448  0.42132  1.0000
  H   H1596     1.0  0.19251  0.98284  0.45744  1.0000
  H   H1597     1.0  0.36499  0.84929  0.39231  1.0000
  C   C1979     1.0  0.37676  0.95394  0.04354  1.0000
  C   C1980     1.0  0.18859  0.93977  0.45613  1.0000
  H   H1598     1.0  0.33190  0.49666  0.16333  1.0000
  C   C1981     1.0  0.37745  0.49816  0.35382  1.0000
  C   C1982     1.0  0.37459  0.49457  0.37793  1.0000
  C   C1983     1.0  0.22810  0.98857  0.45097  1.0000
  C   C1984     1.0  0.18341  0.80742  0.42559  1.0000
  C   C1985     1.0  0.37236  0.79864  0.28671  1.0000
  H   H1599     1.0  0.37557  0.85301  0.27641  1.0000
  C   C1986     1.0  0.37507  0.81141  0.29931  1.0000
  C   C1987     1.0  0.36419  0.85484  0.96898  1.0000
  H   H1600     1.0  0.37882  0.56931  0.01977  1.0000
  C   C1988     1.0  0.34302  0.49392  0.29633  1.0000
  C   C1989     1.0  0.35413  0.86265  0.95644  1.0000
  H   H1601     1.0  0.32920  0.86634  0.95633  1.0000
  S   S252      1.0  0.25049  0.86165  0.47550  1.0000
  S   S253      1.0  0.26151  0.97872  0.56537  1.0000
  H   H1602     1.0  0.35386  0.53749  0.81304  1.0000
  H   H1603     1.0  0.29291  0.96441  0.95736  1.0000
  H   H1604     1.0  0.37337  0.89411  0.59708  1.0000
  Fe  Fe128     1.0  0.23824  0.83308  0.48975  1.0000
  S   S254      1.0  0.24599  0.81415  0.51604  1.0000
  S   S255      1.0  0.21128  0.83546  0.49339  1.0000
  Fe  Fe129     1.0  0.24214  0.82899  0.88531  1.0000
  S   S256      1.0  0.26892  0.82739  0.87239  1.0000
  Fe  Fe130     1.0  0.24846  0.86355  0.85132  1.0000
  S   S257      1.0  0.27554  0.86428  0.83574  1.0000
  S   S258      1.0  0.23503  0.88394  0.83938  1.0000
  Fe  Fe131     1.0  0.26498  0.83615  0.83676  1.0000
  S   S259      1.0  0.27566  0.82318  0.80918  1.0000
  Fe  Fe132     1.0  0.27739  0.85556  0.87258  1.0000
  S   S260      1.0  0.30260  0.86428  0.88294  1.0000
  S   S261      1.0  0.23761  0.83589  0.84962  1.0000
  S   S262      1.0  0.25086  0.85667  0.88829  1.0000
  H   H1605     1.0  0.24711  0.51106  0.53522  1.0000
  H   H1606     1.0  0.36003  0.87163  0.93984  1.0000
  Fe  Fe133     1.0  0.24339  0.96231  0.54928  1.0000
  S   S263      1.0  0.24959  0.93723  0.54309  1.0000
  S   S264      1.0  0.22002  0.96575  0.57190  1.0000
  S   S265      1.0  0.22553  0.80751  0.91586  1.0000
  S   S266      1.0  0.27801  0.95888  0.78113  1.0000
  H   H1607     1.0  0.27752  0.87136  0.50323  1.0000
  C   C1990     1.0  0.28104  0.96885  0.47101  1.0000
  C   C1991     1.0  0.30224  0.51718  0.56447  1.0000
  H   H1608     1.0  0.30011  0.93722  0.67344  1.0000
  C   C1992     1.0  0.23915  0.53608  0.69414  1.0000
  H   H1609     1.0  0.33290  0.49699  0.93116  1.0000
  Fe  Fe134     1.0  0.26313  0.80215  0.64357  1.0000
  S   S267      1.0  0.27519  0.77990  0.64235  1.0000
  S   S268      1.0  0.26024  0.82263  0.61434  1.0000
  Fe  Fe135     1.0  0.25709  0.79581  0.69663  1.0000
  S   S269      1.0  0.26882  0.77320  0.69923  1.0000
  S   S270      1.0  0.24378  0.80631  0.72529  1.0000
  Fe  Fe136     1.0  0.28916  0.78990  0.66827  1.0000
  S   S271      1.0  0.31806  0.79276  0.66140  1.0000
  Fe  Fe137     1.0  0.25387  0.76497  0.67331  1.0000
  S   S272      1.0  0.23656  0.73720  0.68317  1.0000
  S   S273      1.0  0.27828  0.81298  0.66752  1.0000
  S   S274      1.0  0.24097  0.78670  0.67279  1.0000
  H   H1610     1.0  0.23537  0.94340  0.47385  1.0000
  C   C1993     1.0  0.28902  0.95231  0.50287  1.0000
  C   C1994     1.0  0.38194  0.51811  0.56565  1.0000
  Fe  Fe138     1.0  0.33618  0.55805  0.64406  1.0000
  S   S275      1.0  0.34328  0.53297  0.65119  1.0000
  S   S276      1.0  0.31053  0.55901  0.63505  1.0000
  Fe  Fe139     1.0  0.35395  0.54249  0.67966  1.0000
  S   S277      1.0  0.34548  0.52507  0.71591  1.0000
  C   C1995     1.0  0.28872  0.97072  0.92297  1.0000
  C   C1996     1.0  0.31277  0.84034  0.74904  1.0000
  S   S278      1.0  0.34511  0.56689  0.67405  1.0000
  S   S279      1.0  0.36136  0.57237  0.61908  1.0000
  H   H1611     1.0  0.19768  0.71145  0.75818  1.0000
  S   S280      1.0  0.20041  0.50632  0.66914  1.0000
  Fe  Fe140     1.0  0.36332  0.49535  0.49327  1.0000
  H   H1612     1.0  0.27282  0.89697  0.47905  1.0000
  H   H1613     1.0  0.37928  0.97406  0.47315  1.0000
  C   C1997     1.0  0.30329  0.84229  0.73224  1.0000
  H   H1614     1.0  0.19642  0.68523  0.67494  1.0000
  H   H1615     1.0  0.30758  0.93233  0.91261  1.0000
  C   C1998     1.0  0.35972  0.52267  0.73413  1.0000
  C   C1999     1.0  0.30412  0.50163  0.57669  1.0000
  H   H1616     1.0  0.33457  0.94083  0.67569  1.0000
  H   H1617     1.0  0.35814  0.90571  0.64486  1.0000
  H   H1618     1.0  0.35084  0.56100  0.85916  1.0000
  H   H1619     1.0  0.19446  0.72220  0.79421  1.0000
  C   C2000     1.0  0.38336  0.85844  0.65273  1.0000
  H   H1620     1.0  0.31505  0.91603  0.70600  1.0000
  C   C2001     1.0  0.29246  0.54077  0.64219  1.0000
  C   C2002     1.0  0.27771  0.54238  0.63427  1.0000
  C   C2003     1.0  0.26290  0.52846  0.64039  1.0000
  C   C2004     1.0  0.26284  0.51253  0.65390  1.0000
  C   C2005     1.0  0.27767  0.51079  0.66148  1.0000
  C   C2006     1.0  0.29236  0.52482  0.65576  1.0000
  H   H1621     1.0  0.27768  0.55447  0.62335  1.0000
  H   H1622     1.0  0.25155  0.53003  0.63462  1.0000
  H   H1623     1.0  0.34346  0.81996  0.62276  1.0000
  H   H1624     1.0  0.30356  0.52331  0.66197  1.0000
  C   C2007     1.0  0.36131  0.51704  0.54139  1.0000
  C   C2008     1.0  0.35315  0.52685  0.55441  1.0000
  C   C2009     1.0  0.35932  0.53228  0.57291  1.0000
  C   C2010     1.0  0.22323  0.96315  0.48198  1.0000
  H   H1625     1.0  0.22172  0.80139  0.83545  1.0000
  H   H1626     1.0  0.25697  0.75104  0.78168  1.0000
  H   H1627     1.0  0.34203  0.53037  0.55007  1.0000
  H   H1628     1.0  0.35298  0.53995  0.58261  1.0000
  H   H1629     1.0  0.27505  0.50203  0.50284  1.0000
  C   C2011     1.0  0.24565  0.99165  0.64329  1.0000
  C   C2012     1.0  0.22744  0.72308  0.66666  1.0000
  C   C2013     1.0  0.21404  0.70828  0.67814  1.0000
  C   C2014     1.0  0.20663  0.69654  0.66589  1.0000
  C   C2015     1.0  0.21273  0.69928  0.64200  1.0000
  C   C2016     1.0  0.22618  0.71403  0.63056  1.0000
  C   C2017     1.0  0.23341  0.72591  0.64273  1.0000
  H   H1630     1.0  0.20939  0.70583  0.69666  1.0000
  H   H1631     1.0  0.28590  0.80264  0.94118  1.0000
  H   H1632     1.0  0.24383  0.73707  0.63366  1.0000
  C   C2018     1.0  0.35823  0.81878  0.69720  1.0000
  C   C2019     1.0  0.36315  0.81328  0.67698  1.0000
  C   C2020     1.0  0.35068  0.80532  0.66637  1.0000
  C   C2021     1.0  0.33316  0.80290  0.67562  1.0000
  C   C2022     1.0  0.32822  0.80819  0.69601  1.0000
  C   C2023     1.0  0.34070  0.81602  0.70673  1.0000
  H   H1633     1.0  0.21724  0.78291  0.54606  1.0000
  H   H1634     1.0  0.35464  0.80079  0.65106  1.0000
  H   H1635     1.0  0.31481  0.80622  0.70358  1.0000
  H   H1636     1.0  0.33672  0.81984  0.72264  1.0000
  H   H1637     1.0  0.36448  0.55735  0.73308  1.0000
  C   C2024     1.0  0.37740  0.52883  0.72572  1.0000
  H   H1638     1.0  0.20358  0.73764  0.70665  1.0000
  H   H1639     1.0  0.20474  0.80639  0.88154  1.0000
  C   C2025     1.0  0.30796  0.87781  0.90194  1.0000
  C   C2026     1.0  0.29619  0.88526  0.91345  1.0000
  C   C2027     1.0  0.30113  0.89597  0.92829  1.0000
  C   C2028     1.0  0.31789  0.89947  0.93162  1.0000
  C   C2029     1.0  0.32963  0.89202  0.92010  1.0000
  C   C2030     1.0  0.32463  0.88114  0.90552  1.0000
  H   H1640     1.0  0.28330  0.88270  0.91099  1.0000
  H   H1641     1.0  0.29192  0.90161  0.93720  1.0000
  H   H1642     1.0  0.27906  0.97452  0.50477  1.0000
  C   C2031     1.0  0.26559  0.81730  0.78732  1.0000
  C   C2032     1.0  0.27300  0.80800  0.77271  1.0000
  C   C2033     1.0  0.26634  0.80436  0.75378  1.0000
  C   C2034     1.0  0.25200  0.80975  0.74958  1.0000
  C   C2035     1.0  0.24410  0.81835  0.76483  1.0000
  C   C2036     1.0  0.25092  0.82224  0.78357  1.0000
  H   H1643     1.0  0.28424  0.80396  0.77567  1.0000
  H   H1644     1.0  0.27241  0.79757  0.74230  1.0000
  H   H1645     1.0  0.23287  0.82238  0.76183  1.0000
  H   H1646     1.0  0.24504  0.82930  0.79481  1.0000
  C   C2037     1.0  0.24706  0.90479  0.82327  1.0000
  C   C2038     1.0  0.23863  0.91772  0.81764  1.0000
  C   C2039     1.0  0.24794  0.93457  0.80530  1.0000
  C   C2040     1.0  0.26571  0.93843  0.79806  1.0000
  C   C2041     1.0  0.27409  0.92546  0.80342  1.0000
  C   C2042     1.0  0.26483  0.90875  0.81613  1.0000
  H   H1647     1.0  0.22488  0.91474  0.82318  1.0000
  H   H1648     1.0  0.24140  0.94449  0.80120  1.0000
  H   H1649     1.0  0.28783  0.92836  0.79784  1.0000
  H   H1650     1.0  0.27147  0.89897  0.82037  1.0000
  C   C2043     1.0  0.24959  0.81670  0.54346  1.0000
  C   C2044     1.0  0.24857  0.83169  0.55127  1.0000
  C   C2045     1.0  0.25184  0.83326  0.57302  1.0000
  C   C2046     1.0  0.25604  0.81984  0.58724  1.0000
  C   C2047     1.0  0.25698  0.80481  0.57947  1.0000
  C   C2048     1.0  0.25377  0.80328  0.55769  1.0000
  H   H1651     1.0  0.24536  0.84211  0.54052  1.0000
  H   H1652     1.0  0.25109  0.84494  0.57886  1.0000
  H   H1653     1.0  0.26028  0.79443  0.59015  1.0000
  H   H1654     1.0  0.25469  0.79169  0.55173  1.0000
  C   C2049     1.0  0.22329  0.89956  0.50387  1.0000
  C   C2050     1.0  0.21566  0.91230  0.51061  1.0000
  C   C2051     1.0  0.22351  0.92388  0.52268  1.0000
  C   C2052     1.0  0.23926  0.92307  0.52772  1.0000
  C   C2053     1.0  0.24688  0.91035  0.52094  1.0000
  C   C2054     1.0  0.23891  0.89860  0.50920  1.0000
  S   S281      1.0  0.19481  0.54033  0.61543  1.0000
  H   H1655     1.0  0.21723  0.93318  0.52855  1.0000
  H   H1656     1.0  0.25895  0.90945  0.52500  1.0000
  H   H1657     1.0  0.24477  0.88870  0.50446  1.0000
  C   C2055     1.0  0.19881  0.79542  0.89596  1.0000
  C   C2056     1.0  0.33865  0.85629  0.72036  1.0000
  S   S282      1.0  0.24488  0.49425  0.66107  1.0000
  C   C2057     1.0  0.19711  0.75932  0.55166  1.0000
  H   H1658     1.0  0.35237  0.86148  0.71619  1.0000
  H   H1659     1.0  0.29193  0.83728  0.92683  1.0000
  H   H1660     1.0  0.23109  0.71627  0.61211  1.0000
  H   H1661     1.0  0.34258  0.89471  0.92235  1.0000
  H   H1662     1.0  0.33788  0.84552  0.75598  1.0000
  H   H1663     1.0  0.32791  0.88938  0.63523  1.0000
  C   C2058     1.0  0.28851  0.49472  0.85914  1.0000
  C   C2059     1.0  0.37262  0.56959  0.73363  1.0000
  H   H1664     1.0  0.23135  0.78604  0.95586  1.0000
  C   C2060     1.0  0.37575  0.51264  0.54716  1.0000
  C   C2061     1.0  0.20640  0.79293  0.91477  1.0000
  H   H1665     1.0  0.33382  0.87543  0.89670  1.0000
  H   H1666     1.0  0.36638  0.58743  0.78748  1.0000
  Fe  Fe141     1.0  0.27016  0.98411  0.77465  1.0000
  H   H1667     1.0  0.25891  0.79756  0.92773  1.0000
  S   S283      1.0  0.24990  0.98993  0.75625  1.0000
  C   C2062     1.0  0.19778  0.99074  0.66861  1.0000
  C   C2063     1.0  0.19848  0.77860  0.93345  1.0000
  C   C2064     1.0  0.29524  0.50862  0.86845  1.0000
  C   C2065     1.0  0.18646  0.98580  0.71006  1.0000
  C   C2066     1.0  0.20292  0.94268  0.75353  1.0000
  H   H1668     1.0  0.20421  0.77646  0.94806  1.0000
  C   C2067     1.0  0.20966  0.79231  0.60583  1.0000
  H   H1669     1.0  0.27798  0.98072  0.66624  1.0000
  C   C2068     1.0  0.19504  0.74601  0.67599  1.0000
  C   C2069     1.0  0.22077  0.97942  0.47391  1.0000
  H   H1670     1.0  0.19859  0.71277  0.57739  1.0000
  H   H1671     1.0  0.28320  0.98125  0.92610  1.0000
  C   C2070     1.0  0.31110  0.52176  0.79565  1.0000
  C   C2071     1.0  0.37066  0.52613  0.92561  1.0000
  H   H1672     1.0  0.30639  0.98222  0.78998  1.0000
  C   C2072     1.0  0.36128  0.87151  0.66820  1.0000
  C   C2073     1.0  0.20871  0.76495  0.59467  1.0000
  H   H1673     1.0  0.34459  0.77801  0.70438  1.0000
  H   H1674     1.0  0.36842  0.73353  0.75511  1.0000
  H   H1675     1.0  0.21747  0.95632  0.49976  1.0000
  H   H1676     1.0  0.36710  0.58366  0.70327  1.0000
  H   H1677     1.0  0.24859  0.53434  0.55640  1.0000
  C   C2074     1.0  0.18367  0.72193  0.61646  1.0000
  H   H1678     1.0  0.21747  0.96110  0.79482  1.0000
  H   H1679     1.0  0.34399  0.57559  0.82353  1.0000
  C   C2075     1.0  0.35368  0.81982  0.60873  1.0000
  H   H1680     1.0  0.31024  0.83713  0.95480  1.0000
  C   C2076     1.0  0.32067  0.72981  0.73042  1.0000
  H   H1681     1.0  0.38011  0.55893  0.76415  1.0000
  H   H1682     1.0  0.20433  0.62886  0.64852  1.0000
  C   C2077     1.0  0.19067  0.71154  0.85822  1.0000
  S   S284      1.0  0.32367  0.91349  0.94987  1.0000
  H   H1683     1.0  0.23422  0.77053  0.63264  1.0000
  C   C2078     1.0  0.31658  0.51675  0.60307  1.0000
  C   C2079     1.0  0.22428  0.71131  0.56634  1.0000
  C   C2080     1.0  0.24151  0.72033  0.55921  1.0000
  C   C2081     1.0  0.24633  0.73817  0.55760  1.0000
  C   C2082     1.0  0.23394  0.74693  0.56350  1.0000
  C   C2083     1.0  0.21666  0.73784  0.57139  1.0000
  C   C2084     1.0  0.21186  0.72005  0.57207  1.0000
  P   P68       1.0  0.20082  0.74934  0.57888  1.0000
  H   H1684     1.0  0.21341  0.98317  0.82099  1.0000
  C   C2085     1.0  0.29831  0.98294  0.62000  1.0000
  C   C2086     1.0  0.20723  0.77584  0.53936  1.0000
  H   H1685     1.0  0.30687  0.86934  0.50437  1.0000
  S   S285      1.0  0.33292  0.49410  0.88308  1.0000
  C   C2087     1.0  0.36409  0.51276  0.77277  1.0000
  C   C2088     1.0  0.27375  0.79781  0.95368  1.0000
  C   C2089     1.0  0.27101  0.49885  0.90143  1.0000
  S   S286      1.0  0.35298  0.51075  0.51808  1.0000
  H   H1686     1.0  0.21330  0.98498  0.48571  1.0000
  C   C2090     1.0  0.21948  0.76133  0.60934  1.0000
  H   H1687     1.0  0.24150  0.94215  0.85386  1.0000
  Fe  Fe142     1.0  0.23839  0.98415  0.58580  1.0000
  H   H1688     1.0  0.34972  0.95806  0.59958  1.0000
  C   C2091     1.0  0.29414  0.96123  0.94058  1.0000
  C   C2092     1.0  0.20846  0.79739  0.83471  1.0000
  C   C2093     1.0  0.18441  0.71187  0.79222  1.0000
  H   H1689     1.0  0.22048  0.69744  0.56785  1.0000
  H   H1690     1.0  0.25110  0.71348  0.55498  1.0000
  H   H1691     1.0  0.25966  0.74523  0.55186  1.0000
  H   H1692     1.0  0.23784  0.76078  0.56204  1.0000
  C   C2094     1.0  0.37772  0.77971  0.64455  1.0000
  H   H1693     1.0  0.28581  0.97387  0.88795  1.0000
  H   H1694     1.0  0.32025  0.98260  0.86642  1.0000
  C   C2095     1.0  0.21960  0.55760  0.67786  1.0000
  S   S287      1.0  0.20405  0.68487  0.62555  1.0000
  C   C2096     1.0  0.25494  0.49392  0.56071  1.0000
  C   C2097     1.0  0.29380  0.94653  0.70402  1.0000
  H   H1695     1.0  0.24267  0.75205  0.82090  1.0000
  H   H1696     1.0  0.35897  0.50658  0.79088  1.0000
  C   C2098     1.0  0.24290  0.78862  0.96213  1.0000
  H   H1697     1.0  0.27776  0.49855  0.67198  1.0000
  H   H1698     1.0  0.32207  0.51696  0.61801  1.0000
  H   H1699     1.0  0.21267  0.79607  0.50850  1.0000
  C   C2099     1.0  0.22137  0.53086  0.70143  1.0000
  H   H1700     1.0  0.35711  0.84930  0.65270  1.0000
  H   H1701     1.0  0.21172  0.56530  0.67090  1.0000
  C   C2100     1.0  0.28280  0.96613  0.49386  1.0000
  S   S288      1.0  0.24501  0.98439  0.51998  1.0000
  H   H1702     1.0  0.29817  0.93707  0.71475  1.0000
  H   H1703     1.0  0.19618  0.72071  0.61828  1.0000
  S   S289      1.0  0.37503  0.52245  0.84311  1.0000
  C   C2101     1.0  0.35529  0.51833  0.92069  1.0000
  H   H1704     1.0  0.32846  0.97297  0.61408  1.0000
  H   H1705     1.0  0.22003  0.62512  0.61152  1.0000
  Fe  Fe143     1.0  0.22360  0.86377  0.47700  1.0000
  C   C2102     1.0  0.18428  0.98562  0.51716  1.0000
  H   H1706     1.0  0.28760  0.97782  0.59105  1.0000
  H   H1707     1.0  0.23123  0.76866  0.91065  1.0000
  H   H1708     1.0  0.35613  0.93556  0.64532  1.0000
  H   H1709     1.0  0.20431  0.84572  0.75589  1.0000
  H   H1710     1.0  0.28648  0.95869  0.73182  1.0000
  H   H1711     1.0  0.27081  0.95833  0.85211  1.0000
  C   C2103     1.0  0.21161  0.54163  0.69331  1.0000
  C   C2104     1.0  0.20355  0.78038  0.59333  1.0000
  H   H1712     1.0  0.34458  0.90471  0.85625  1.0000
  H   H1713     1.0  0.31393  0.71630  0.73735  1.0000
  C   C2105     1.0  0.36630  0.85899  0.65723  1.0000
  C   C2106     1.0  0.33665  0.85952  0.96574  1.0000
  H   H1714     1.0  0.27627  0.98040  0.70755  1.0000
  C   C2107     1.0  0.19247  0.77430  0.50829  1.0000
  C   C2108     1.0  0.19907  0.80977  0.83329  1.0000
  C   C2109     1.0  0.30491  0.88078  0.49399  1.0000
  H   H1715     1.0  0.37081  0.77807  0.63114  1.0000
  C   C2110     1.0  0.19869  0.74288  0.85287  1.0000
  C   C2111     1.0  0.37167  0.79429  0.75619  1.0000
  H   H1716     1.0  0.31315  0.87817  0.60680  1.0000
  C   C2112     1.0  0.25637  0.78602  0.85659  1.0000
  C   C2113     1.0  0.37380  0.52800  0.57861  1.0000
  C   C2114     1.0  0.25162  0.78148  0.88072  1.0000
  H   H1717     1.0  0.22885  0.97488  0.67464  1.0000
  C   C2115     1.0  0.35547  0.98728  0.94925  1.0000
  C   C2116     1.0  0.35685  0.57439  0.82326  1.0000
  H   H1718     1.0  0.28978  0.94992  0.52085  1.0000
  H   H1719     1.0  0.35881  0.49763  0.65231  1.0000
  C   C2117     1.0  0.32397  0.84633  0.65450  1.0000
  C   C2118     1.0  0.19288  0.73641  0.69843  1.0000
  C   C2119     1.0  0.23511  0.77162  0.89194  1.0000
  C   C2120     1.0  0.32460  0.87562  0.63631  1.0000
  C   C2121     1.0  0.33006  0.51783  0.82133  1.0000
  C   C2122     1.0  0.32916  0.85838  0.70342  1.0000
  C   C2123     1.0  0.33531  0.92770  0.67547  1.0000
  H   H1720     1.0  0.35606  0.78600  0.73376  1.0000
  H   H1721     1.0  0.19418  0.57554  0.59892  1.0000
  C   C2124     1.0  0.21161  0.95961  0.78039  1.0000
  S   S290      1.0  0.21301  0.88528  0.48863  1.0000
  H   H1722     1.0  0.30390  0.85248  0.69679  1.0000
  C   C2125     1.0  0.25719  0.52080  0.58417  1.0000
  H   H1723     1.0  0.19499  0.78332  0.58247  1.0000
  C   C2126     1.0  0.38164  0.57057  0.75107  1.0000
  C   C2127     1.0  0.31683  0.98237  0.85000  1.0000
  C   C2128     1.0  0.23750  0.56320  0.67094  1.0000
  C   C2129     1.0  0.24719  0.55219  0.67903  1.0000
  P   P69       1.0  0.24776  0.58311  0.64933  1.0000
  C   C2130     1.0  0.25148  0.57740  0.62168  1.0000
  C   C2131     1.0  0.23385  0.59751  0.64895  1.0000
  C   C2132     1.0  0.23211  0.60680  0.62789  1.0000
  C   C2133     1.0  0.22158  0.61816  0.62776  1.0000
  C   C2134     1.0  0.21274  0.62032  0.64860  1.0000
  C   C2135     1.0  0.21432  0.61106  0.66960  1.0000
  C   C2136     1.0  0.22487  0.59974  0.66983  1.0000
  C   C2137     1.0  0.26612  0.58644  0.60429  1.0000
  C   C2138     1.0  0.26864  0.58218  0.58273  1.0000
  C   C2139     1.0  0.25643  0.56911  0.57825  1.0000
  C   C2140     1.0  0.24170  0.56026  0.59535  1.0000
  C   C2141     1.0  0.23922  0.56438  0.61697  1.0000
  C   C2142     1.0  0.26756  0.59374  0.65565  1.0000
  C   C2143     1.0  0.26873  0.60844  0.66509  1.0000
  C   C2144     1.0  0.28407  0.61653  0.66989  1.0000
  C   C2145     1.0  0.29838  0.61006  0.66533  1.0000
  C   C2146     1.0  0.29738  0.59553  0.65589  1.0000
  C   C2147     1.0  0.28208  0.58745  0.65102  1.0000
  C   C2148     1.0  0.20066  0.78005  0.83557  1.0000
  H   H1724     1.0  0.20202  0.93095  0.74718  1.0000
  Fe  Fe144     1.0  0.21890  0.49323  0.65210  1.0000
  H   H1725     1.0  0.21055  0.75895  0.88823  1.0000
  H   H1726     1.0  0.26093  0.55568  0.67327  1.0000
  H   H1727     1.0  0.23876  0.60528  0.61153  1.0000
  H   H1728     1.0  0.25796  0.53111  0.59335  1.0000
  H   H1729     1.0  0.33313  0.51038  0.83605  1.0000
  H   H1730     1.0  0.19741  0.81677  0.95741  1.0000
  H   H1731     1.0  0.22593  0.59266  0.68627  1.0000
  H   H1732     1.0  0.27553  0.59687  0.60724  1.0000
  H   H1733     1.0  0.28000  0.58913  0.56944  1.0000
  H   H1734     1.0  0.25827  0.56599  0.56146  1.0000
  H   H1735     1.0  0.23202  0.55030  0.59190  1.0000
  H   H1736     1.0  0.22757  0.55752  0.62982  1.0000
  H   H1737     1.0  0.25792  0.61381  0.66871  1.0000
  H   H1738     1.0  0.28487  0.62786  0.67710  1.0000
  H   H1739     1.0  0.31028  0.61630  0.66904  1.0000
  H   H1740     1.0  0.30846  0.59047  0.65228  1.0000
  H   H1741     1.0  0.28170  0.57633  0.64352  1.0000
  H   H1742     1.0  0.26061  0.78599  0.89070  1.0000
  C   C2149     1.0  0.31169  0.74185  0.72370  1.0000
  C   C2150     1.0  0.32038  0.75922  0.71449  1.0000
  C   C2151     1.0  0.33803  0.76458  0.71202  1.0000
  H   H1743     1.0  0.31673  0.88634  0.70581  1.0000
  H   H1744     1.0  0.33174  0.89341  0.48155  1.0000
  H   H1745     1.0  0.29802  0.73772  0.72535  1.0000
  H   H1746     1.0  0.31349  0.76855  0.70888  1.0000
  C   C2152     1.0  0.32430  0.91377  0.69247  1.0000
  C   C2153     1.0  0.37361  0.88325  0.67490  1.0000
  Fe  Fe145     1.0  0.19504  0.51345  0.63405  1.0000
  C   C2154     1.0  0.32842  0.86412  0.65375  1.0000
  C   C2155     1.0  0.34723  0.75263  0.71867  1.0000
  C   C2156     1.0  0.30681  0.96718  0.84635  1.0000
  S   S291      1.0  0.38037  0.55486  0.65716  1.0000
  P   P70       1.0  0.29922  0.94766  0.86915  1.0000
  C   C2157     1.0  0.31393  0.93447  0.86415  1.0000
  C   C2158     1.0  0.29759  0.95303  0.89706  1.0000
  C   C2159     1.0  0.18623  0.70584  0.77191  1.0000
  C   C2160     1.0  0.37393  0.58443  0.71693  1.0000
  C   C2161     1.0  0.30354  0.96708  0.82436  1.0000
  C   C2162     1.0  0.24463  0.78074  0.84362  1.0000
  C   C2163     1.0  0.30256  0.94326  0.91505  1.0000
  C   C2164     1.0  0.32948  0.93796  0.87097  1.0000
  C   C2165     1.0  0.34051  0.92727  0.86808  1.0000
  S   S292      1.0  0.21476  0.50182  0.61659  1.0000
  C   C2166     1.0  0.32112  0.91012  0.85030  1.0000
  C   C2167     1.0  0.29851  0.84101  0.95885  1.0000
  C   C2168     1.0  0.27771  0.93612  0.86996  1.0000
  C   C2169     1.0  0.26662  0.94469  0.86048  1.0000
  C   C2170     1.0  0.24989  0.93561  0.86167  1.0000
  C   C2171     1.0  0.24408  0.91799  0.87243  1.0000
  C   C2172     1.0  0.25491  0.90948  0.88234  1.0000
  C   C2173     1.0  0.27158  0.91855  0.88144  1.0000
  H   H1747     1.0  0.22330  0.74934  0.61104  1.0000
  H   H1748     1.0  0.35197  0.52366  0.90484  1.0000
  C   C2174     1.0  0.31145  0.85110  0.70950  1.0000
  H   H1749     1.0  0.32045  0.54428  0.76726  1.0000
  H   H1750     1.0  0.29638  0.95537  0.82085  1.0000
  P   P71       1.0  0.33913  0.87193  0.67489  1.0000
  H   H1751     1.0  0.20617  0.80450  0.60417  1.0000
  H   H1752     1.0  0.21538  0.93422  0.78032  1.0000
  H   H1753     1.0  0.33291  0.94867  0.87901  1.0000
  C   C2175     1.0  0.28574  0.89643  0.47947  1.0000
  H   H1754     1.0  0.24573  0.76139  0.74781  1.0000
  H   H1755     1.0  0.20653  0.98465  0.77621  1.0000
  C   C2176     1.0  0.32539  0.89686  0.69237  1.0000
  C   C2177     1.0  0.37619  0.77272  0.73429  1.0000
  C   C2178     1.0  0.31458  0.51197  0.81508  1.0000
  H   H1756     1.0  0.23128  0.91083  0.87273  1.0000
  H   H1757     1.0  0.25042  0.89578  0.89048  1.0000
  H   H1758     1.0  0.27974  0.91180  0.88949  1.0000
  C   C2179     1.0  0.24070  0.94309  0.63878  1.0000
  C   C2180     1.0  0.24066  0.93612  0.61929  1.0000
  C   C2181     1.0  0.25608  0.93624  0.60510  1.0000
  C   C2182     1.0  0.27154  0.94338  0.61033  1.0000
  C   C2183     1.0  0.27170  0.95025  0.63007  1.0000
  C   C2184     1.0  0.25614  0.95031  0.64403  1.0000
  P   P72       1.0  0.29175  0.96053  0.63590  1.0000
  C   C2185     1.0  0.28936  0.95918  0.66661  1.0000
  C   C2186     1.0  0.30766  0.94963  0.62623  1.0000
  C   C2187     1.0  0.30311  0.93161  0.62859  1.0000
  C   C2188     1.0  0.31520  0.92325  0.62012  1.0000
  C   C2189     1.0  0.33200  0.93276  0.60966  1.0000
  C   C2190     1.0  0.33672  0.95064  0.60777  1.0000
  C   C2191     1.0  0.32461  0.95907  0.61600  1.0000
  C   C2192     1.0  0.29486  0.94670  0.68057  1.0000
  S   S293      1.0  0.37335  0.82907  0.71120  1.0000
  C   C2193     1.0  0.28721  0.95873  0.71369  1.0000
  C   C2194     1.0  0.28140  0.97093  0.70005  1.0000
  C   C2195     1.0  0.28239  0.97109  0.67666  1.0000
  C   C2196     1.0  0.32296  0.53705  0.78264  1.0000
  C   C2197     1.0  0.31148  0.50132  0.59591  1.0000
  C   C2198     1.0  0.18819  0.55553  0.63018  1.0000
  C   C2199     1.0  0.31632  0.86935  0.62007  1.0000
  H   H1759     1.0  0.30550  0.84666  0.60849  1.0000
  C   C2200     1.0  0.21046  0.94451  0.77218  1.0000
  H   H1760     1.0  0.22876  0.94376  0.64911  1.0000
  H   H1761     1.0  0.22872  0.93115  0.61473  1.0000
  H   H1762     1.0  0.25601  0.93126  0.58962  1.0000
  H   H1763     1.0  0.28332  0.94394  0.59854  1.0000
  H   H1764     1.0  0.25583  0.95641  0.65850  1.0000
  H   H1765     1.0  0.29012  0.92406  0.63657  1.0000
  H   H1766     1.0  0.31144  0.90946  0.62127  1.0000
  H   H1767     1.0  0.19902  0.84196  0.79847  1.0000
  C   C2201     1.0  0.37655  0.73104  0.74056  1.0000
  H   H1768     1.0  0.20741  0.75459  0.66699  1.0000
  C   C2202     1.0  0.25098  0.50931  0.55149  1.0000
  C   C2203     1.0  0.28803  0.84079  0.94308  1.0000
  H   H1769     1.0  0.35800  0.76119  0.67105  1.0000
  S   S294      1.0  0.37487  0.92886  0.94086  1.0000
  Fe  Fe146     1.0  0.36071  0.49677  0.86703  1.0000
  H   H1770     1.0  0.31302  0.82641  0.63840  1.0000
  C   C2204     1.0  0.19641  0.95589  0.74320  1.0000
  C   C2205     1.0  0.31008  0.92079  0.85311  1.0000
  H   H1771     1.0  0.24671  0.52744  0.69965  1.0000
  H   H1772     1.0  0.26907  0.79404  0.84790  1.0000
  C   C2206     1.0  0.30097  0.94746  0.93664  1.0000
  H   H1773     1.0  0.20700  0.61241  0.68567  1.0000
  C   C2207     1.0  0.28835  0.88189  0.49326  1.0000
  C   C2208     1.0  0.31888  0.89434  0.48119  1.0000
  Fe  Fe147     1.0  0.37113  0.57903  0.65001  1.0000
  Fe  Fe148     1.0  0.36879  0.54737  0.62788  1.0000
  C   C2209     1.0  0.34448  0.50318  0.93568  1.0000
  H   H1774     1.0  0.36315  0.79554  0.57040  1.0000
  C   C2210     1.0  0.31615  0.84017  0.63788  1.0000
  H   H1775     1.0  0.34747  0.55456  0.77883  1.0000
  S   S295      1.0  0.23337  0.98197  0.62524  1.0000
  C   C2211     1.0  0.18527  0.74135  0.87174  1.0000
  C   C2212     1.0  0.35157  0.80640  0.59717  1.0000
  C   C2213     1.0  0.36956  0.58096  0.80280  1.0000
  H   H1776     1.0  0.26469  0.84537  0.93552  1.0000
  H   H1777     1.0  0.33973  0.79623  0.60232  1.0000
  C   C2214     1.0  0.25199  0.52264  0.56331  1.0000
  C   C2215     1.0  0.22554  0.77325  0.62182  1.0000
  C   C2216     1.0  0.30925  0.98225  0.80678  1.0000
  H   H1778     1.0  0.35218  0.92958  0.87420  1.0000
  C   C2217     1.0  0.20131  0.72781  0.84618  1.0000
  C   C2218     1.0  0.36436  0.50365  0.96070  1.0000
  C   C2219     1.0  0.34748  0.92473  0.65836  1.0000
  C   C2220     1.0  0.33628  0.91329  0.85789  1.0000
  H   H1779     1.0  0.37052  0.84255  0.61261  1.0000
  Fe  Fe149     1.0  0.22245  0.98876  0.54311  1.0000
  C   C2221     1.0  0.33769  0.89376  0.67535  1.0000
  H   H1780     1.0  0.34133  0.92631  0.60290  1.0000
  H   H1781     1.0  0.30739  0.51771  0.85987  1.0000
  C   C2222     1.0  0.22337  0.76614  0.87905  1.0000
  H   H1782     1.0  0.35309  0.97621  0.94152  1.0000
  C   C2223     1.0  0.36472  0.98987  0.48809  1.0000
  C   C2224     1.0  0.24906  0.99307  0.68260  1.0000
  C   C2225     1.0  0.26123  0.50557  0.59336  1.0000
  H   H1783     1.0  0.29942  0.51753  0.79016  1.0000
  C   C2226     1.0  0.33826  0.54281  0.78907  1.0000
  C   C2227     1.0  0.29030  0.96656  0.90134  1.0000
  C   C2228     1.0  0.20479  0.78332  0.51788  1.0000
  C   C2229     1.0  0.31207  0.85161  0.62089  1.0000
  C   C2230     1.0  0.36477  0.80603  0.57927  1.0000
  C   C2231     1.0  0.22062  0.78873  0.62010  1.0000
  H   H1784     1.0  0.29845  0.91812  0.84697  1.0000
  H   H1785     1.0  0.24844  0.78507  0.82495  1.0000
  H   H1786     1.0  0.30643  0.83343  0.76669  1.0000
  H   H1787     1.0  0.21163  0.72851  0.83188  1.0000
  C   C2232     1.0  0.19752  0.97111  0.75139  1.0000
  C   C2233     1.0  0.34181  0.53322  0.80839  1.0000
  C   C2234     1.0  0.36070  0.56623  0.84333  1.0000
  H   H1788     1.0  0.36471  0.80360  0.76047  1.0000
  P   P73       1.0  0.37024  0.75980  0.71414  1.0000
  H   H1789     1.0  0.31771  0.89906  0.84282  1.0000
  H   H1790     1.0  0.19070  0.78016  0.49156  1.0000
  H   H1791     1.0  0.20350  0.91309  0.50674  1.0000
  C   C2235     1.0  0.33837  0.73514  0.72787  1.0000
  H   H1792     1.0  0.22560  0.79815  0.62942  1.0000
  C   C2236     1.0  0.37633  0.98652  0.47059  1.0000
  H   H1793     1.0  0.19283  0.69995  0.85313  1.0000
  C   C2237     1.0  0.35312  0.51461  0.75769  1.0000
  H   H1794     1.0  0.32664  0.83722  0.66786  1.0000
  H   H1795     1.0  0.37334  0.54988  0.50419  1.0000
  H   H1796     1.0  0.37656  0.81501  0.66966  1.0000
  H   H1797     1.0  0.29667  0.51732  0.54955  1.0000
  H   H1798     1.0  0.28957  0.83703  0.73683  1.0000
  H   H1799     1.0  0.29792  0.93036  0.49667  1.0000
  Fe  Fe150     1.0  0.34828  0.91735  0.96290  1.0000
  H   H1800     1.0  0.22032  0.77293  0.75313  1.0000
  H   H1801     1.0  0.34500  0.72547  0.73273  1.0000
  C   C2238     1.0  0.20532  0.97291  0.76990  1.0000
  H   H1802     1.0  0.20506  0.82300  0.83339  1.0000
  C   C2239     1.0  0.31454  0.53225  0.59093  1.0000
  C   C2240     1.0  0.30736  0.53248  0.57169  1.0000
  H   H1803     1.0  0.31858  0.54412  0.59648  1.0000
  H   H1804     1.0  0.30581  0.54453  0.56240  1.0000
  C   C2241     1.0  0.34862  0.90783  0.65820  1.0000
  C   C2242     1.0  0.25008  0.93076  0.74492  1.0000
  C   C2243     1.0  0.24607  0.93585  0.72366  1.0000
  C   C2244     1.0  0.24694  0.92548  0.70763  1.0000
  C   C2245     1.0  0.25210  0.91020  0.71266  1.0000
  C   C2246     1.0  0.25677  0.90532  0.73366  1.0000
  C   C2247     1.0  0.25508  0.91540  0.75011  1.0000
  P   P74       1.0  0.26202  0.88484  0.74109  1.0000
  C   C2248     1.0  0.27904  0.88570  0.75623  1.0000
  C   C2249     1.0  0.24252  0.87037  0.75935  1.0000
  C   C2250     1.0  0.23942  0.86820  0.78347  1.0000
  C   C2251     1.0  0.22378  0.85795  0.79750  1.0000
  C   C2252     1.0  0.21117  0.84978  0.78758  1.0000
  C   C2253     1.0  0.21412  0.85198  0.76359  1.0000
  C   C2254     1.0  0.22964  0.86244  0.74948  1.0000
  C   C2255     1.0  0.28945  0.90154  0.75742  1.0000
  C   C2256     1.0  0.30257  0.90176  0.76922  1.0000
  C   C2257     1.0  0.30558  0.88623  0.77954  1.0000
  C   C2258     1.0  0.29551  0.87045  0.77801  1.0000
  C   C2259     1.0  0.28227  0.87016  0.76645  1.0000
  C   C2260     1.0  0.26922  0.87708  0.71579  1.0000
  C   C2261     1.0  0.28022  0.88866  0.69590  1.0000
  C   C2262     1.0  0.28561  0.88271  0.67618  1.0000
  C   C2263     1.0  0.28016  0.86516  0.67625  1.0000
  C   C2264     1.0  0.26975  0.85349  0.69627  1.0000
  C   C2265     1.0  0.26452  0.85935  0.71607  1.0000
  H   H1805     1.0  0.24929  0.93875  0.75741  1.0000
  H   H1806     1.0  0.24220  0.94777  0.71970  1.0000
  H   H1807     1.0  0.24338  0.92918  0.69141  1.0000
  H   H1808     1.0  0.25206  0.90208  0.70033  1.0000
  H   H1809     1.0  0.25749  0.91137  0.76706  1.0000
  H   H1810     1.0  0.24887  0.87470  0.79154  1.0000
  H   H1811     1.0  0.22138  0.85663  0.81606  1.0000
  C   C2266     1.0  0.33046  0.84726  0.74306  1.0000
  C   C2267     1.0  0.18353  0.77542  0.83408  1.0000
  H   H1812     1.0  0.23152  0.86439  0.73088  1.0000
  H   H1813     1.0  0.28742  0.91372  0.74957  1.0000
  H   H1814     1.0  0.31028  0.91398  0.77065  1.0000
  H   H1815     1.0  0.31558  0.88635  0.78898  1.0000
  H   H1816     1.0  0.29770  0.85838  0.78628  1.0000
  H   H1817     1.0  0.27446  0.85777  0.76574  1.0000
  H   H1818     1.0  0.28451  0.90228  0.69560  1.0000
  H   H1819     1.0  0.29393  0.89169  0.66082  1.0000
  H   H1820     1.0  0.28412  0.86048  0.66096  1.0000
  H   H1821     1.0  0.26572  0.83981  0.69650  1.0000
  H   H1822     1.0  0.25674  0.84997  0.73148  1.0000
  C   C2268     1.0  0.24568  0.75586  0.78412  1.0000
  C   C2269     1.0  0.23934  0.76163  0.76504  1.0000
  C   C2270     1.0  0.22494  0.76809  0.76807  1.0000
  C   C2271     1.0  0.21695  0.76900  0.79013  1.0000
  C   C2272     1.0  0.22332  0.76339  0.80940  1.0000
  C   C2273     1.0  0.23763  0.75660  0.80626  1.0000
  P   P75       1.0  0.21269  0.76398  0.83807  1.0000
  C   C2274     1.0  0.22809  0.77046  0.85475  1.0000
  H   H1823     1.0  0.37002  0.89256  0.68424  1.0000
  H   H1824     1.0  0.20601  0.77436  0.79192  1.0000
  C   C2275     1.0  0.27266  0.84541  0.94795  1.0000
  C   C2276     1.0  0.36684  0.78426  0.74082  1.0000
  C   C2277     1.0  0.37042  0.77029  0.66732  1.0000
  C   C2278     1.0  0.20257  0.98867  0.82171  1.0000
  H   H1825     1.0  0.19779  0.53735  0.69833  1.0000
  H   H1826     1.0  0.26517  0.50416  0.60959  1.0000
  C   C2279     1.0  0.25859  0.79489  0.94608  1.0000
  C   C2280     1.0  0.29449  0.98752  0.59838  1.0000
  H   H1827     1.0  0.30499  0.93992  0.95036  1.0000
  C   C2281     1.0  0.18653  0.97913  0.83592  1.0000
  C   C2282     1.0  0.36901  0.83277  0.60266  1.0000
  C   C2283     1.0  0.37913  0.77261  0.68494  1.0000
  H   H1828     1.0  0.37784  0.85774  0.96199  1.0000
  C   C2284     1.0  0.37999  0.81921  0.57275  1.0000
  C   C2285     1.0  0.28645  0.51073  0.88942  1.0000
  Fe  Fe151     1.0  0.37908  0.94567  0.96630  1.0000
  C   C2286     1.0  0.37945  0.74153  0.71826  1.0000
  C   C2287     1.0  0.18931  0.57220  0.61748  1.0000
  H   H1829     1.0  0.21513  0.51822  0.71275  1.0000
  H   H1830     1.0  0.24482  0.98794  0.70107  1.0000
  C   C2288     1.0  0.24014  0.98554  0.66750  1.0000
  H   H1831     1.0  0.33945  0.50986  0.76430  1.0000
  H   H1832     1.0  0.29188  0.52131  0.89667  1.0000
  H   H1833     1.0  0.35873  0.98003  0.50389  1.0000
  P   P76       1.0  0.18913  0.98834  0.73847  1.0000
  H   H1834     1.0  0.18857  0.96044  0.52706  1.0000
  C   C2289     1.0  0.37517  0.51883  0.94564  1.0000
  H   H1835     1.0  0.26443  0.50026  0.91794  1.0000
  C   C2290     1.0  0.30041  0.49867  0.49837  1.0000
  H   H1836     1.0  0.18510  0.96623  0.84596  1.0000
  C   C2291     1.0  0.29352  0.94119  0.48909  1.0000
  H   H1837     1.0  0.38248  0.70973  0.76158  1.0000
  C   C2292     1.0  0.38210  0.83287  0.58412  1.0000
  H   H1838     1.0  0.37565  0.86904  0.58019  1.0000
  S   S296      1.0  0.38238  0.53507  0.60130  1.0000
  Fe  Fe152     1.0  0.38214  0.90910  0.96565  1.0000
  H   H1839     1.0  0.19056  0.95413  0.72888  1.0000
  C   C2293     1.0  0.18518  0.75006  0.54153  1.0000
  H   H1840     1.0  0.18532  0.59749  0.61872  1.0000
  C   C2294     1.0  0.18421  0.58464  0.62863  1.0000
  H   H1841     1.0  0.30547  0.50900  0.48287  1.0000
  C   C2295     1.0  0.34895  0.49567  0.95575  1.0000
  H   H1842     1.0  0.31110  0.99277  0.64513  1.0000
  H   H1843     1.0  0.38105  0.84914  0.53987  1.0000
  C   C2296     1.0  0.38175  0.51873  0.76429  1.0000
  C   C2297     1.0  0.37728  0.56471  0.84297  1.0000
  S   S297      1.0  0.38028  0.49691  0.88841  1.0000
  H   H1844     1.0  0.26675  0.49957  0.82836  1.0000
  C   C2298     1.0  0.28317  0.49456  0.50962  1.0000
  H   H1845     1.0  0.37926  0.53760  0.91362  1.0000
  H   H1846     1.0  0.38024  0.55831  0.85853  1.0000
  H   H1847     1.0  0.38217  0.50510  0.53734  1.0000
  H   H1848     1.0  0.38262  0.53508  0.70763  1.0000
  C   C2299     1.0  0.26773  0.85029  0.96866  1.0000
  Fe  Fe153     1.0  0.40198  0.29566  0.36028  1.0000
  S   S298      1.0  0.42529  0.28715  0.34752  1.0000
  S   S299      1.0  0.40239  0.31755  0.37933  1.0000
  H   H1849     1.0  0.54115  0.40531  0.02424  1.0000
  Fe  Fe154     1.0  0.40817  0.26011  0.36034  1.0000
  H   H1850     1.0  0.40540  0.46946  0.33918  1.0000
  Fe  Fe155     1.0  0.41615  0.28678  0.31476  1.0000
  S   S300      1.0  0.43424  0.30052  0.28021  1.0000
  H   H1851     1.0  0.39485  0.26442  0.13695  1.0000
  H   H1852     1.0  0.50259  0.07049  0.99536  1.0000
  H   H1853     1.0  0.41039  0.00125  0.30787  1.0000
  Fe  Fe156     1.0  0.41172  0.24959  0.99966  1.0000
  H   H1854     1.0  0.45701  0.16602  0.42180  1.0000
  S   S301      1.0  0.42077  0.24502  0.03365  1.0000
  H   H1855     1.0  0.44581  0.48102  0.39330  1.0000
  C   C2300     1.0  0.51678  0.07314  0.04431  1.0000
  C   C2301     1.0  0.54226  0.02993  0.44424  1.0000
  Fe  Fe157     1.0  0.45507  0.07397  0.37280  1.0000
  S   S302      1.0  0.46410  0.05042  0.38476  1.0000
  S   S303      1.0  0.43131  0.07875  0.39379  1.0000
  Fe  Fe158     1.0  0.47952  0.08328  0.32526  1.0000
  S   S304      1.0  0.48995  0.06014  0.33355  1.0000
  S   S305      1.0  0.48959  0.10607  0.29379  1.0000
  Fe  Fe159     1.0  0.46272  0.04493  0.34992  1.0000
  S   S306      1.0  0.45379  0.01579  0.35281  1.0000
  Fe  Fe160     1.0  0.49066  0.06701  0.36788  1.0000
  S   S307      1.0  0.51432  0.06260  0.38009  1.0000
  S   S308      1.0  0.45212  0.06757  0.33872  1.0000
  S   S309      1.0  0.48179  0.09117  0.35876  1.0000
  Fe  Fe161     1.0  0.47603  0.27871  0.16846  1.0000
  S   S310      1.0  0.47168  0.30293  0.14870  1.0000
  S   S311      1.0  0.45981  0.26234  0.20321  1.0000
  Fe  Fe162     1.0  0.50578  0.27908  0.13084  1.0000
  S   S312      1.0  0.50370  0.30352  0.10807  1.0000
  S   S313      1.0  0.52696  0.26648  0.11970  1.0000
  Fe  Fe163     1.0  0.50041  0.31350  0.14076  1.0000
  S   S314      1.0  0.51111  0.34194  0.14246  1.0000
  Fe  Fe164     1.0  0.47531  0.29105  0.11760  1.0000
  S   S315      1.0  0.45824  0.29437  0.09160  1.0000
  S   S316      1.0  0.50432  0.28984  0.16275  1.0000
  S   S317      1.0  0.47777  0.26607  0.13815  1.0000
  Fe  Fe165     1.0  0.52978  0.12919  0.16055  1.0000
  S   S318      1.0  0.54949  0.12870  0.12978  1.0000
  S   S319      1.0  0.51828  0.10461  0.18903  1.0000
  Fe  Fe166     1.0  0.53054  0.16653  0.14089  1.0000
  S   S320      1.0  0.55058  0.16899  0.10875  1.0000
  S   S321      1.0  0.51459  0.18463  0.15149  1.0000
  Fe  Fe167     1.0  0.53521  0.14254  0.10766  1.0000
  S   S322      1.0  0.53250  0.13680  0.07236  1.0000
  Fe  Fe168     1.0  0.56358  0.15489  0.13306  1.0000
  H   H1856     1.0  0.39774  0.16484  0.41856  1.0000
  S   S323      1.0  0.51439  0.14106  0.13816  1.0000
  S   S324      1.0  0.54465  0.15435  0.16539  1.0000
  Fe  Fe169     1.0  0.46298  0.07841  0.01794  1.0000
  C   C2302     1.0  0.39106  0.18955  0.32386  1.0000
  S   S325      1.0  0.46894  0.08585  0.05097  1.0000
  Fe  Fe170     1.0  0.43801  0.05048  0.00239  1.0000
  H   H1857     1.0  0.43910  0.00593  0.10783  1.0000
  S   S326      1.0  0.41581  0.02623  0.01496  1.0000
  H   H1858     1.0  0.41207  0.99829  0.05473  1.0000
  H   H1859     1.0  0.56806  0.17190  0.02341  1.0000
  C   C2303     1.0  0.42131  0.11130  0.03696  1.0000
  S   S327      1.0  0.46295  0.05166  0.01271  1.0000
  S   S328      1.0  0.43664  0.07607  0.01095  1.0000
  H   H1860     1.0  0.51209  0.07003  0.06294  1.0000
  Fe  Fe171     1.0  0.49073  0.39415  0.44974  1.0000
  S   S329      1.0  0.51919  0.40348  0.43604  1.0000
  H   H1861     1.0  0.41034  0.41523  0.42064  1.0000
  S   S330      1.0  0.45396  0.33911  0.44263  1.0000
  S   S331      1.0  0.47040  0.39009  0.42973  1.0000
  H   H1862     1.0  0.51682  0.47230  0.06005  1.0000
  H   H1863     1.0  0.38703  0.11238  0.39630  1.0000
  C   C2304     1.0  0.48449  0.47960  0.42113  1.0000
  C   C2305     1.0  0.53699  0.46213  0.40909  1.0000
  C   C2306     1.0  0.54888  0.45270  0.41302  1.0000
  C   C2307     1.0  0.54339  0.43462  0.42135  1.0000
  C   C2308     1.0  0.52602  0.42603  0.42577  1.0000
  C   C2309     1.0  0.51417  0.43551  0.42191  1.0000
  C   C2310     1.0  0.51968  0.45350  0.41358  1.0000
  H   H1864     1.0  0.56225  0.45933  0.40982  1.0000
  H   H1865     1.0  0.55259  0.42731  0.42430  1.0000
  H   H1866     1.0  0.50078  0.42895  0.42515  1.0000
  H   H1867     1.0  0.51051  0.46076  0.41044  1.0000
  C   C2311     1.0  0.58175  0.44384  0.07225  1.0000
  C   C2312     1.0  0.51469  0.12259  0.06673  1.0000
  C   C2313     1.0  0.50071  0.11260  0.08438  1.0000
  C   C2314     1.0  0.48693  0.10148  0.07915  1.0000
  C   C2315     1.0  0.48688  0.10012  0.05626  1.0000
  C   C2316     1.0  0.50088  0.11010  0.03855  1.0000
  C   C2317     1.0  0.51466  0.12126  0.04380  1.0000
  H   H1868     1.0  0.50048  0.11345  0.10210  1.0000
  H   H1869     1.0  0.47620  0.09387  0.09302  1.0000
  H   H1870     1.0  0.50110  0.10921  0.02086  1.0000
  H   H1871     1.0  0.52532  0.12905  0.03006  1.0000
  C   C2318     1.0  0.55794  0.37211  0.16464  1.0000
  C   C2319     1.0  0.55618  0.35468  0.16336  1.0000
  C   C2320     1.0  0.54200  0.34524  0.15678  1.0000
  C   C2321     1.0  0.52923  0.35305  0.15140  1.0000
  C   C2322     1.0  0.53091  0.37044  0.15284  1.0000
  C   C2323     1.0  0.54510  0.37989  0.15942  1.0000
  H   H1872     1.0  0.56596  0.34844  0.16734  1.0000
  H   H1873     1.0  0.54104  0.33194  0.15573  1.0000
  H   H1874     1.0  0.52118  0.37670  0.14875  1.0000
  H   H1875     1.0  0.54614  0.39321  0.16040  1.0000
  C   C2324     1.0  0.52350  0.24370  0.12859  1.0000
  C   C2325     1.0  0.50847  0.23339  0.14410  1.0000
  C   C2326     1.0  0.50604  0.21536  0.15084  1.0000
  C   C2327     1.0  0.51853  0.20739  0.14214  1.0000
  C   C2328     1.0  0.53363  0.21768  0.12676  1.0000
  C   C2329     1.0  0.53610  0.23577  0.12005  1.0000
  H   H1876     1.0  0.49871  0.23931  0.15090  1.0000
  H   H1877     1.0  0.49436  0.20749  0.16276  1.0000
  H   H1878     1.0  0.54336  0.21170  0.12000  1.0000
  H   H1879     1.0  0.54778  0.24365  0.10809  1.0000
  C   C2330     1.0  0.49834  0.10504  0.26515  1.0000
  C   C2331     1.0  0.49573  0.08950  0.25787  1.0000
  C   C2332     1.0  0.50205  0.08952  0.23454  1.0000
  C   C2333     1.0  0.51104  0.10504  0.21834  1.0000
  C   C2334     1.0  0.51407  0.12049  0.22580  1.0000
  C   C2335     1.0  0.50768  0.12047  0.24904  1.0000
  H   H1880     1.0  0.48857  0.07753  0.27008  1.0000
  H   H1881     1.0  0.49974  0.07749  0.22893  1.0000
  H   H1882     1.0  0.52113  0.13249  0.21360  1.0000
  H   H1883     1.0  0.51003  0.13248  0.25453  1.0000
  C   C2336     1.0  0.54143  0.08739  0.43075  1.0000
  C   C2337     1.0  0.54789  0.07585  0.41941  1.0000
  C   C2338     1.0  0.53961  0.06878  0.40355  1.0000
  C   C2339     1.0  0.52467  0.07291  0.39910  1.0000
  C   C2340     1.0  0.51830  0.08463  0.41018  1.0000
  C   C2341     1.0  0.52675  0.09195  0.42579  1.0000
  H   H1884     1.0  0.55925  0.07236  0.42285  1.0000
  H   H1885     1.0  0.54456  0.05972  0.39509  1.0000
  H   H1886     1.0  0.50684  0.08798  0.40685  1.0000
  H   H1887     1.0  0.40492  0.37704  0.36549  1.0000
  H   H1888     1.0  0.52908  0.01091  0.40248  1.0000
  H   H1889     1.0  0.38837  0.00868  0.34868  1.0000
  H   H1890     1.0  0.42612  0.44801  0.43570  1.0000
  H   H1891     1.0  0.45908  0.12307  0.43051  1.0000
  C   C2342     1.0  0.45791  0.19329  0.41412  1.0000
  S   S332      1.0  0.38519  0.26855  0.37511  1.0000
  C   C2343     1.0  0.39484  0.21056  0.34744  1.0000
  C   C2344     1.0  0.42849  0.00839  0.32845  1.0000
  H   H1892     1.0  0.41054  0.10042  0.04592  1.0000
  C   C2345     1.0  0.42559  0.00394  0.08072  1.0000
  H   H1893     1.0  0.43299  0.02176  0.31892  1.0000
  H   H1894     1.0  0.46498  0.00706  0.44672  1.0000
  H   H1895     1.0  0.40236  0.29837  0.24964  1.0000
  C   C2346     1.0  0.40987  0.01213  0.99690  1.0000
  C   C2347     1.0  0.42156  0.99639  0.45671  1.0000
  C   C2348     1.0  0.45778  0.47062  0.99039  1.0000
  C   C2349     1.0  0.43164  0.11687  0.44147  1.0000
  C   C2350     1.0  0.44710  0.11540  0.42874  1.0000
  C   C2351     1.0  0.44722  0.10383  0.41400  1.0000
  C   C2352     1.0  0.43184  0.09366  0.41183  1.0000
  C   C2353     1.0  0.41636  0.09530  0.42433  1.0000
  C   C2354     1.0  0.41623  0.10687  0.43909  1.0000
  H   H1896     1.0  0.45921  0.10266  0.40451  1.0000
  C   C2355     1.0  0.50552  0.06900  0.03028  1.0000
  C   C2356     1.0  0.52836  0.08253  0.99622  1.0000
  C   C2357     1.0  0.44855  0.28046  0.07508  1.0000
  C   C2358     1.0  0.44727  0.26265  0.07963  1.0000
  C   C2359     1.0  0.43884  0.25211  0.06673  1.0000
  C   C2360     1.0  0.43180  0.25918  0.04879  1.0000
  C   C2361     1.0  0.43317  0.27701  0.04413  1.0000
  C   C2362     1.0  0.44135  0.28750  0.05730  1.0000
  H   H1897     1.0  0.45267  0.25695  0.09321  1.0000
  H   H1898     1.0  0.43786  0.23836  0.07061  1.0000
  H   H1899     1.0  0.42782  0.28272  0.03052  1.0000
  H   H1900     1.0  0.44219  0.30122  0.05359  1.0000
  C   C2363     1.0  0.41744  0.32385  0.39591  1.0000
  C   C2364     1.0  0.42968  0.31482  0.39978  1.0000
  C   C2365     1.0  0.44087  0.31977  0.41391  1.0000
  C   C2366     1.0  0.44017  0.33396  0.42402  1.0000
  C   C2367     1.0  0.42820  0.34324  0.41973  1.0000
  C   C2368     1.0  0.41683  0.33812  0.40589  1.0000
  H   H1901     1.0  0.43027  0.30378  0.39232  1.0000
  H   H1902     1.0  0.44997  0.31240  0.41726  1.0000
  H   H1903     1.0  0.42743  0.35411  0.42750  1.0000
  H   H1904     1.0  0.40738  0.34514  0.40310  1.0000
  C   C2369     1.0  0.41885  0.12571  0.02267  1.0000
  C   C2370     1.0  0.41482  0.21088  0.41220  1.0000
  C   C2371     1.0  0.45165  0.12476  0.02803  1.0000
  H   H1905     1.0  0.42789  0.21134  0.40472  1.0000
  H   H1906     1.0  0.41153  0.18826  0.43941  1.0000
  C   C2372     1.0  0.44096  0.28956  0.25901  1.0000
  C   C2373     1.0  0.45111  0.29930  0.23739  1.0000
  C   C2374     1.0  0.45686  0.29111  0.22010  1.0000
  C   C2375     1.0  0.45281  0.27305  0.22451  1.0000
  C   C2376     1.0  0.44282  0.26326  0.24620  1.0000
  C   C2377     1.0  0.43668  0.27148  0.26331  1.0000
  H   H1907     1.0  0.45465  0.31328  0.23397  1.0000
  H   H1908     1.0  0.46466  0.29877  0.20351  1.0000
  H   H1909     1.0  0.43973  0.24929  0.24968  1.0000
  H   H1910     1.0  0.42869  0.26385  0.27976  1.0000
  H   H1911     1.0  0.52091  0.44925  0.02654  1.0000
  H   H1912     1.0  0.44598  0.26441  0.39134  1.0000
  H   H1913     1.0  0.38924  0.99489  0.02390  1.0000
  C   C2378     1.0  0.39269  0.00251  0.38297  1.0000
  H   H1914     1.0  0.50646  0.44338  0.99515  1.0000
  H   H1915     1.0  0.50777  0.37579  0.03281  1.0000
  C   C2379     1.0  0.39547  0.26430  0.23728  1.0000
  H   H1916     1.0  0.47642  0.45188  0.42532  1.0000
  C   C2380     1.0  0.55508  0.39314  0.08610  1.0000
  H   H1917     1.0  0.41527  0.48862  0.36439  1.0000
  S   S333      1.0  0.40105  0.25895  0.32625  1.0000
  H   H1918     1.0  0.41035  0.47677  0.40656  1.0000
  H   H1919     1.0  0.55347  0.37098  0.98950  1.0000
  C   C2381     1.0  0.39119  0.44027  0.39128  1.0000
  H   H1920     1.0  0.55346  0.07154  0.97235  1.0000
  H   H1921     1.0  0.50417  0.03967  0.44414  1.0000
  S   S334      1.0  0.41978  0.24045  0.37901  1.0000
  S   S335      1.0  0.44251  0.42085  0.44373  1.0000
  C   C2382     1.0  0.51818  0.36971  0.02986  1.0000
  C   C2383     1.0  0.39402  0.01364  0.36177  1.0000
  C   C2384     1.0  0.44932  0.45723  0.98169  1.0000
  H   H1922     1.0  0.55827  0.12855  0.01931  1.0000
  S   S336      1.0  0.39389  0.29748  0.32631  1.0000
  C   C2385     1.0  0.39418  0.39517  0.38146  1.0000
  C   C2386     1.0  0.41924  0.38634  0.38917  1.0000
  C   C2387     1.0  0.45748  0.24482  0.43891  1.0000
  H   H1923     1.0  0.48527  0.28502  0.42402  1.0000
  C   C2388     1.0  0.40312  0.46431  0.35764  1.0000
  Fe  Fe172     1.0  0.45947  0.36429  0.45484  1.0000
  C   C2389     1.0  0.43283  0.13976  0.01087  1.0000
  C   C2390     1.0  0.51353  0.43466  0.00199  1.0000
  C   C2391     1.0  0.46008  0.46479  0.40887  1.0000
  H   H1924     1.0  0.55434  0.39297  0.45473  1.0000
  Fe  Fe173     1.0  0.45521  0.40017  0.45672  1.0000
  C   C2392     1.0  0.43759  0.18840  0.03981  1.0000
  C   C2393     1.0  0.51134  0.07359  0.00625  1.0000
  H   H1925     1.0  0.39880  0.18570  0.38292  1.0000
  H   H1926     1.0  0.43225  0.21311  0.04076  1.0000
  C   C2394     1.0  0.43316  0.99740  0.09806  1.0000
  S   S337      1.0  0.54895  0.48073  0.00162  1.0000
  C   C2395     1.0  0.45061  0.00589  0.42041  1.0000
  C   C2396     1.0  0.40303  0.05933  0.97181  1.0000
  C   C2397     1.0  0.49131  0.00397  0.36804  1.0000
  C   C2398     1.0  0.53143  0.42727  0.02780  1.0000
  H   H1927     1.0  0.41620  0.03126  0.40721  1.0000
  H   H1928     1.0  0.54585  0.20110  0.17882  1.0000
  H   H1929     1.0  0.39559  0.18043  0.31497  1.0000
  C   C2399     1.0  0.50277  0.02012  0.36443  1.0000
  C   C2400     1.0  0.52027  0.02202  0.35729  1.0000
  C   C2401     1.0  0.52629  0.00769  0.35367  1.0000
  H   H1930     1.0  0.38992  0.25834  0.04706  1.0000
  C   C2402     1.0  0.56706  0.07530  0.97095  1.0000
  H   H1931     1.0  0.40456  0.03951  0.34046  1.0000
  H   H1932     1.0  0.44020  0.47385  0.44877  1.0000
  P   P77       1.0  0.57256  0.38447  0.07535  1.0000
  C   C2403     1.0  0.51524  0.42060  0.99226  1.0000
  C   C2404     1.0  0.53041  0.37512  0.00871  1.0000
  C   C2405     1.0  0.43767  0.11086  0.03968  1.0000
  C   C2406     1.0  0.40265  0.26691  0.14918  1.0000
  H   H1933     1.0  0.53984  0.00916  0.34818  1.0000
  H   H1934     1.0  0.50970  0.46253  0.45526  1.0000
  C   C2407     1.0  0.56395  0.43079  0.32292  1.0000
  C   C2408     1.0  0.55583  0.40256  0.46505  1.0000
  C   C2409     1.0  0.41971  0.99809  0.43380  1.0000
  H   H1935     1.0  0.44162  0.16416  0.03483  1.0000
  H   H1936     1.0  0.43671  0.44937  0.99096  1.0000
  C   C2410     1.0  0.54052  0.39060  0.07690  1.0000
  H   H1937     1.0  0.58231  0.08632  0.02671  1.0000
  H   H1938     1.0  0.49804  0.03120  0.36721  1.0000
  H   H1939     1.0  0.52906  0.03463  0.35470  1.0000
  H   H1940     1.0  0.47828  0.99508  0.33229  1.0000
  C   C2411     1.0  0.41575  0.99670  0.32215  1.0000
  H   H1941     1.0  0.56145  0.42707  0.30734  1.0000
  C   C2412     1.0  0.53309  0.41316  0.01823  1.0000
  C   C2413     1.0  0.39616  0.99730  0.00613  1.0000
  H   H1942     1.0  0.39021  0.43866  0.35618  1.0000
  C   C2414     1.0  0.43587  0.00256  0.34645  1.0000
  C   C2415     1.0  0.40980  0.02616  0.39478  1.0000
  C   C2416     1.0  0.41972  0.26637  0.14395  1.0000
  C   C2417     1.0  0.42990  0.26963  0.15956  1.0000
  C   C2418     1.0  0.42321  0.27377  0.18016  1.0000
  C   C2419     1.0  0.40614  0.27455  0.18548  1.0000
  Fe  Fe174     1.0  0.47477  0.06509  0.97559  1.0000
  P   P78       1.0  0.39800  0.28098  0.21157  1.0000
  H   H1943     1.0  0.40962  0.05466  0.98460  1.0000
  C   C2420     1.0  0.41222  0.30095  0.21299  1.0000
  C   C2421     1.0  0.41105  0.30637  0.23387  1.0000
  C   C2422     1.0  0.42141  0.32221  0.23477  1.0000
  C   C2423     1.0  0.43318  0.33267  0.21495  1.0000
  C   C2424     1.0  0.43444  0.32744  0.19407  1.0000
  C   C2425     1.0  0.42388  0.31176  0.19298  1.0000
  C   C2426     1.0  0.49597  0.48940  0.01078  1.0000
  H   H1944     1.0  0.38974  0.22889  0.29307  1.0000
  C   C2427     1.0  0.52715  0.39776  0.08439  1.0000
  H   H1945     1.0  0.56295  0.04313  0.38332  1.0000
  S   S338      1.0  0.55169  0.09680  0.45051  1.0000
  C   C2428     1.0  0.39114  0.23857  0.27747  1.0000
  H   H1946     1.0  0.42571  0.01755  0.07691  1.0000
  C   C2429     1.0  0.42131  0.27379  0.44910  1.0000
  C   C2430     1.0  0.51504  0.02469  0.42239  1.0000
  H   H1947     1.0  0.54367  0.41784  0.12314  1.0000
  H   H1948     1.0  0.49796  0.36309  0.99966  1.0000
  H   H1949     1.0  0.42518  0.26362  0.12770  1.0000
  H   H1950     1.0  0.44311  0.26916  0.15555  1.0000
  H   H1951     1.0  0.43146  0.27667  0.19175  1.0000
  C   C2431     1.0  0.44927  0.13919  0.01369  1.0000
  C   C2432     1.0  0.45708  0.20780  0.42329  1.0000
  H   H1952     1.0  0.42070  0.32603  0.25113  1.0000
  H   H1953     1.0  0.44153  0.34463  0.21594  1.0000
  H   H1954     1.0  0.44373  0.33542  0.17872  1.0000
  H   H1955     1.0  0.42493  0.30819  0.17648  1.0000
  C   C2433     1.0  0.54478  0.35367  0.02299  1.0000
  H   H1956     1.0  0.42240  0.26590  0.43653  1.0000
  H   H1957     1.0  0.38548  0.27249  0.07982  1.0000
  H   H1958     1.0  0.43542  0.99328  0.02783  1.0000
  H   H1959     1.0  0.56338  0.39544  0.21963  1.0000
  H   H1960     1.0  0.58171  0.43117  0.06924  1.0000
  C   C2434     1.0  0.38408  0.99917  0.44997  1.0000
  H   H1961     1.0  0.51593  0.39568  0.07727  1.0000
  H   H1962     1.0  0.45160  0.47295  0.00651  1.0000
  C   C2435     1.0  0.53985  0.08663  0.01013  1.0000
  C   C2436     1.0  0.58225  0.11774  0.05685  1.0000
  H   H1963     1.0  0.47819  0.46394  0.02142  1.0000
  C   C2437     1.0  0.57180  0.48333  0.44585  1.0000
  H   H1964     1.0  0.47778  0.00270  0.37366  1.0000
  C   C2438     1.0  0.57551  0.46321  0.27195  1.0000
  H   H1965     1.0  0.57066  0.05054  0.34071  1.0000
  S   S339      1.0  0.47654  0.09198  0.98126  1.0000
  C   C2439     1.0  0.49868  0.37065  0.98268  1.0000
  H   H1966     1.0  0.45371  0.16367  0.46375  1.0000
  P   P79       1.0  0.39885  0.99458  0.42727  1.0000
  C   C2440     1.0  0.45237  0.00440  0.44318  1.0000
  C   C2441     1.0  0.54692  0.33365  0.10447  1.0000
  H   H1967     1.0  0.43876  0.23659  0.41954  1.0000
  C   C2442     1.0  0.42078  0.39719  0.40455  1.0000
  C   C2443     1.0  0.39447  0.44691  0.36731  1.0000
  C   C2444     1.0  0.55600  0.40284  0.10305  1.0000
  C   C2445     1.0  0.40049  0.00873  0.39972  1.0000
  C   C2446     1.0  0.54974  0.18535  0.20925  1.0000
  C   C2447     1.0  0.57149  0.10176  0.21783  1.0000
  H   H1968     1.0  0.53958  0.38311  0.06389  1.0000
  H   H1969     1.0  0.55258  0.03210  0.45301  1.0000
  H   H1970     1.0  0.49219  0.06258  0.03807  1.0000
  C   C2448     1.0  0.39024  0.22246  0.41167  1.0000
  H   H1971     1.0  0.56881  0.00434  0.46306  1.0000
  C   C2449     1.0  0.43028  0.17574  0.00820  1.0000
  C   C2450     1.0  0.51919  0.35631  0.04731  1.0000
  C   C2451     1.0  0.38843  0.19666  0.44089  1.0000
  C   C2452     1.0  0.43163  0.20265  0.03180  1.0000
  C   C2453     1.0  0.47007  0.30111  0.46633  1.0000
  C   C2454     1.0  0.43690  0.17499  0.02814  1.0000
  C   C2455     1.0  0.53249  0.34831  0.04389  1.0000
  C   C2456     1.0  0.40552  0.19769  0.43167  1.0000
  H   H1972     1.0  0.56332  0.18762  0.20238  1.0000
  C   C2457     1.0  0.52828  0.40761  0.10101  1.0000
  C   C2458     1.0  0.54629  0.12539  0.97984  1.0000
  H   H1973     1.0  0.53704  0.12102  0.99627  1.0000
  C   C2459     1.0  0.45660  0.17738  0.42872  1.0000
  S   S340      1.0  0.57727  0.44515  0.23734  1.0000
  H   H1974     1.0  0.42035  0.23509  0.45290  1.0000
  C   C2460     1.0  0.42495  0.20349  0.01212  1.0000
  C   C2461     1.0  0.40980  0.15230  0.98396  1.0000
  C   C2462     1.0  0.53390  0.08182  0.03435  1.0000
  C   C2463     1.0  0.40320  0.03099  0.35708  1.0000
  S   S341      1.0  0.57282  0.43143  0.18032  1.0000
  H   H1975     1.0  0.41266  0.25084  0.22119  1.0000
  C   C2464     1.0  0.53996  0.19301  0.19602  1.0000
  H   H1976     1.0  0.39558  0.16531  0.00571  1.0000
  H   H1977     1.0  0.46114  0.30730  0.45936  1.0000
  C   C2465     1.0  0.47387  0.46425  0.41915  1.0000
  C   C2466     1.0  0.40878  0.47509  0.37178  1.0000
  H   H1978     1.0  0.56206  0.46054  0.27234  1.0000
  H   H1979     1.0  0.56697  0.40498  0.11064  1.0000
  H   H1980     1.0  0.46907  0.28883  0.39356  1.0000
  H   H1981     1.0  0.45041  0.00214  0.98724  1.0000
  C   C2467     1.0  0.52829  0.03659  0.45059  1.0000
  C   C2468     1.0  0.52899  0.01803  0.41596  1.0000
  C   C2469     1.0  0.41953  0.43972  0.45242  1.0000
  C   C2470     1.0  0.58265  0.37911  0.03085  1.0000
  C   C2471     1.0  0.49151  0.29543  0.24155  1.0000
  C   C2472     1.0  0.50421  0.29478  0.22321  1.0000
  C   C2473     1.0  0.51553  0.31010  0.20940  1.0000
  C   C2474     1.0  0.51402  0.32608  0.21371  1.0000
  C   C2475     1.0  0.50116  0.32688  0.23193  1.0000
  C   C2476     1.0  0.48994  0.31141  0.24590  1.0000
  P   P80       1.0  0.49825  0.34771  0.23565  1.0000
  C   C2477     1.0  0.51889  0.36290  0.23056  1.0000
  C   C2478     1.0  0.48665  0.35567  0.21520  1.0000
  C   C2479     1.0  0.48723  0.35034  0.19430  1.0000
  C   C2480     1.0  0.47924  0.35745  0.17784  1.0000
  C   C2481     1.0  0.47055  0.36990  0.18211  1.0000
  C   C2482     1.0  0.46972  0.37515  0.20299  1.0000
  C   C2483     1.0  0.47770  0.36804  0.21951  1.0000
  C   C2484     1.0  0.52124  0.38058  0.22092  1.0000
  C   C2485     1.0  0.53718  0.39228  0.21726  1.0000
  C   C2486     1.0  0.55090  0.38645  0.22310  1.0000
  C   C2487     1.0  0.54870  0.36891  0.23267  1.0000
  C   C2488     1.0  0.53274  0.35718  0.23656  1.0000
  C   C2489     1.0  0.48648  0.34571  0.26477  1.0000
  C   C2490     1.0  0.49495  0.35050  0.28173  1.0000
  C   C2491     1.0  0.48571  0.34869  0.30428  1.0000
  C   C2492     1.0  0.46798  0.34201  0.31010  1.0000
  C   C2493     1.0  0.45948  0.33723  0.29334  1.0000
  C   C2494     1.0  0.46866  0.33909  0.27077  1.0000
  H   H1982     1.0  0.48247  0.28357  0.25190  1.0000
  H   H1983     1.0  0.50506  0.28243  0.21940  1.0000
  H   H1984     1.0  0.52524  0.30963  0.19495  1.0000
  H   H1985     1.0  0.52260  0.33784  0.20243  1.0000
  H   H1986     1.0  0.47967  0.31153  0.25978  1.0000
  H   H1987     1.0  0.49408  0.34092  0.19031  1.0000
  H   H1988     1.0  0.48011  0.35342  0.16159  1.0000
  H   H1989     1.0  0.46454  0.37551  0.16918  1.0000
  H   H1990     1.0  0.46303  0.38485  0.20628  1.0000
  H   H1991     1.0  0.47721  0.37247  0.23542  1.0000
  H   H1992     1.0  0.51092  0.38540  0.21593  1.0000
  H   H1993     1.0  0.53905  0.40584  0.20942  1.0000
  C   C2495     1.0  0.47417  0.48081  0.97844  1.0000
  H   H1994     1.0  0.55952  0.36439  0.23653  1.0000
  H   H1995     1.0  0.53131  0.34363  0.24399  1.0000
  H   H1996     1.0  0.50868  0.35553  0.27768  1.0000
  H   H1997     1.0  0.49230  0.35230  0.31732  1.0000
  H   H1998     1.0  0.46079  0.34036  0.32763  1.0000
  H   H1999     1.0  0.44576  0.33176  0.29793  1.0000
  H   H2000     1.0  0.46186  0.33499  0.25814  1.0000
  C   C2496     1.0  0.44878  0.24705  0.42108  1.0000
  H   H2001     1.0  0.51798  0.41324  0.10677  1.0000
  P   P81       1.0  0.42968  0.15855  0.99269  1.0000
  C   C2497     1.0  0.56637  0.01723  0.38660  1.0000
  C   C2498     1.0  0.45291  0.26285  0.40489  1.0000
  H   H2002     1.0  0.40445  0.08744  0.42274  1.0000
  H   H2003     1.0  0.58300  0.41210  0.45164  1.0000
  C   C2499     1.0  0.56747  0.36126  0.08609  1.0000
  H   H2004     1.0  0.55144  0.10567  0.20057  1.0000
  C   C2500     1.0  0.57038  0.10736  0.01945  1.0000
  C   C2501     1.0  0.57086  0.03788  0.35005  1.0000
  C   C2502     1.0  0.47068  0.25874  0.43988  1.0000
  C   C2503     1.0  0.56512  0.10853  0.19928  1.0000
  C   C2504     1.0  0.40602  0.38541  0.37752  1.0000
  C   C2505     1.0  0.54275  0.02068  0.42676  1.0000
  C   C2506     1.0  0.58178  0.47653  0.08027  1.0000
  C   C2507     1.0  0.56640  0.12164  0.02708  1.0000
  C   C2508     1.0  0.57232  0.12677  0.04568  1.0000
  C   C2509     1.0  0.44132  0.47473  0.46609  1.0000
  C   C2510     1.0  0.55973  0.11754  0.97531  1.0000
  H   H2005     1.0  0.40325  0.28539  0.43473  1.0000
  H   H2006     1.0  0.49150  0.45319  0.05249  1.0000
  C   C2511     1.0  0.55059  0.35158  0.09616  1.0000
  C   C2512     1.0  0.39529  0.40562  0.39755  1.0000
  H   H2007     1.0  0.45946  0.19430  0.39571  1.0000
  C   C2513     1.0  0.40185  0.23836  0.25681  1.0000
  C   C2514     1.0  0.58095  0.43568  0.32455  1.0000
  C   C2515     1.0  0.43438  0.00266  0.41575  1.0000
  C   C2516     1.0  0.54272  0.41018  0.11028  1.0000
  H   H2008     1.0  0.40876  0.22848  0.25635  1.0000
  H   H2009     1.0  0.46181  0.00982  0.40624  1.0000
  C   C2517     1.0  0.42477  0.42500  0.46085  1.0000
  H   H2010     1.0  0.45831  0.21989  0.41149  1.0000
  P   P82       1.0  0.56078  0.01222  0.41788  1.0000
  C   C2518     1.0  0.46592  0.27659  0.40613  1.0000
  S   S342      1.0  0.38732  0.23144  0.99726  1.0000
  H   H2011     1.0  0.56867  0.13739  0.05202  1.0000
  C   C2519     1.0  0.40779  0.16673  0.40328  1.0000
  C   C2520     1.0  0.40925  0.29531  0.46382  1.0000
  C   C2521     1.0  0.41851  0.01526  0.97373  1.0000
  H   H2012     1.0  0.47781  0.25759  0.45318  1.0000
  H   H2013     1.0  0.53395  0.32635  0.11279  1.0000
  C   C2522     1.0  0.40731  0.22346  0.40241  1.0000
  S   S343      1.0  0.57638  0.38336  0.17276  1.0000
  H   H2014     1.0  0.40605  0.12582  0.02094  1.0000
  H   H2015     1.0  0.43956  0.09969  0.05079  1.0000
  C   C2523     1.0  0.48721  0.30624  0.45450  1.0000
  C   C2524     1.0  0.57193  0.41339  0.46324  1.0000
  C   C2525     1.0  0.47492  0.27447  0.42344  1.0000
  H   H2016     1.0  0.57657  0.48251  0.04635  1.0000
  C   C2526     1.0  0.51469  0.03398  0.43970  1.0000
  C   C2527     1.0  0.57704  0.39017  0.04408  1.0000
  C   C2528     1.0  0.40135  0.19916  0.33567  1.0000
  H   H2017     1.0  0.45204  0.45286  0.40709  1.0000
  P   P83       1.0  0.42243  0.19644  0.33670  1.0000
  C   C2529     1.0  0.43644  0.21724  0.33556  1.0000
  C   C2530     1.0  0.42148  0.18115  0.36313  1.0000
  C   C2531     1.0  0.43406  0.17199  0.36425  1.0000
  C   C2532     1.0  0.43332  0.16013  0.38461  1.0000
  C   C2533     1.0  0.42019  0.15751  0.40411  1.0000
  C   C2534     1.0  0.57550  0.02586  0.33800  1.0000
  C   C2535     1.0  0.40842  0.17853  0.38292  1.0000
  C   C2536     1.0  0.43490  0.23243  0.32162  1.0000
  C   C2537     1.0  0.44567  0.24852  0.32082  1.0000
  C   C2538     1.0  0.45801  0.24959  0.33392  1.0000
  C   C2539     1.0  0.45967  0.23457  0.34777  1.0000
  C   C2540     1.0  0.44894  0.21845  0.34859  1.0000
  C   C2541     1.0  0.43047  0.18875  0.31163  1.0000
  C   C2542     1.0  0.42704  0.17088  0.31263  1.0000
  C   C2543     1.0  0.43296  0.16487  0.29321  1.0000
  C   C2544     1.0  0.44203  0.17663  0.27251  1.0000
  C   C2545     1.0  0.44532  0.19442  0.27123  1.0000
  C   C2546     1.0  0.43960  0.20048  0.29070  1.0000
  P   P84       1.0  0.52896  0.39266  0.98652  1.0000
  H   H2018     1.0  0.40237  0.21782  0.35703  1.0000
  H   H2019     1.0  0.54219  0.08512  0.04572  1.0000
  H   H2020     1.0  0.44445  0.17398  0.34940  1.0000
  H   H2021     1.0  0.44289  0.15289  0.38540  1.0000
  H   H2022     1.0  0.41968  0.14840  0.41995  1.0000
  H   H2023     1.0  0.53157  0.48662  0.34861  1.0000
  C   C2547     1.0  0.40597  0.46843  0.39555  1.0000
  H   H2024     1.0  0.42529  0.23191  0.31153  1.0000
  H   H2025     1.0  0.44425  0.26024  0.31040  1.0000
  H   H2026     1.0  0.46609  0.26211  0.33358  1.0000
  H   H2027     1.0  0.46907  0.23547  0.35818  1.0000
  H   H2028     1.0  0.45031  0.20705  0.35966  1.0000
  H   H2029     1.0  0.41971  0.16153  0.32835  1.0000
  H   H2030     1.0  0.43048  0.15107  0.29420  1.0000
  H   H2031     1.0  0.44656  0.17195  0.25748  1.0000
  H   H2032     1.0  0.45235  0.20353  0.25512  1.0000
  H   H2033     1.0  0.44229  0.21431  0.28918  1.0000
  C   C2548     1.0  0.47746  0.17804  0.30263  1.0000
  C   C2549     1.0  0.47634  0.16161  0.31575  1.0000
  C   C2550     1.0  0.47989  0.14872  0.30469  1.0000
  C   C2551     1.0  0.48442  0.15218  0.28056  1.0000
  C   C2552     1.0  0.48531  0.16854  0.26715  1.0000
  C   C2553     1.0  0.48208  0.18155  0.27843  1.0000
  P   P85       1.0  0.49135  0.17284  0.23584  1.0000
  C   C2554     1.0  0.48321  0.19025  0.22275  1.0000
  C   C2555     1.0  0.51434  0.17868  0.22630  1.0000
  C   C2556     1.0  0.52237  0.18974  0.20453  1.0000
  H   H2034     1.0  0.50939  0.41867  0.97796  1.0000
  C   C2557     1.0  0.54191  0.17450  0.23109  1.0000
  C   C2558     1.0  0.52428  0.17116  0.23961  1.0000
  C   C2559     1.0  0.46946  0.18686  0.21205  1.0000
  C   C2560     1.0  0.46351  0.20047  0.20159  1.0000
  C   C2561     1.0  0.47129  0.21756  0.20157  1.0000
  C   C2562     1.0  0.48507  0.22107  0.21195  1.0000
  C   C2563     1.0  0.49105  0.20751  0.22245  1.0000
  C   C2564     1.0  0.48296  0.15342  0.22654  1.0000
  C   C2565     1.0  0.46749  0.14164  0.23921  1.0000
  C   C2566     1.0  0.46167  0.12605  0.23293  1.0000
  C   C2567     1.0  0.47104  0.12229  0.21366  1.0000
  C   C2568     1.0  0.48605  0.13422  0.20046  1.0000
  C   C2569     1.0  0.49201  0.14974  0.20679  1.0000
  H   H2035     1.0  0.47486  0.18810  0.31118  1.0000
  H   H2036     1.0  0.47290  0.15886  0.33448  1.0000
  H   H2037     1.0  0.47926  0.13597  0.31473  1.0000
  H   H2038     1.0  0.48719  0.14196  0.27245  1.0000
  H   H2039     1.0  0.48297  0.19437  0.26871  1.0000
  H   H2040     1.0  0.51499  0.19539  0.19365  1.0000
  H   H2041     1.0  0.54944  0.16835  0.24123  1.0000
  H   H2042     1.0  0.51845  0.16243  0.25632  1.0000
  H   H2043     1.0  0.46353  0.17379  0.21128  1.0000
  H   H2044     1.0  0.45316  0.19783  0.19291  1.0000
  H   H2045     1.0  0.46692  0.22816  0.19306  1.0000
  H   H2046     1.0  0.49133  0.23439  0.21134  1.0000
  H   H2047     1.0  0.50201  0.21050  0.22991  1.0000
  H   H2048     1.0  0.46014  0.14424  0.25431  1.0000
  H   H2049     1.0  0.45012  0.11669  0.24326  1.0000
  H   H2050     1.0  0.46684  0.11004  0.20906  1.0000
  H   H2051     1.0  0.49340  0.13117  0.18571  1.0000
  H   H2052     1.0  0.50384  0.15861  0.19643  1.0000
  C   C2570     1.0  0.52168  0.43801  0.01965  1.0000
  C   C2571     1.0  0.39534  0.15758  0.99293  1.0000
  C   C2572     1.0  0.55072  0.43171  0.34059  1.0000
  C   C2573     1.0  0.55481  0.43719  0.36010  1.0000
  P   P86       1.0  0.52880  0.42734  0.33776  1.0000
  C   C2574     1.0  0.51982  0.44397  0.34729  1.0000
  C   C2575     1.0  0.52857  0.42807  0.30773  1.0000
  C   C2576     1.0  0.52709  0.44299  0.29323  1.0000
  C   C2577     1.0  0.52846  0.44391  0.26957  1.0000
  C   C2578     1.0  0.53139  0.43002  0.26025  1.0000
  C   C2579     1.0  0.53256  0.41501  0.27463  1.0000
  C   C2580     1.0  0.53108  0.41398  0.29830  1.0000
  C   C2581     1.0  0.50274  0.43999  0.35959  1.0000
  C   C2582     1.0  0.49606  0.45282  0.36753  1.0000
  C   C2583     1.0  0.50639  0.46966  0.36341  1.0000
  C   C2584     1.0  0.52339  0.47371  0.35125  1.0000
  C   C2585     1.0  0.53006  0.46099  0.34303  1.0000
  C   C2586     1.0  0.51624  0.40640  0.35534  1.0000
  C   C2587     1.0  0.51987  0.39945  0.37634  1.0000
  C   C2588     1.0  0.50936  0.38382  0.39058  1.0000
  C   C2589     1.0  0.49506  0.37507  0.38412  1.0000
  C   C2590     1.0  0.49134  0.38188  0.36325  1.0000
  C   C2591     1.0  0.50185  0.39749  0.34892  1.0000
  C   C2592     1.0  0.54378  0.36703  0.00545  1.0000
  H   H2053     1.0  0.46433  0.12425  0.03021  1.0000
  H   H2054     1.0  0.54485  0.43821  0.37376  1.0000
  H   H2055     1.0  0.52550  0.45416  0.29986  1.0000
  H   H2056     1.0  0.52800  0.45570  0.25826  1.0000
  H   H2057     1.0  0.53332  0.43112  0.24174  1.0000
  H   H2058     1.0  0.53527  0.40445  0.26722  1.0000
  H   H2059     1.0  0.53264  0.40250  0.30909  1.0000
  H   H2060     1.0  0.49458  0.42699  0.36338  1.0000
  H   H2061     1.0  0.48295  0.44958  0.37725  1.0000
  H   H2062     1.0  0.46023  0.14993  0.00494  1.0000
  H   H2063     1.0  0.54331  0.46440  0.33371  1.0000
  H   H2064     1.0  0.53055  0.40622  0.38213  1.0000
  H   H2065     1.0  0.51207  0.37872  0.40697  1.0000
  H   H2066     1.0  0.48669  0.36318  0.39551  1.0000
  H   H2067     1.0  0.48011  0.37521  0.35843  1.0000
  H   H2068     1.0  0.49849  0.40281  0.33312  1.0000
  S   S344      1.0  0.54309  0.48477  0.39982  1.0000
  H   H2069     1.0  0.49130  0.31642  0.43877  1.0000
  H   H2070     1.0  0.38729  0.31261  0.19590  1.0000
  H   H2071     1.0  0.51225  0.30218  0.45361  1.0000
  H   H2072     1.0  0.58281  0.37695  0.11912  1.0000
  C   C2593     1.0  0.57635  0.11917  0.17911  1.0000
  H   H2073     1.0  0.40761  0.08504  0.97788  1.0000
  C   C2594     1.0  0.48609  0.36512  0.97097  1.0000
  C   C2595     1.0  0.39583  0.27091  0.16991  1.0000
  C   C2596     1.0  0.58194  0.47213  0.28785  1.0000
  C   C2597     1.0  0.39731  0.45106  0.40525  1.0000
  C   C2598     1.0  0.49670  0.46630  0.04212  1.0000
  H   H2074     1.0  0.43330  0.00393  0.39798  1.0000
  H   H2075     1.0  0.42034  0.21458  0.00599  1.0000
  H   H2076     1.0  0.56544  0.48657  0.43207  1.0000
  C   C2599     1.0  0.55996  0.32521  0.10277  1.0000
  H   H2077     1.0  0.57139  0.12462  0.16485  1.0000
  S   S345      1.0  0.57915  0.06258  0.45940  1.0000
  H   H2078     1.0  0.57341  0.47611  0.30040  1.0000
  C   C2600     1.0  0.42434  0.19017  0.00030  1.0000
  H   H2079     1.0  0.38604  0.02543  0.43186  1.0000
  S   S346      1.0  0.43229  0.13147  0.45993  1.0000
  C   C2601     1.0  0.43093  0.27330  0.46594  1.0000
  S   S347      1.0  0.40561  0.27356  0.98184  1.0000
  C   C2602     1.0  0.56371  0.46922  0.46450  1.0000
  H   H2080     1.0  0.41923  0.19116  0.98499  1.0000
  H   H2081     1.0  0.43110  0.39802  0.41350  1.0000
  H   H2082     1.0  0.50133  0.47950  0.36999  1.0000
  H   H2083     1.0  0.57494  0.44699  0.37628  1.0000
  H   H2084     1.0  0.40425  0.10793  0.44875  1.0000
  C   C2603     1.0  0.57887  0.47277  0.05930  1.0000
  H   H2085     1.0  0.40274  0.45592  0.45943  1.0000
  C   C2604     1.0  0.45469  0.17602  0.45244  1.0000
  C   C2605     1.0  0.57183  0.44217  0.36159  1.0000
  H   H2086     1.0  0.56266  0.09361  0.23348  1.0000
  H   H2087     1.0  0.57197  0.17381  0.06248  1.0000
  H   H2088     1.0  0.50959  0.35202  0.06349  1.0000
  H   H2089     1.0  0.53318  0.33784  0.05739  1.0000
  C   C2606     1.0  0.38457  0.26425  0.25812  1.0000
  H   H2090     1.0  0.55697  0.31128  0.10933  1.0000
  C   C2607     1.0  0.45460  0.20640  0.44729  1.0000
  C   C2608     1.0  0.48925  0.47243  0.02435  1.0000
  H   H2091     1.0  0.47585  0.35351  0.97896  1.0000
  C   C2609     1.0  0.40404  0.25116  0.23679  1.0000
  P   P87       1.0  0.56139  0.09971  0.99681  1.0000
  H   H2092     1.0  0.40122  0.30420  0.46250  1.0000
  H   H2093     1.0  0.53820  0.43023  0.04100  1.0000
  H   H2094     1.0  0.54021  0.35772  0.09819  1.0000
  H   H2095     1.0  0.44283  0.18782  0.05505  1.0000
  H   H2096     1.0  0.53249  0.08654  0.97759  1.0000
  H   H2097     1.0  0.57773  0.42342  0.00008  1.0000
  C   C2610     1.0  0.51206  0.38561  0.97226  1.0000
  H   H2098     1.0  0.50470  0.02315  0.41353  1.0000
  C   C2611     1.0  0.52499  0.40971  0.00040  1.0000
  H   H2099     1.0  0.55504  0.34737  0.02036  1.0000
  C   C2612     1.0  0.41099  0.03725  0.37365  1.0000
  H   H2100     1.0  0.52175  0.10100  0.43433  1.0000
  H   H2101     1.0  0.38431  0.23204  0.40418  1.0000
  H   H2102     1.0  0.42832  0.37867  0.38626  1.0000
  C   C2613     1.0  0.56636  0.03361  0.37422  1.0000
  C   C2614     1.0  0.45665  0.48064  0.40100  1.0000
  Fe  Fe175     1.0  0.45027  0.08778  0.97373  1.0000
  H   H2103     1.0  0.38426  0.39448  0.37191  1.0000
  C   C2615     1.0  0.57989  0.09798  0.03131  1.0000
  C   C2616     1.0  0.51091  0.47705  0.04644  1.0000
  H   H2104     1.0  0.55512  0.42648  0.97276  1.0000
  H   H2105     1.0  0.49553  0.47898  0.42820  1.0000
  H   H2106     1.0  0.39534  0.44611  0.42366  1.0000
  C   C2617     1.0  0.40895  0.40691  0.40860  1.0000
  H   H2107     1.0  0.41814  0.05068  0.37007  1.0000
  Fe  Fe176     1.0  0.57328  0.47288  0.00119  1.0000
  C   C2618     1.0  0.41044  0.28474  0.44809  1.0000
  C   C2619     1.0  0.57435  0.08784  0.98203  1.0000
  H   H2108     1.0  0.58164  0.48916  0.08345  1.0000
  C   C2620     1.0  0.58289  0.17450  0.04897  1.0000
  H   H2109     1.0  0.55115  0.46150  0.46474  1.0000
  C   C2621     1.0  0.40604  0.44411  0.46573  1.0000
  C   C2622     1.0  0.49896  0.29825  0.46286  1.0000
  C   C2623     1.0  0.57683  0.33476  0.09297  1.0000
  H   H2110     1.0  0.57097  0.41489  0.04252  1.0000
  H   H2111     1.0  0.43941  0.26486  0.46640  1.0000
  C   C2624     1.0  0.57522  0.40610  0.03272  1.0000
  C   C2625     1.0  0.57079  0.00510  0.37436  1.0000
  P   P88       1.0  0.45194  0.22438  0.46025  1.0000
  H   H2112     1.0  0.48571  0.21787  0.45943  1.0000
  C   C2626     1.0  0.57876  0.45637  0.05527  1.0000
  C   C2627     1.0  0.57861  0.02161  0.42904  1.0000
  C   C2628     1.0  0.58060  0.35273  0.08477  1.0000
  H   H2113     1.0  0.52818  0.04419  0.46360  1.0000
  S   S348      1.0  0.57494  0.45116  0.02924  1.0000
  C   C2629     1.0  0.57543  0.00946  0.35015  1.0000
  C   C2630     1.0  0.57902  0.41096  0.00857  1.0000
  H   H2114     1.0  0.57896  0.02919  0.31925  1.0000
  C   C2631     1.0  0.45364  0.19039  0.46170  1.0000
  C   C2632     1.0  0.43784  0.99954  0.46134  1.0000
  H   H2115     1.0  0.57887  0.00007  0.34081  1.0000
  C   C2633     1.0  0.58069  0.17337  0.02688  1.0000
  C   C2634     1.0  0.57929  0.01462  0.45179  1.0000
  C   C2635     1.0  0.41734  0.22525  0.46860  1.0000
  H   H2116     1.0  0.46016  0.99337  0.30444  1.0000
  S   S349      1.0  0.44150  0.10892  0.95269  1.0000
  S   S350      1.0  0.43754  0.28737  0.91751  1.0000
  S   S351      1.0  0.41226  0.16233  0.48947  1.0000
  C   C2636     1.0  0.57671  0.24284  0.63535  1.0000
  Fe  Fe177     1.0  0.39934  0.14879  0.52634  1.0000
  S   S352      1.0  0.40313  0.15622  0.56032  1.0000
  Fe  Fe178     1.0  0.41885  0.26847  0.94875  1.0000
  H   H2117     1.0  0.43979  0.49133  0.95659  1.0000
  S   S353      1.0  0.39771  0.15980  0.77615  1.0000
  S   S354      1.0  0.41531  0.10031  0.86168  1.0000
  C   C2637     1.0  0.50997  0.44806  0.54764  1.0000
  H   H2118     1.0  0.49480  0.22725  0.52436  1.0000
  C   C2638     1.0  0.47159  0.23195  0.51635  1.0000
  S   S355      1.0  0.56285  0.02992  0.87206  1.0000
  S   S356      1.0  0.40348  0.14484  0.84101  1.0000
  H   H2119     1.0  0.58106  0.43261  0.82282  1.0000
  S   S357      1.0  0.55818  0.06943  0.50756  1.0000
  H   H2120     1.0  0.40418  0.18862  0.52452  1.0000
  H   H2121     1.0  0.46614  0.20114  0.92228  1.0000
  S   S358      1.0  0.56250  0.01953  0.50872  1.0000
  S   S359      1.0  0.56904  0.07964  0.85077  1.0000
  C   C2639     1.0  0.47421  0.47272  0.53949  1.0000
  H   H2122     1.0  0.39049  0.22390  0.47362  1.0000
  S   S360      1.0  0.56557  0.10459  0.90051  1.0000
  S   S361      1.0  0.39823  0.12215  0.52027  1.0000
  H   H2123     1.0  0.45045  0.14018  0.96684  1.0000
  P   P89       1.0  0.46848  0.99791  0.88947  1.0000
  Fe  Fe179     1.0  0.47198  0.38767  0.87573  1.0000
  S   S362      1.0  0.46837  0.39629  0.83969  1.0000
  S   S363      1.0  0.45246  0.36889  0.90623  1.0000
  Fe  Fe180     1.0  0.50696  0.41291  0.86610  1.0000
  S   S364      1.0  0.50653  0.42350  0.82922  1.0000
  S   S365      1.0  0.53035  0.42154  0.88012  1.0000
  Fe  Fe181     1.0  0.47926  0.42323  0.84379  1.0000
  S   S366      1.0  0.47071  0.44710  0.83050  1.0000
  Fe  Fe182     1.0  0.49582  0.39597  0.82762  1.0000
  S   S367      1.0  0.50723  0.38365  0.79938  1.0000
  S   S368      1.0  0.48062  0.41474  0.88069  1.0000
  S   S369      1.0  0.49850  0.38526  0.86361  1.0000
  Fe  Fe183     1.0  0.53723  0.35780  0.65369  1.0000
  S   S370      1.0  0.51516  0.36838  0.64686  1.0000
  S   S371      1.0  0.53700  0.32917  0.66370  1.0000
  Fe  Fe184     1.0  0.56252  0.39455  0.64198  1.0000
  S   S372      1.0  0.54216  0.40748  0.63348  1.0000
  Fe  Fe185     1.0  0.52518  0.38860  0.66588  1.0000
  S   S373      1.0  0.50767  0.39807  0.69173  1.0000
  Fe  Fe186     1.0  0.53381  0.38621  0.61525  1.0000
  S   S374      1.0  0.53068  0.38999  0.57776  1.0000
  S   S375      1.0  0.54588  0.37666  0.67506  1.0000
  S   S376      1.0  0.55556  0.37468  0.62130  1.0000
  Fe  Fe187     1.0  0.47410  0.21217  0.61456  1.0000
  S   S377      1.0  0.48603  0.19294  0.63262  1.0000
  S   S378      1.0  0.46415  0.21014  0.58166  1.0000
  Fe  Fe188     1.0  0.48618  0.23894  0.64268  1.0000
  S   S379      1.0  0.49896  0.22153  0.66282  1.0000
  S   S380      1.0  0.48343  0.26591  0.64598  1.0000
  Fe  Fe189     1.0  0.50864  0.21516  0.62895  1.0000
  S   S381      1.0  0.53537  0.21365  0.61319  1.0000
  Fe  Fe190     1.0  0.47540  0.20028  0.66549  1.0000
  S   S382      1.0  0.46625  0.17829  0.69789  1.0000
  S   S383      1.0  0.49761  0.23416  0.60856  1.0000
  S   S384      1.0  0.46175  0.21804  0.64771  1.0000
  C   C2640     1.0  0.39376  0.30055  0.92284  1.0000
  C   C2641     1.0  0.45530  0.04356  0.89016  1.0000
  S   S385      1.0  0.38708  0.11205  0.81895  1.0000
  H   H2124     1.0  0.52406  0.01389  0.81075  1.0000
  Fe  Fe191     1.0  0.46601  0.37990  0.49657  1.0000
  S   S386      1.0  0.46461  0.37527  0.53536  1.0000
  C   C2642     1.0  0.51201  0.38524  0.56673  1.0000
  C   C2643     1.0  0.49554  0.38136  0.58068  1.0000
  C   C2644     1.0  0.48119  0.37849  0.57082  1.0000
  C   C2645     1.0  0.48310  0.37931  0.54698  1.0000
  C   C2646     1.0  0.49957  0.38304  0.53307  1.0000
  C   C2647     1.0  0.51390  0.38598  0.54291  1.0000
  H   H2125     1.0  0.49385  0.38075  0.59902  1.0000
  H   H2126     1.0  0.46854  0.37566  0.58179  1.0000
  H   H2127     1.0  0.50126  0.38354  0.51476  1.0000
  H   H2128     1.0  0.52657  0.38872  0.53206  1.0000
  C   C2648     1.0  0.52216  0.31182  0.65822  1.0000
  C   C2649     1.0  0.52656  0.29615  0.65714  1.0000
  C   C2650     1.0  0.51499  0.28201  0.65312  1.0000
  C   C2651     1.0  0.49871  0.28327  0.65078  1.0000
  C   C2652     1.0  0.49418  0.29877  0.65256  1.0000
  C   C2653     1.0  0.50590  0.31306  0.65584  1.0000
  H   H2129     1.0  0.53905  0.29501  0.65917  1.0000
  H   H2130     1.0  0.51861  0.27013  0.65201  1.0000
  H   H2131     1.0  0.48144  0.29968  0.65168  1.0000
  H   H2132     1.0  0.50223  0.32492  0.65699  1.0000
  C   C2654     1.0  0.50777  0.38902  0.76938  1.0000
  C   C2655     1.0  0.51942  0.38370  0.75405  1.0000
  C   C2656     1.0  0.51958  0.38649  0.73030  1.0000
  C   C2657     1.0  0.50803  0.39461  0.72156  1.0000
  C   C2658     1.0  0.49656  0.40025  0.73682  1.0000
  C   C2659     1.0  0.49646  0.39754  0.76062  1.0000
  H   H2133     1.0  0.52845  0.37747  0.76059  1.0000
  H   H2134     1.0  0.52868  0.38244  0.71872  1.0000
  H   H2135     1.0  0.48768  0.40671  0.73022  1.0000
  H   H2136     1.0  0.48749  0.40182  0.77218  1.0000
  C   C2660     1.0  0.52959  0.45417  0.93459  1.0000
  C   C2661     1.0  0.54495  0.45168  0.92339  1.0000
  C   C2662     1.0  0.54496  0.44132  0.90709  1.0000
  C   C2663     1.0  0.52967  0.43357  0.90169  1.0000
  C   C2664     1.0  0.51426  0.43560  0.91350  1.0000
  C   C2665     1.0  0.51423  0.44573  0.93005  1.0000
  H   H2137     1.0  0.55686  0.45809  0.92681  1.0000
  H   H2138     1.0  0.55691  0.43965  0.89821  1.0000
  H   H2139     1.0  0.50238  0.42956  0.90972  1.0000
  H   H2140     1.0  0.50231  0.44745  0.93885  1.0000
  C   C2666     1.0  0.54625  0.09066  0.91753  1.0000
  C   C2667     1.0  0.54342  0.07277  0.92024  1.0000
  C   C2668     1.0  0.52781  0.06169  0.93336  1.0000
  C   C2669     1.0  0.51469  0.06846  0.94299  1.0000
  C   C2670     1.0  0.51757  0.08636  0.94054  1.0000
  C   C2671     1.0  0.53347  0.09745  0.92812  1.0000
  H   H2141     1.0  0.55323  0.06743  0.91218  1.0000
  C   C2672     1.0  0.47389  0.46778  0.58036  1.0000
  H   H2142     1.0  0.53572  0.11128  0.92625  1.0000
  C   C2673     1.0  0.49212  0.22253  0.49102  1.0000
  C   C2674     1.0  0.38952  0.18621  0.82342  1.0000
  C   C2675     1.0  0.55588  0.19291  0.66472  1.0000
  C   C2676     1.0  0.54439  0.19920  0.65299  1.0000
  C   C2677     1.0  0.54829  0.20373  0.62880  1.0000
  C   C2678     1.0  0.56345  0.20134  0.61654  1.0000
  C   C2679     1.0  0.57367  0.42618  0.47597  1.0000
  H   H2143     1.0  0.55289  0.18966  0.68343  1.0000
  H   H2144     1.0  0.53270  0.20088  0.66266  1.0000
  H   H2145     1.0  0.56641  0.20453  0.59787  1.0000
  C   C2680     1.0  0.39441  0.03919  0.90396  1.0000
  H   H2146     1.0  0.44229  0.08299  0.92490  1.0000
  C   C2681     1.0  0.41983  0.45590  0.86460  1.0000
  C   C2682     1.0  0.42534  0.44179  0.87481  1.0000
  C   C2683     1.0  0.44089  0.43889  0.86454  1.0000
  C   C2684     1.0  0.45100  0.45006  0.84389  1.0000
  C   C2685     1.0  0.44546  0.46412  0.83366  1.0000
  C   C2686     1.0  0.42992  0.46702  0.84394  1.0000
  H   H2147     1.0  0.41762  0.43314  0.89083  1.0000
  H   H2148     1.0  0.44513  0.42811  0.87262  1.0000
  H   H2149     1.0  0.45318  0.47272  0.81762  1.0000
  C   C2687     1.0  0.46458  0.28840  0.48718  1.0000
  H   H2150     1.0  0.38913  0.29096  0.93914  1.0000
  H   H2151     1.0  0.45231  0.45310  0.47137  1.0000
  C   C2688     1.0  0.40189  0.41831  0.49539  1.0000
  H   H2152     1.0  0.54798  0.33257  0.61237  1.0000
  C   C2689     1.0  0.39871  0.12088  0.74360  1.0000
  H   H2153     1.0  0.48581  0.29024  0.78151  1.0000
  H   H2154     1.0  0.45644  0.31495  0.63755  1.0000
  H   H2155     1.0  0.53022  0.02491  0.49979  1.0000
  P   P90       1.0  0.44260  0.28332  0.50320  1.0000
  H   H2156     1.0  0.52491  0.44215  0.73675  1.0000
  C   C2690     1.0  0.55692  0.01471  0.85534  1.0000
  C   C2691     1.0  0.56560  0.01664  0.83250  1.0000
  S   S387      1.0  0.38346  0.13296  0.47470  1.0000
  C   C2692     1.0  0.39984  0.33435  0.83467  1.0000
  C   C2693     1.0  0.56741  0.39853  0.93004  1.0000
  C   C2694     1.0  0.42188  0.10234  0.88751  1.0000
  C   C2695     1.0  0.41927  0.11574  0.89815  1.0000
  C   C2696     1.0  0.42548  0.11767  0.91798  1.0000
  C   C2697     1.0  0.43388  0.10594  0.92776  1.0000
  C   C2698     1.0  0.43608  0.09225  0.91744  1.0000
  C   C2699     1.0  0.43030  0.09060  0.89723  1.0000
  H   H2157     1.0  0.41281  0.12487  0.89077  1.0000
  H   H2158     1.0  0.42378  0.12833  0.92570  1.0000
  C   C2700     1.0  0.41740  0.16552  0.75546  1.0000
  C   C2701     1.0  0.42974  0.15630  0.75732  1.0000
  C   C2702     1.0  0.44466  0.16046  0.73957  1.0000
  C   C2703     1.0  0.44751  0.17400  0.71999  1.0000
  C   C2704     1.0  0.43532  0.18343  0.71835  1.0000
  C   C2705     1.0  0.42032  0.17916  0.73598  1.0000
  H   H2159     1.0  0.42764  0.14575  0.77218  1.0000
  H   H2160     1.0  0.45404  0.15311  0.74097  1.0000
  H   H2161     1.0  0.43740  0.19390  0.70341  1.0000
  H   H2162     1.0  0.41087  0.18639  0.73447  1.0000
  C   C2706     1.0  0.54188  0.31940  0.72588  1.0000
  C   C2707     1.0  0.42065  0.17061  0.56613  1.0000
  C   C2708     1.0  0.43562  0.17897  0.54921  1.0000
  C   C2709     1.0  0.44896  0.19067  0.55442  1.0000
  C   C2710     1.0  0.44769  0.19395  0.57669  1.0000
  C   C2711     1.0  0.43281  0.18539  0.59371  1.0000
  C   C2712     1.0  0.41938  0.17384  0.58842  1.0000
  H   H2163     1.0  0.43697  0.17630  0.53218  1.0000
  H   H2164     1.0  0.46044  0.19702  0.54116  1.0000
  H   H2165     1.0  0.43148  0.18798  0.61078  1.0000
  H   H2166     1.0  0.40788  0.16745  0.60166  1.0000
  C   C2713     1.0  0.44225  0.30997  0.91536  1.0000
  C   C2714     1.0  0.43426  0.31703  0.93237  1.0000
  C   C2715     1.0  0.43765  0.33512  0.92945  1.0000
  C   C2716     1.0  0.44912  0.34627  0.90961  1.0000
  C   C2717     1.0  0.45743  0.33922  0.89285  1.0000
  C   C2718     1.0  0.45404  0.32112  0.89581  1.0000
  C   C2719     1.0  0.46192  0.36027  0.81273  1.0000
  H   H2167     1.0  0.47708  0.37002  0.93961  1.0000
  H   H2168     1.0  0.46636  0.34770  0.87756  1.0000
  H   H2169     1.0  0.46051  0.31571  0.88285  1.0000
  C   C2720     1.0  0.39970  0.21276  0.84548  1.0000
  H   H2170     1.0  0.48289  0.34852  0.81031  1.0000
  H   H2171     1.0  0.57171  0.05847  0.94811  1.0000
  C   C2721     1.0  0.41876  0.29480  0.48077  1.0000
  H   H2172     1.0  0.45296  0.34398  0.51180  1.0000
  C   C2722     1.0  0.44973  0.46421  0.50143  1.0000
  H   H2173     1.0  0.41775  0.30331  0.49250  1.0000
  P   P91       1.0  0.45764  0.44843  0.51855  1.0000
  C   C2723     1.0  0.44039  0.42888  0.52861  1.0000
  C   C2724     1.0  0.42450  0.42967  0.54085  1.0000
  C   C2725     1.0  0.41114  0.41464  0.54970  1.0000
  C   C2726     1.0  0.41354  0.39870  0.54634  1.0000
  C   C2727     1.0  0.42921  0.39784  0.53383  1.0000
  C   C2728     1.0  0.44253  0.41288  0.52476  1.0000
  C   C2729     1.0  0.46344  0.45606  0.54299  1.0000
  H   H2174     1.0  0.48541  0.47580  0.86101  1.0000
  C   C2730     1.0  0.55850  0.41831  0.96135  1.0000
  C   C2731     1.0  0.51904  0.46177  0.52888  1.0000
  C   C2732     1.0  0.57727  0.15898  0.60946  1.0000
  H   H2175     1.0  0.46744  0.23519  0.53270  1.0000
  H   H2176     1.0  0.45055  0.44367  0.95408  1.0000
  C   C2733     1.0  0.38896  0.10424  0.74484  1.0000
  H   H2177     1.0  0.42239  0.44193  0.54352  1.0000
  H   H2178     1.0  0.39884  0.41540  0.55882  1.0000
  H   H2179     1.0  0.40316  0.38706  0.55305  1.0000
  H   H2180     1.0  0.43106  0.38553  0.53095  1.0000
  H   H2181     1.0  0.45431  0.41180  0.51474  1.0000
  C   C2734     1.0  0.54743  0.99552  0.93052  1.0000
  H   H2182     1.0  0.55018  0.13636  0.58262  1.0000
  H   H2183     1.0  0.52992  0.47021  0.88563  1.0000
  C   C2735     1.0  0.53501  0.43710  0.72870  1.0000
  H   H2184     1.0  0.45041  0.43205  0.56837  1.0000
  H   H2185     1.0  0.41877  0.06453  0.85230  1.0000
  C   C2736     1.0  0.56340  0.14650  0.60717  1.0000
  H   H2186     1.0  0.42900  0.02665  0.96634  1.0000
  P   P92       1.0  0.54840  0.13223  0.63253  1.0000
  C   C2737     1.0  0.54005  0.11203  0.62499  1.0000
  C   C2738     1.0  0.55929  0.12820  0.65565  1.0000
  C   C2739     1.0  0.51552  0.99995  0.49759  1.0000
  H   H2187     1.0  0.48984  0.33132  0.48381  1.0000
  C   C2740     1.0  0.41392  0.05335  0.86676  1.0000
  C   C2741     1.0  0.40466  0.13295  0.72234  1.0000
  C   C2742     1.0  0.56120  0.13974  0.67031  1.0000
  C   C2743     1.0  0.55104  0.10513  0.61089  1.0000
  C   C2744     1.0  0.54473  0.08992  0.60410  1.0000
  C   C2745     1.0  0.52740  0.08133  0.61153  1.0000
  C   C2746     1.0  0.51637  0.08800  0.62573  1.0000
  C   C2747     1.0  0.52264  0.10332  0.63242  1.0000
  C   C2748     1.0  0.53178  0.14231  0.64220  1.0000
  C   C2749     1.0  0.52975  0.15709  0.62801  1.0000
  C   C2750     1.0  0.51768  0.16552  0.63632  1.0000
  C   C2751     1.0  0.50768  0.15942  0.65889  1.0000
  C   C2752     1.0  0.50945  0.14460  0.67302  1.0000
  C   C2753     1.0  0.52143  0.13604  0.66472  1.0000
  Fe  Fe192     1.0  0.40169  0.22927  0.96261  1.0000
  S   S388      1.0  0.49471  0.05420  0.95719  1.0000
  C   C2754     1.0  0.39359  0.13685  0.96077  1.0000
  C   C2755     1.0  0.38523  0.09964  0.72476  1.0000
  H   H2188     1.0  0.56330  0.36845  0.71598  1.0000
  H   H2189     1.0  0.47863  0.48115  0.52231  1.0000
  C   C2756     1.0  0.39981  0.17858  0.92582  1.0000
  H   H2190     1.0  0.51364  0.34692  0.81995  1.0000
  C   C2757     1.0  0.56151  0.26299  0.64817  1.0000
  H   H2191     1.0  0.55665  0.15132  0.66757  1.0000
  H   H2192     1.0  0.56451  0.11164  0.60489  1.0000
  H   H2193     1.0  0.55332  0.08490  0.59285  1.0000
  H   H2194     1.0  0.52253  0.06956  0.60615  1.0000
  H   H2195     1.0  0.50293  0.08134  0.63141  1.0000
  H   H2196     1.0  0.51387  0.10836  0.64317  1.0000
  H   H2197     1.0  0.53771  0.16245  0.61073  1.0000
  H   H2198     1.0  0.51646  0.17712  0.62542  1.0000
  H   H2199     1.0  0.49870  0.16632  0.66551  1.0000
  H   H2200     1.0  0.50178  0.13997  0.69057  1.0000
  H   H2201     1.0  0.52295  0.12478  0.67604  1.0000
  C   C2758     1.0  0.54743  0.42557  0.69746  1.0000
  H   H2202     1.0  0.53381  0.14437  0.96654  1.0000
  C   C2759     1.0  0.52999  0.01146  0.50056  1.0000
  C   C2760     1.0  0.44032  0.30011  0.51864  1.0000
  C   C2761     1.0  0.38984  0.18179  0.70045  1.0000
  H   H2203     1.0  0.53639  0.99837  0.88330  1.0000
  S   S389      1.0  0.38853  0.48859  0.48834  1.0000
  H   H2204     1.0  0.40083  0.33381  0.77812  1.0000
  H   H2205     1.0  0.55389  0.15372  0.92786  1.0000
  S   S390      1.0  0.48114  0.36767  0.47295  1.0000
  P   P93       1.0  0.40835  0.14449  0.67491  1.0000
  C   C2762     1.0  0.43068  0.14662  0.66301  1.0000
  C   C2763     1.0  0.40590  0.16515  0.67993  1.0000
  C   C2764     1.0  0.39111  0.11172  0.70347  1.0000
  C   C2765     1.0  0.44638  0.16566  0.96637  1.0000
  H   H2206     1.0  0.50847  0.46116  0.86336  1.0000
  C   C2766     1.0  0.41508  0.19660  0.67018  1.0000
  C   C2767     1.0  0.41743  0.18066  0.66663  1.0000
  C   C2768     1.0  0.44173  0.14367  0.67756  1.0000
  C   C2769     1.0  0.45893  0.14518  0.66814  1.0000
  C   C2770     1.0  0.46526  0.14977  0.64418  1.0000
  C   C2771     1.0  0.45447  0.15314  0.62959  1.0000
  C   C2772     1.0  0.43727  0.15161  0.63894  1.0000
  H   H2207     1.0  0.57178  0.15450  0.54823  1.0000
  Fe  Fe193     1.0  0.40915  0.13550  0.48289  1.0000
  S   S391      1.0  0.57638  0.46971  0.96459  1.0000
  H   H2208     1.0  0.42404  0.20852  0.65995  1.0000
  H   H2209     1.0  0.43730  0.14053  0.69617  1.0000
  H   H2210     1.0  0.46743  0.14327  0.67953  1.0000
  H   H2211     1.0  0.47863  0.15116  0.63691  1.0000
  H   H2212     1.0  0.45947  0.15721  0.61100  1.0000
  H   H2213     1.0  0.42921  0.15444  0.62729  1.0000
  H   H2214     1.0  0.42573  0.47780  0.83581  1.0000
  Fe  Fe194     1.0  0.39227  0.48314  0.86336  1.0000
  H   H2215     1.0  0.48942  0.12314  0.93574  1.0000
  C   C2773     1.0  0.46596  0.15864  0.93640  1.0000
  C   C2774     1.0  0.57319  0.15593  0.56531  1.0000
  C   C2775     1.0  0.38644  0.07153  0.93835  1.0000
  C   C2776     1.0  0.42659  0.23041  0.55593  1.0000
  H   H2216     1.0  0.41976  0.34322  0.80309  1.0000
  S   S392      1.0  0.40058  0.45956  0.87851  1.0000
  H   H2217     1.0  0.41013  0.40830  0.86613  1.0000
  H   H2218     1.0  0.50259  0.27873  0.48937  1.0000
  C   C2777     1.0  0.51228  0.32097  0.78141  1.0000
  H   H2219     1.0  0.39696  0.03508  0.96198  1.0000
  C   C2778     1.0  0.46435  0.01700  0.89818  1.0000
  Fe  Fe195     1.0  0.55316  0.47976  0.96424  1.0000
  H   H2220     1.0  0.50068  0.39631  0.92097  1.0000
  C   C2779     1.0  0.40086  0.12851  0.70211  1.0000
  P   P94       1.0  0.57790  0.42473  0.74404  1.0000
  C   C2780     1.0  0.42035  0.03880  0.86705  1.0000
  H   H2221     1.0  0.39321  0.09597  0.94787  1.0000
  C   C2781     1.0  0.46529  0.01944  0.92040  1.0000
  H   H2222     1.0  0.40154  0.12455  0.75915  1.0000
  H   H2223     1.0  0.40977  0.11958  0.64569  1.0000
  H   H2224     1.0  0.51649  0.32025  0.84471  1.0000
  H   H2225     1.0  0.50402  0.21883  0.48751  1.0000
  C   C2782     1.0  0.49442  0.02069  0.85302  1.0000
  C   C2783     1.0  0.50798  0.02446  0.83362  1.0000
  C   C2784     1.0  0.50873  0.44069  0.48202  1.0000
  H   H2226     1.0  0.47747  0.42402  0.53114  1.0000
  H   H2227     1.0  0.51555  0.29496  0.78823  1.0000
  C   C2785     1.0  0.40643  0.32548  0.88073  1.0000
  C   C2786     1.0  0.56948  0.13671  0.68832  1.0000
  H   H2228     1.0  0.41621  0.25067  0.50832  1.0000
  H   H2229     1.0  0.46622  0.32120  0.83857  1.0000
  H   H2230     1.0  0.51138  0.34764  0.77984  1.0000
  H   H2231     1.0  0.52440  0.43408  0.69916  1.0000
  H   H2232     1.0  0.53196  0.41839  0.50345  1.0000
  H   H2233     1.0  0.45144  0.05299  0.87857  1.0000
  Fe  Fe196     1.0  0.56828  0.08369  0.47008  1.0000
  C   C2787     1.0  0.39581  0.04826  0.95900  1.0000
  H   H2234     1.0  0.46905  0.01033  0.93254  1.0000
  C   C2788     1.0  0.41187  0.36231  0.85778  1.0000
  H   H2235     1.0  0.49072  0.03131  0.85912  1.0000
  H   H2236     1.0  0.51444  0.03777  0.82490  1.0000
  C   C2789     1.0  0.39707  0.43340  0.48719  1.0000
  S   S393      1.0  0.52917  0.46867  0.95299  1.0000
  C   C2790     1.0  0.44832  0.46313  0.47890  1.0000
  H   H2237     1.0  0.46933  0.37223  0.80059  1.0000
  C   C2791     1.0  0.55568  0.11709  0.82834  1.0000
  C   C2792     1.0  0.55387  0.12434  0.80642  1.0000
  C   C2793     1.0  0.53766  0.12188  0.80166  1.0000
  C   C2794     1.0  0.52325  0.11194  0.81874  1.0000
  C   C2795     1.0  0.52505  0.10429  0.84065  1.0000
  C   C2796     1.0  0.54136  0.10706  0.84537  1.0000
  P   P95       1.0  0.50691  0.09022  0.86241  1.0000
  C   C2797     1.0  0.50197  0.10026  0.88634  1.0000
  C   C2798     1.0  0.48842  0.08557  0.85019  1.0000
  C   C2799     1.0  0.47647  0.09552  0.85193  1.0000
  C   C2800     1.0  0.46208  0.09172  0.84272  1.0000
  C   C2801     1.0  0.45970  0.07825  0.83125  1.0000
  C   C2802     1.0  0.47165  0.06847  0.82910  1.0000
  C   C2803     1.0  0.48596  0.07209  0.83853  1.0000
  C   C2804     1.0  0.48615  0.09369  0.90231  1.0000
  C   C2805     1.0  0.48169  0.10198  0.91992  1.0000
  C   C2806     1.0  0.49295  0.11687  0.92190  1.0000
  C   C2807     1.0  0.50877  0.12348  0.90624  1.0000
  C   C2808     1.0  0.51328  0.11525  0.88851  1.0000
  C   C2809     1.0  0.51206  0.06990  0.87159  1.0000
  C   C2810     1.0  0.52424  0.06478  0.85672  1.0000
  C   C2811     1.0  0.52851  0.04927  0.86383  1.0000
  C   C2812     1.0  0.52041  0.03851  0.88555  1.0000
  C   C2813     1.0  0.50778  0.04311  0.90006  1.0000
  C   C2814     1.0  0.50370  0.05880  0.89321  1.0000
  H   H2238     1.0  0.39472  0.28169  0.90224  1.0000
  H   H2239     1.0  0.53632  0.12746  0.78460  1.0000
  H   H2240     1.0  0.51085  0.11003  0.81461  1.0000
  H   H2241     1.0  0.54307  0.10121  0.86214  1.0000
  H   H2242     1.0  0.47819  0.10623  0.86037  1.0000
  H   H2243     1.0  0.45277  0.09931  0.84440  1.0000
  H   H2244     1.0  0.44864  0.07553  0.82387  1.0000
  H   H2245     1.0  0.46990  0.05813  0.81999  1.0000
  H   H2246     1.0  0.49513  0.06445  0.83655  1.0000
  H   H2247     1.0  0.47711  0.08232  0.90094  1.0000
  H   H2248     1.0  0.46948  0.09686  0.93211  1.0000
  H   H2249     1.0  0.48752  0.49151  0.55541  1.0000
  H   H2250     1.0  0.51765  0.13487  0.90796  1.0000
  H   H2251     1.0  0.52561  0.12070  0.87670  1.0000
  H   H2252     1.0  0.53073  0.07283  0.83974  1.0000
  H   H2253     1.0  0.53833  0.04569  0.85260  1.0000
  H   H2254     1.0  0.52422  0.02679  0.89115  1.0000
  H   H2255     1.0  0.50168  0.03495  0.91712  1.0000
  H   H2256     1.0  0.49436  0.06232  0.90515  1.0000
  H   H2257     1.0  0.51765  0.29440  0.82866  1.0000
  C   C2815     1.0  0.56897  0.13601  0.93644  1.0000
  H   H2258     1.0  0.38792  0.39138  0.85051  1.0000
  C   C2816     1.0  0.40604  0.19012  0.82703  1.0000
  C   C2817     1.0  0.41123  0.20322  0.83846  1.0000
  C   C2818     1.0  0.48202  0.47718  0.95786  1.0000
  P   P96       1.0  0.43293  0.20837  0.84214  1.0000
  C   C2819     1.0  0.43626  0.22463  0.85900  1.0000
  C   C2820     1.0  0.43707  0.18852  0.85629  1.0000
  C   C2821     1.0  0.43617  0.18450  0.88022  1.0000
  C   C2822     1.0  0.43961  0.16922  0.89065  1.0000
  C   C2823     1.0  0.44429  0.15795  0.87730  1.0000
  C   C2824     1.0  0.44505  0.16169  0.85360  1.0000
  C   C2825     1.0  0.44145  0.17687  0.84313  1.0000
  C   C2826     1.0  0.44996  0.23957  0.85093  1.0000
  C   C2827     1.0  0.45239  0.25198  0.86418  1.0000
  C   C2828     1.0  0.44119  0.24958  0.88553  1.0000
  C   C2829     1.0  0.42750  0.23483  0.89361  1.0000
  C   C2830     1.0  0.42502  0.22246  0.88041  1.0000
  C   C2831     1.0  0.44738  0.21577  0.81386  1.0000
  C   C2832     1.0  0.44146  0.22081  0.79395  1.0000
  C   C2833     1.0  0.45247  0.22502  0.77203  1.0000
  C   C2834     1.0  0.46949  0.22446  0.76984  1.0000
  C   C2835     1.0  0.47559  0.21992  0.78959  1.0000
  C   C2836     1.0  0.46459  0.21557  0.81153  1.0000
  H   H2259     1.0  0.53619  0.30569  0.72848  1.0000
  C   C2837     1.0  0.54809  0.43473  0.73976  1.0000
  C   C2838     1.0  0.43502  0.48699  0.47593  1.0000
  H   H2260     1.0  0.41477  0.18299  0.82058  1.0000
  H   H2261     1.0  0.40337  0.22342  0.85344  1.0000
  H   H2262     1.0  0.43274  0.19293  0.89108  1.0000
  H   H2263     1.0  0.43850  0.16603  0.90917  1.0000
  H   H2264     1.0  0.44716  0.14623  0.88533  1.0000
  H   H2265     1.0  0.44822  0.15268  0.84338  1.0000
  H   H2266     1.0  0.44208  0.17942  0.82473  1.0000
  H   H2267     1.0  0.45880  0.24176  0.83446  1.0000
  H   H2268     1.0  0.46296  0.26348  0.85799  1.0000
  H   H2269     1.0  0.44309  0.25914  0.89587  1.0000
  H   H2270     1.0  0.41883  0.23296  0.91022  1.0000
  H   H2271     1.0  0.41430  0.21115  0.88688  1.0000
  H   H2272     1.0  0.42828  0.22111  0.79517  1.0000
  H   H2273     1.0  0.44770  0.22832  0.75668  1.0000
  H   H2274     1.0  0.47790  0.22733  0.75281  1.0000
  H   H2275     1.0  0.48876  0.21938  0.78785  1.0000
  H   H2276     1.0  0.46939  0.21166  0.82666  1.0000
  H   H2277     1.0  0.52898  0.39620  0.48084  1.0000
  C   C2839     1.0  0.48620  0.00339  0.86452  1.0000
  H   H2278     1.0  0.54513  0.37869  0.94977  1.0000
  H   H2279     1.0  0.44948  0.47601  0.88037  1.0000
  H   H2280     1.0  0.43925  0.99840  0.47900  1.0000
  C   C2840     1.0  0.44643  0.33055  0.51985  1.0000
  C   C2841     1.0  0.43545  0.32634  0.54168  1.0000
  C   C2842     1.0  0.42696  0.30907  0.55217  1.0000
  C   C2843     1.0  0.42929  0.29600  0.54068  1.0000
  C   C2844     1.0  0.57503  0.19527  0.62826  1.0000
  C   C2845     1.0  0.40138  0.19716  0.68717  1.0000
  C   C2846     1.0  0.43284  0.47052  0.91399  1.0000
  H   H2281     1.0  0.47151  0.14909  0.92975  1.0000
  H   H2282     1.0  0.42364  0.46011  0.91062  1.0000
  H   H2283     1.0  0.43346  0.33656  0.55030  1.0000
  H   H2284     1.0  0.41842  0.30584  0.56913  1.0000
  H   H2285     1.0  0.42221  0.28277  0.54891  1.0000
  C   C2847     1.0  0.42500  0.20532  0.49727  1.0000
  C   C2848     1.0  0.45916  0.02909  0.88318  1.0000
  H   H2286     1.0  0.51399  0.47285  0.52464  1.0000
  H   H2287     1.0  0.53132  0.36501  0.50063  1.0000
  H   H2288     1.0  0.58283  0.12009  0.70535  1.0000
  H   H2289     1.0  0.38803  0.10789  0.68819  1.0000
  H   H2290     1.0  0.38888  0.36222  0.84510  1.0000
  C   C2849     1.0  0.54323  0.41715  0.49246  1.0000
  P   P97       1.0  0.56166  0.44575  0.50526  1.0000
  C   C2850     1.0  0.54120  0.44677  0.52108  1.0000
  C   C2851     1.0  0.40641  0.33702  0.81079  1.0000
  H   H2291     1.0  0.47619  0.25894  0.73285  1.0000
  H   H2292     1.0  0.41959  0.01362  0.88672  1.0000
  C   C2852     1.0  0.46127  0.03381  0.92734  1.0000
  H   H2293     1.0  0.47950  0.46143  0.93296  1.0000
  C   C2853     1.0  0.47932  0.47859  0.55814  1.0000
  C   C2854     1.0  0.53465  0.46120  0.51568  1.0000
  C   C2855     1.0  0.51344  0.01105  0.82562  1.0000
  C   C2856     1.0  0.51598  0.30587  0.81801  1.0000
  C   C2857     1.0  0.51650  0.43377  0.55325  1.0000
  C   C2858     1.0  0.53207  0.43320  0.54015  1.0000
  H   H2294     1.0  0.57007  0.41453  0.52827  1.0000
  C   C2859     1.0  0.39200  0.16584  0.69674  1.0000
  Fe  Fe197     1.0  0.38601  0.15902  0.48318  1.0000
  H   H2295     1.0  0.40624  0.34414  0.90230  1.0000
  C   C2860     1.0  0.46590  0.22602  0.48010  1.0000
  C   C2861     1.0  0.55742  0.35470  0.71899  1.0000
  C   C2862     1.0  0.51133  0.34905  0.48954  1.0000
  H   H2296     1.0  0.58038  0.43842  0.94066  1.0000
  C   C2863     1.0  0.56084  0.00378  0.82033  1.0000
  H   H2297     1.0  0.40925  0.17452  0.93424  1.0000
  C   C2864     1.0  0.41818  0.23308  0.53804  1.0000
  C   C2865     1.0  0.39200  0.12260  0.62433  1.0000
  C   C2866     1.0  0.51541  0.32046  0.82705  1.0000
  H   H2298     1.0  0.57909  0.34962  0.69824  1.0000
  H   H2299     1.0  0.49644  0.28199  0.70124  1.0000
  H   H2300     1.0  0.49790  0.44845  0.55785  1.0000
  H   H2301     1.0  0.50959  0.42310  0.56785  1.0000
  H   H2302     1.0  0.53704  0.42211  0.54494  1.0000
  H   H2303     1.0  0.43018  0.03854  0.85265  1.0000
  H   H2304     1.0  0.58113  0.23232  0.55756  1.0000
  H   H2305     1.0  0.43230  0.08013  0.88919  1.0000
  C   C2867     1.0  0.39803  0.38589  0.85510  1.0000
  C   C2868     1.0  0.46873  0.33263  0.57091  1.0000
  C   C2869     1.0  0.45576  0.33744  0.58458  1.0000
  C   C2870     1.0  0.45120  0.33098  0.60853  1.0000
  C   C2871     1.0  0.45968  0.31974  0.61892  1.0000
  C   C2872     1.0  0.47273  0.31503  0.60536  1.0000
  C   C2873     1.0  0.39684  0.29534  0.90203  1.0000
  H   H2306     1.0  0.44963  0.34668  0.57664  1.0000
  H   H2307     1.0  0.44135  0.33497  0.61907  1.0000
  H   H2308     1.0  0.51502  0.35676  0.47190  1.0000
  C   C2874     1.0  0.55566  0.14384  0.94119  1.0000
  H   H2309     1.0  0.52578  0.04784  0.93555  1.0000
  S   S394      1.0  0.39516  0.25201  0.94264  1.0000
  H   H2310     1.0  0.47961  0.30679  0.61368  1.0000
  H   H2311     1.0  0.45938  0.44262  0.60109  1.0000
  C   C2875     1.0  0.54751  0.40691  0.80967  1.0000
  C   C2876     1.0  0.41586  0.41420  0.48237  1.0000
  H   H2312     1.0  0.54291  0.00638  0.92312  1.0000
  C   C2877     1.0  0.43001  0.47481  0.93544  1.0000
  H   H2313     1.0  0.54157  0.47211  0.50157  1.0000
  H   H2314     1.0  0.57201  0.38809  0.76787  1.0000
  H   H2315     1.0  0.40798  0.22271  0.53660  1.0000
  H   H2316     1.0  0.47095  0.26308  0.77307  1.0000
  H   H2317     1.0  0.39627  0.06500  0.88476  1.0000
  H   H2318     1.0  0.43125  0.34049  0.94254  1.0000
  C   C2878     1.0  0.48008  0.27303  0.75932  1.0000
  C   C2879     1.0  0.38697  0.05411  0.94271  1.0000
  H   H2319     1.0  0.43932  0.36920  0.81914  1.0000
  C   C2880     1.0  0.52050  0.35373  0.50570  1.0000
  C   C2881     1.0  0.44876  0.31756  0.50825  1.0000
  H   H2320     1.0  0.44912  0.23471  0.50461  1.0000
  C   C2882     1.0  0.51566  0.34397  0.52852  1.0000
  C   C2883     1.0  0.40300  0.30772  0.88105  1.0000
  H   H2321     1.0  0.47975  0.17969  0.90733  1.0000
  H   H2322     1.0  0.47270  0.27008  0.51083  1.0000
  H   H2323     1.0  0.41220  0.14580  0.72169  1.0000
  C   C2884     1.0  0.46958  0.34684  0.81818  1.0000
  C   C2885     1.0  0.57106  0.12297  0.95341  1.0000
  H   H2324     1.0  0.39294  0.12888  0.94823  1.0000
  H   H2325     1.0  0.45684  0.32135  0.49100  1.0000
  H   H2326     1.0  0.56827  0.11886  0.83196  1.0000
  C   C2886     1.0  0.55300  0.39156  0.94834  1.0000
  C   C2887     1.0  0.40110  0.05359  0.88522  1.0000
  H   H2327     1.0  0.53381  0.35618  0.73923  1.0000
  C   C2888     1.0  0.43618  0.26256  0.52386  1.0000
  C   C2889     1.0  0.42295  0.24904  0.52200  1.0000
  C   C2890     1.0  0.44742  0.47971  0.89681  1.0000
  H   H2328     1.0  0.43631  0.31788  0.85759  1.0000
  C   C2891     1.0  0.39864  0.36934  0.85205  1.0000
  H   H2329     1.0  0.52279  0.40636  0.94148  1.0000
  H   H2330     1.0  0.52303  0.34795  0.54059  1.0000
  H   H2331     1.0  0.42528  0.30857  0.94760  1.0000
  C   C2892     1.0  0.48702  0.22741  0.51168  1.0000
  C   C2893     1.0  0.47050  0.17580  0.92377  1.0000
  C   C2894     1.0  0.57131  0.19104  0.65241  1.0000
  C   C2895     1.0  0.47725  0.32125  0.58125  1.0000
  C   C2896     1.0  0.46285  0.18787  0.93219  1.0000
  C   C2897     1.0  0.51967  0.47653  0.88495  1.0000
  H   H2332     1.0  0.47046  0.36611  0.72265  1.0000
  Fe  Fe198     1.0  0.39708  0.11570  0.85069  1.0000
  H   H2333     1.0  0.55087  0.00785  0.55894  1.0000
  C   C2898     1.0  0.44493  0.35851  0.82344  1.0000
  H   H2334     1.0  0.41860  0.46776  0.94858  1.0000
  H   H2335     1.0  0.54592  0.40321  0.77580  1.0000
  C   C2899     1.0  0.44195  0.48808  0.93993  1.0000
  H   H2336     1.0  0.38566  0.17602  0.81466  1.0000
  H   H2337     1.0  0.49991  0.00095  0.90559  1.0000
  H   H2338     1.0  0.42831  0.18055  0.65365  1.0000
  H   H2339     1.0  0.50974  0.49240  0.48700  1.0000
  C   C2900     1.0  0.39569  0.33171  0.79653  1.0000
  C   C2901     1.0  0.47343  0.46396  0.94904  1.0000
  H   H2340     1.0  0.47238  0.33828  0.55250  1.0000
  H   H2341     1.0  0.57062  0.39104  0.91757  1.0000
  C   C2902     1.0  0.52839  0.34108  0.59793  1.0000
  H   H2342     1.0  0.39744  0.15794  0.90739  1.0000
  C   C2903     1.0  0.49442  0.28366  0.71886  1.0000
  C   C2904     1.0  0.51258  0.39486  0.94998  1.0000
  C   C2905     1.0  0.48165  0.22189  0.47522  1.0000
  C   C2906     1.0  0.38378  0.14689  0.64878  1.0000
  S   S395      1.0  0.42643  0.24554  0.96662  1.0000
  H   H2343     1.0  0.51925  0.29688  0.58067  1.0000
  H   H2344     1.0  0.52693  0.49227  0.90835  1.0000
  C   C2907     1.0  0.51812  0.48917  0.89748  1.0000
  C   C2908     1.0  0.54434  0.13856  0.96291  1.0000
  C   C2909     1.0  0.53473  0.31353  0.59672  1.0000
  H   H2345     1.0  0.43432  0.19977  0.50412  1.0000
  C   C2910     1.0  0.48677  0.45623  0.48233  1.0000
  C   C2911     1.0  0.39703  0.31817  0.92269  1.0000
  C   C2912     1.0  0.54064  0.34776  0.73197  1.0000
  C   C2913     1.0  0.39424  0.19304  0.93056  1.0000
  C   C2914     1.0  0.47733  0.44518  0.50357  1.0000
  C   C2915     1.0  0.48871  0.28835  0.76410  1.0000
  C   C2916     1.0  0.52180  0.30938  0.58500  1.0000
  H   H2346     1.0  0.49342  0.36127  0.69415  1.0000
  C   C2917     1.0  0.51461  0.30618  0.79518  1.0000
  C   C2918     1.0  0.53812  0.32944  0.60299  1.0000
  C   C2919     1.0  0.57438  0.11080  0.67715  1.0000
  H   H2347     1.0  0.57130  0.14593  0.69913  1.0000
  H   H2348     1.0  0.43333  0.39576  0.87678  1.0000
  C   C2920     1.0  0.55929  0.42821  0.49058  1.0000
  C   C2921     1.0  0.49093  0.35469  0.71216  1.0000
  C   C2922     1.0  0.47785  0.35731  0.72826  1.0000
  H   H2349     1.0  0.47205  0.28390  0.59599  1.0000
  C   C2923     1.0  0.42966  0.28373  0.48200  1.0000
  H   H2350     1.0  0.38427  0.09495  0.76138  1.0000
  C   C2924     1.0  0.56632  0.34409  0.70903  1.0000
  H   H2351     1.0  0.39481  0.40980  0.51180  1.0000
  H   H2352     1.0  0.57645  0.22999  0.63279  1.0000
  H   H2353     1.0  0.54692  0.42170  0.68130  1.0000
  C   C2925     1.0  0.57495  0.42517  0.53578  1.0000
  C   C2926     1.0  0.46018  0.33151  0.83410  1.0000
  H   H2354     1.0  0.50474  0.00472  0.49424  1.0000
  C   C2927     1.0  0.48298  0.27067  0.73671  1.0000
  C   C2928     1.0  0.46342  0.45107  0.58390  1.0000
  C   C2929     1.0  0.51375  0.33544  0.81316  1.0000
  C   C2930     1.0  0.56145  0.24647  0.64467  1.0000
  H   H2355     1.0  0.55222  0.41329  0.84139  1.0000
  C   C2931     1.0  0.55383  0.40962  0.78582  1.0000
  C   C2932     1.0  0.43545  0.34329  0.83986  1.0000
  C   C2933     1.0  0.39317  0.16917  0.91048  1.0000
  C   C2934     1.0  0.57336  0.44190  0.52741  1.0000
  C   C2935     1.0  0.45826  0.44516  0.56529  1.0000
  C   C2936     1.0  0.40348  0.33061  0.90178  1.0000
  C   C2937     1.0  0.39544  0.20574  0.50054  1.0000
  H   H2356     1.0  0.50426  0.41952  0.51163  1.0000
  H   H2357     1.0  0.46818  0.25335  0.59495  1.0000
  S   S396      1.0  0.44299  0.37404  0.48094  1.0000
  C   C2938     1.0  0.50542  0.99387  0.83706  1.0000
  C   C2939     1.0  0.51540  0.33695  0.58642  1.0000
  H   H2358     1.0  0.57992  0.09986  0.67950  1.0000
  C   C2940     1.0  0.54330  0.99992  0.86573  1.0000
  C   C2941     1.0  0.47919  0.28074  0.58124  1.0000
  H   H2359     1.0  0.48107  0.31398  0.52413  1.0000
  C   C2942     1.0  0.48417  0.43237  0.51437  1.0000
  H   H2360     1.0  0.51151  0.30908  0.70935  1.0000
  C   C2943     1.0  0.40157  0.02498  0.90476  1.0000
  C   C2944     1.0  0.44315  0.32969  0.84488  1.0000
  C   C2945     1.0  0.39636  0.13861  0.65399  1.0000
  C   C2946     1.0  0.56605  0.11374  0.65916  1.0000
  C   C2947     1.0  0.44397  0.26001  0.54263  1.0000
  H   H2361     1.0  0.45370  0.27042  0.54507  1.0000
  H   H2362     1.0  0.45201  0.18885  0.48019  1.0000
  C   C2948     1.0  0.50121  0.34419  0.71935  1.0000
  C   C2949     1.0  0.49464  0.47991  0.87093  1.0000
  H   H2363     1.0  0.46219  0.03564  0.94445  1.0000
  C   C2950     1.0  0.47686  0.26328  0.58068  1.0000
  H   H2364     1.0  0.54964  0.26577  0.65532  1.0000
  H   H2365     1.0  0.56772  0.00533  0.80271  1.0000
  C   C2951     1.0  0.41053  0.39544  0.86394  1.0000
  C   C2952     1.0  0.50768  0.47155  0.87221  1.0000
  H   H2366     1.0  0.46441  0.35089  0.76400  1.0000
  H   H2367     1.0  0.40521  0.30344  0.86507  1.0000
  P   P98       1.0  0.41343  0.34128  0.85333  1.0000
  S   S397      1.0  0.40263  0.20385  0.95097  1.0000
  P   P99       1.0  0.51088  0.32165  0.75176  1.0000
  C   C2953     1.0  0.45074  0.18281  0.95328  1.0000
  C   C2954     1.0  0.56089  0.42758  0.72982  1.0000
  C   C2955     1.0  0.47456  0.34886  0.75153  1.0000
  P   P100      1.0  0.49528  0.31625  0.56461  1.0000
  C   C2956     1.0  0.49352  0.28510  0.48307  1.0000
  C   C2957     1.0  0.50053  0.28873  0.54512  1.0000
  C   C2958     1.0  0.40786  0.19902  0.50905  1.0000
  C   C2959     1.0  0.49105  0.29365  0.56343  1.0000
  C   C2960     1.0  0.48624  0.25854  0.56235  1.0000
  C   C2961     1.0  0.57866  0.45501  0.53880  1.0000
  C   C2962     1.0  0.49807  0.27124  0.54458  1.0000
  H   H2368     1.0  0.51142  0.34249  0.70659  1.0000
  C   C2963     1.0  0.49218  0.32497  0.51911  1.0000
  H   H2369     1.0  0.45282  0.05681  0.91780  1.0000
  C   C2964     1.0  0.53474  0.43262  0.70750  1.0000
  C   C2965     1.0  0.42432  0.37199  0.86668  1.0000
  C   C2966     1.0  0.42362  0.38844  0.86984  1.0000
  H   H2370     1.0  0.42034  0.00613  0.94221  1.0000
  H   H2371     1.0  0.54189  0.30428  0.60141  1.0000
  C   C2967     1.0  0.41435  0.02473  0.88620  1.0000
  H   H2372     1.0  0.50572  0.26746  0.53081  1.0000
  C   C2968     1.0  0.57734  0.41536  0.92738  1.0000
  C   C2969     1.0  0.50003  0.38923  0.93830  1.0000
  H   H2373     1.0  0.54813  0.43841  0.75610  1.0000
  Fe  Fe199     1.0  0.58046  0.05748  0.86090  1.0000
  C   C2970     1.0  0.51217  0.32119  0.57952  1.0000
  C   C2971     1.0  0.40021  0.21901  0.48052  1.0000
  H   H2374     1.0  0.48219  0.46661  0.47398  1.0000
  H   H2375     1.0  0.50794  0.34615  0.58280  1.0000
  H   H2376     1.0  0.43463  0.36680  0.87110  1.0000
  H   H2377     1.0  0.47787  0.47231  0.59483  1.0000
  C   C2972     1.0  0.57741  0.06780  0.95705  1.0000
  S   S398      1.0  0.44982  0.06213  0.96490  1.0000
  C   C2973     1.0  0.43934  0.24392  0.55838  1.0000
  H   H2378     1.0  0.42316  0.21787  0.56800  1.0000
  S   S399      1.0  0.47677  0.40670  0.47418  1.0000
  Fe  Fe200     1.0  0.57065  0.04912  0.49706  1.0000
  C   C2974     1.0  0.57290  0.42522  0.94304  1.0000
  H   H2379     1.0  0.57732  0.13954  0.91929  1.0000
  C   C2975     1.0  0.50306  0.29896  0.72357  1.0000
  C   C2976     1.0  0.58083  0.39057  0.75130  1.0000
  C   C2977     1.0  0.50155  0.32938  0.53536  1.0000
  C   C2978     1.0  0.49714  0.33470  0.49626  1.0000
  C   C2979     1.0  0.49962  0.42995  0.50346  1.0000
  C   C2980     1.0  0.48448  0.33793  0.75870  1.0000
  H   H2380     1.0  0.44569  0.24177  0.57246  1.0000
  C   C2981     1.0  0.41355  0.00359  0.96006  1.0000
  H   H2381     1.0  0.44477  0.19232  0.95908  1.0000
  H   H2382     1.0  0.54953  0.23646  0.64895  1.0000
  H   H2383     1.0  0.57690  0.28868  0.64520  1.0000
  C   C2982     1.0  0.47644  0.28022  0.49525  1.0000
  H   H2384     1.0  0.41962  0.40266  0.48886  1.0000
  C   C2983     1.0  0.55729  0.41523  0.82296  1.0000
  C   C2984     1.0  0.49829  0.33605  0.74280  1.0000
  H   H2385     1.0  0.51016  0.29836  0.53158  1.0000
  C   C2985     1.0  0.57003  0.42080  0.77504  1.0000
  C   C2986     1.0  0.51236  0.33577  0.79038  1.0000
  H   H2386     1.0  0.53490  0.39852  0.81789  1.0000
  H   H2387     1.0  0.48474  0.24496  0.56236  1.0000
  H   H2388     1.0  0.45807  0.02727  0.86614  1.0000
  C   C2987     1.0  0.54152  0.40439  0.47976  1.0000
  C   C2988     1.0  0.54405  0.00554  0.50476  1.0000
  C   C2989     1.0  0.56045  0.42303  0.70855  1.0000
  C   C2990     1.0  0.45616  0.04580  0.91230  1.0000
  C   C2991     1.0  0.53263  0.33015  0.73514  1.0000
  H   H2389     1.0  0.48145  0.33112  0.77667  1.0000
  H   H2390     1.0  0.56543  0.31824  0.70468  1.0000
  H   H2391     1.0  0.53075  0.35327  0.60312  1.0000
  C   C2992     1.0  0.46112  0.23140  0.50056  1.0000
  C   C2993     1.0  0.50060  0.30126  0.74633  1.0000
  C   C2994     1.0  0.56108  0.14549  0.58491  1.0000
  C   C2995     1.0  0.57352  0.42614  0.81246  1.0000
  H   H2392     1.0  0.50758  0.09166  0.94810  1.0000
  H   H2393     1.0  0.56513  0.13161  0.79306  1.0000
  H   H2394     1.0  0.56518  0.10479  0.64796  1.0000
  C   C2996     1.0  0.44312  0.47644  0.51134  1.0000
  H   H2395     1.0  0.52056  0.43861  0.47331  1.0000
  C   C2997     1.0  0.57603  0.12223  0.69177  1.0000
  C   C2998     1.0  0.55860  0.32642  0.71263  1.0000
  Fe  Fe201     1.0  0.57966  0.09048  0.87811  1.0000
  C   C2999     1.0  0.48676  0.37439  0.94878  1.0000
  H   H2396     1.0  0.57899  0.16047  0.62636  1.0000
  C   C3000     1.0  0.40011  0.12613  0.64198  1.0000
  H   H2397     1.0  0.58258  0.43508  0.65806  1.0000
  H   H2398     1.0  0.57676  0.46777  0.53339  1.0000
  C   C3001     1.0  0.57688  0.27587  0.64242  1.0000
  H   H2399     1.0  0.44309  0.47694  0.52912  1.0000
  H   H2400     1.0  0.57613  0.02791  0.82430  1.0000
  H   H2401     1.0  0.39737  0.01407  0.91960  1.0000
  H   H2402     1.0  0.39548  0.11353  0.61440  1.0000
  H   H2403     1.0  0.49483  0.48434  0.94857  1.0000
  C   C3002     1.0  0.40180  0.07642  0.96812  1.0000
  C   C3003     1.0  0.45397  0.15360  0.95755  1.0000
  H   H2404     1.0  0.41943  0.13681  0.96171  1.0000
  H   H2405     1.0  0.39983  0.20952  0.69021  1.0000
  C   C3004     1.0  0.57191  0.46491  0.48239  1.0000
  H   H2406     1.0  0.57002  0.41744  0.70043  1.0000
  C   C3005     1.0  0.42992  0.21825  0.47663  1.0000
  C   C3006     1.0  0.43589  0.48784  0.49857  1.0000
  H   H2407     1.0  0.39504  0.32219  0.93889  1.0000
  Fe  Fe202     1.0  0.39110  0.14100  0.81138  1.0000
  C   C3007     1.0  0.50244  0.45401  0.47167  1.0000
  C   C3008     1.0  0.39361  0.08255  0.95129  1.0000
  H   H2408     1.0  0.58119  0.11682  0.94893  1.0000
  C   C3009     1.0  0.54845  0.40136  0.96421  1.0000
  C   C3010     1.0  0.57993  0.42887  0.78862  1.0000
  H   H2409     1.0  0.57941  0.46119  0.72433  1.0000
  H   H2410     1.0  0.52093  0.00608  0.55679  1.0000
  H   H2411     1.0  0.56618  0.99845  0.89948  1.0000
  C   C3011     1.0  0.45712  0.45395  0.96096  1.0000
  C   C3012     1.0  0.52436  0.99458  0.56447  1.0000
  C   C3013     1.0  0.54130  0.99557  0.56556  1.0000
  C   C3014     1.0  0.40866  0.14157  0.96821  1.0000
  C   C3015     1.0  0.58196  0.42171  0.55501  1.0000
  H   H2412     1.0  0.58260  0.40864  0.56192  1.0000
  H   H2413     1.0  0.58329  0.36436  0.75670  1.0000
  S   S400      1.0  0.56054  0.87510  0.31519  1.0000
  S   S401      1.0  0.55238  0.83461  0.34237  1.0000
  H   H2414     1.0  0.52465  0.81402  0.22452  1.0000
  Fe  Fe203     1.0  0.56359  0.85023  0.30609  1.0000
  S   S402      1.0  0.55760  0.84323  0.27288  1.0000
  Fe  Fe204     1.0  0.55144  0.85986  0.35191  1.0000
  S   S403      1.0  0.52695  0.86074  0.37491  1.0000
  H   H2415     1.0  0.50044  0.77179  0.11941  1.0000
  S   S404      1.0  0.53271  0.84320  0.04450  1.0000
  H   H2416     1.0  0.41525  0.50059  0.08441  1.0000
  H   H2417     1.0  0.46027  0.51584  0.35829  1.0000
  C   C3016     1.0  0.46939  0.96601  0.39971  1.0000
  H   H2418     1.0  0.40116  0.85828  0.08639  1.0000
  H   H2419     1.0  0.54966  0.83376  0.23194  1.0000
  C   C3017     1.0  0.50210  0.53909  0.37100  1.0000
  S   S405      1.0  0.49197  0.93747  0.45392  1.0000
  S   S406      1.0  0.52957  0.91600  0.43678  1.0000
  C   C3018     1.0  0.42424  0.75688  0.18057  1.0000
  H   H2420     1.0  0.48895  0.60980  0.45231  1.0000
  S   S407      1.0  0.40608  0.92009  0.31909  1.0000
  S   S408      1.0  0.43153  0.90413  0.36306  1.0000
  Fe  Fe205     1.0  0.49908  0.63491  0.37420  1.0000
  S   S409      1.0  0.51444  0.62758  0.34437  1.0000
  S   S410      1.0  0.50430  0.65905  0.38910  1.0000
  Fe  Fe206     1.0  0.46954  0.60233  0.38240  1.0000
  S   S411      1.0  0.48244  0.59222  0.35367  1.0000
  S   S412      1.0  0.44394  0.58972  0.40723  1.0000
  Fe  Fe207     1.0  0.50602  0.60052  0.36695  1.0000
  S   S413      1.0  0.52086  0.58181  0.37928  1.0000
  Fe  Fe208     1.0  0.48957  0.61984  0.33310  1.0000
  S   S414      1.0  0.48893  0.62831  0.29498  1.0000
  S   S415      1.0  0.49235  0.60846  0.39735  1.0000
  S   S416      1.0  0.47497  0.62943  0.36104  1.0000
  C   C3019     1.0  0.42785  0.73903  0.15295  1.0000
  S   S417      1.0  0.41537  0.50848  0.42466  1.0000
  S   S418      1.0  0.47519  0.56247  0.98857  1.0000
  Fe  Fe209     1.0  0.46577  0.58521  0.99693  1.0000
  S   S419      1.0  0.44911  0.58605  0.03111  1.0000
  Fe  Fe210     1.0  0.44594  0.61091  0.15037  1.0000
  S   S420      1.0  0.42846  0.62699  0.14000  1.0000
  S   S421      1.0  0.46586  0.60452  0.12413  1.0000
  Fe  Fe211     1.0  0.43344  0.60926  0.20222  1.0000
  S   S422      1.0  0.41479  0.62495  0.19498  1.0000
  S   S423      1.0  0.43426  0.59850  0.23971  1.0000
  Fe  Fe212     1.0  0.40841  0.60818  0.16978  1.0000
  Fe  Fe213     1.0  0.43643  0.64212  0.16599  1.0000
  S   S424      1.0  0.44807  0.67159  0.15478  1.0000
  S   S425      1.0  0.42571  0.59141  0.17905  1.0000
  S   S426      1.0  0.45523  0.62704  0.17444  1.0000
  Fe  Fe214     1.0  0.48787  0.78792  0.22084  1.0000
  S   S427      1.0  0.49407  0.80877  0.18835  1.0000
  S   S428      1.0  0.49286  0.79190  0.25575  1.0000
  Fe  Fe215     1.0  0.46832  0.76040  0.19885  1.0000
  S   S429      1.0  0.47307  0.77955  0.16489  1.0000
  S   S430      1.0  0.45165  0.73253  0.20909  1.0000
  Fe  Fe216     1.0  0.49967  0.78834  0.16983  1.0000
  S   S431      1.0  0.52361  0.79251  0.14205  1.0000
  Fe  Fe217     1.0  0.46685  0.79823  0.18645  1.0000
  S   S432      1.0  0.45150  0.81752  0.17762  1.0000
  S   S433      1.0  0.49540  0.76796  0.20264  1.0000
  S   S434      1.0  0.46023  0.77865  0.22005  1.0000
  H   H2421     1.0  0.52648  0.81979  0.30464  1.0000
  C   C3020     1.0  0.41598  0.51431  0.08089  1.0000
  H   H2422     1.0  0.50143  0.80004  0.29721  1.0000
  C   C3021     1.0  0.44883  0.68833  0.17027  1.0000
  C   C3022     1.0  0.46101  0.70437  0.16068  1.0000
  C   C3023     1.0  0.46199  0.71808  0.17216  1.0000
  C   C3024     1.0  0.45080  0.71591  0.19348  1.0000
  C   C3025     1.0  0.43862  0.69992  0.20307  1.0000
  C   C3026     1.0  0.43755  0.68625  0.19149  1.0000
  H   H2423     1.0  0.46982  0.70615  0.14431  1.0000
  H   H2424     1.0  0.47143  0.73029  0.16457  1.0000
  H   H2425     1.0  0.42992  0.69807  0.21957  1.0000
  H   H2426     1.0  0.42798  0.67411  0.19901  1.0000
  C   C3027     1.0  0.45472  0.59251  0.05586  1.0000
  C   C3028     1.0  0.44184  0.59488  0.07278  1.0000
  C   C3029     1.0  0.44519  0.59883  0.09349  1.0000
  C   C3030     1.0  0.46151  0.60043  0.09763  1.0000
  C   C3031     1.0  0.47456  0.59846  0.08051  1.0000
  C   C3032     1.0  0.47121  0.59457  0.05965  1.0000
  H   H2427     1.0  0.42910  0.59349  0.07001  1.0000
  H   H2428     1.0  0.43504  0.60036  0.10643  1.0000
  H   H2429     1.0  0.48727  0.59979  0.08350  1.0000
  H   H2430     1.0  0.48127  0.59283  0.04678  1.0000
  C   C3033     1.0  0.53738  0.57524  0.36321  1.0000
  C   C3034     1.0  0.54416  0.58217  0.33950  1.0000
  C   C3035     1.0  0.55710  0.57603  0.32758  1.0000
  C   C3036     1.0  0.56314  0.56284  0.33925  1.0000
  C   C3037     1.0  0.55624  0.55595  0.36288  1.0000
  C   C3038     1.0  0.54355  0.56223  0.37481  1.0000
  H   H2431     1.0  0.53952  0.59227  0.33047  1.0000
  H   H2432     1.0  0.56246  0.58148  0.30931  1.0000
  C   C3039     1.0  0.41129  0.77950  0.07871  1.0000
  H   H2433     1.0  0.53841  0.55690  0.39313  1.0000
  C   C3040     1.0  0.47338  0.61980  0.28020  1.0000
  C   C3041     1.0  0.47525  0.62754  0.25676  1.0000
  C   C3042     1.0  0.46363  0.62093  0.24407  1.0000
  C   C3043     1.0  0.44965  0.60679  0.25482  1.0000
  C   C3044     1.0  0.44775  0.59902  0.27829  1.0000
  C   C3045     1.0  0.45957  0.60544  0.29090  1.0000
  H   H2434     1.0  0.48572  0.63878  0.24837  1.0000
  H   H2435     1.0  0.46523  0.62704  0.22608  1.0000
  H   H2436     1.0  0.43700  0.58806  0.28681  1.0000
  H   H2437     1.0  0.45799  0.59938  0.30888  1.0000
  C   C3046     1.0  0.43587  0.56722  0.41106  1.0000
  C   C3047     1.0  0.41979  0.55894  0.42576  1.0000
  C   C3048     1.0  0.41323  0.54095  0.42962  1.0000
  C   C3049     1.0  0.42282  0.53114  0.41899  1.0000
  C   C3050     1.0  0.43873  0.53944  0.40389  1.0000
  C   C3051     1.0  0.44527  0.55744  0.39996  1.0000
  H   H2438     1.0  0.41241  0.56646  0.43428  1.0000
  H   H2439     1.0  0.40082  0.53466  0.44094  1.0000
  H   H2440     1.0  0.44623  0.53192  0.39566  1.0000
  H   H2441     1.0  0.45772  0.56368  0.38875  1.0000
  C   C3052     1.0  0.44007  0.91138  0.43389  1.0000
  C   C3053     1.0  0.42377  0.90954  0.42933  1.0000
  C   C3054     1.0  0.42109  0.90741  0.40763  1.0000
  C   C3055     1.0  0.43472  0.90713  0.39029  1.0000
  C   C3056     1.0  0.45107  0.90914  0.39476  1.0000
  C   C3057     1.0  0.45376  0.91121  0.41655  1.0000
  H   H2442     1.0  0.41315  0.90966  0.44270  1.0000
  H   H2443     1.0  0.40842  0.90568  0.40447  1.0000
  H   H2444     1.0  0.46171  0.90933  0.38124  1.0000
  H   H2445     1.0  0.46635  0.91268  0.41995  1.0000
  H   H2446     1.0  0.38340  0.60806  0.08562  1.0000
  C   C3058     1.0  0.40235  0.79150  0.20970  1.0000
  C   C3059     1.0  0.42030  0.79611  0.20328  1.0000
  C   C3060     1.0  0.42912  0.81210  0.18834  1.0000
  C   C3061     1.0  0.41989  0.82377  0.18085  1.0000
  C   C3062     1.0  0.40193  0.81921  0.18742  1.0000
  C   C3063     1.0  0.56474  0.96287  0.43905  1.0000
  H   H2447     1.0  0.42729  0.78712  0.20944  1.0000
  H   H2448     1.0  0.42662  0.83624  0.16951  1.0000
  C   C3064     1.0  0.46858  0.91820  0.99462  1.0000
  Fe  Fe218     1.0  0.55619  0.85095  0.01458  1.0000
  H   H2449     1.0  0.47220  0.82019  0.12842  1.0000
  H   H2450     1.0  0.42371  0.53018  0.29203  1.0000
  H   H2451     1.0  0.49070  0.87093  0.03312  1.0000
  C   C3065     1.0  0.54542  0.67847  0.42799  1.0000
  C   C3066     1.0  0.53011  0.68346  0.43079  1.0000
  C   C3067     1.0  0.51748  0.67703  0.41930  1.0000
  C   C3068     1.0  0.51989  0.66543  0.40502  1.0000
  C   C3069     1.0  0.53503  0.66014  0.40268  1.0000
  C   C3070     1.0  0.54771  0.66669  0.41399  1.0000
  H   H2452     1.0  0.52804  0.69231  0.44170  1.0000
  H   H2453     1.0  0.50578  0.68109  0.42148  1.0000
  H   H2454     1.0  0.53715  0.65127  0.39176  1.0000
  H   H2455     1.0  0.55947  0.66268  0.41173  1.0000
  C   C3071     1.0  0.53082  0.82940  0.07162  1.0000
  C   C3072     1.0  0.54328  0.82081  0.07593  1.0000
  C   C3073     1.0  0.54091  0.80948  0.09756  1.0000
  C   C3074     1.0  0.52622  0.80683  0.11509  1.0000
  C   C3075     1.0  0.51387  0.81558  0.11087  1.0000
  C   C3076     1.0  0.51615  0.82677  0.08920  1.0000
  H   H2456     1.0  0.55464  0.82275  0.06253  1.0000
  H   H2457     1.0  0.55049  0.80271  0.10070  1.0000
  H   H2458     1.0  0.50254  0.81367  0.12427  1.0000
  H   H2459     1.0  0.50651  0.83344  0.08601  1.0000
  C   C3077     1.0  0.52801  0.87571  0.39268  1.0000
  C   C3078     1.0  0.54345  0.88725  0.39207  1.0000
  C   C3079     1.0  0.54379  0.89942  0.40592  1.0000
  C   C3080     1.0  0.52872  0.90008  0.42046  1.0000
  C   C3081     1.0  0.51333  0.88836  0.42133  1.0000
  C   C3082     1.0  0.51300  0.87621  0.40748  1.0000
  H   H2460     1.0  0.55512  0.88689  0.38086  1.0000
  H   H2461     1.0  0.55576  0.90835  0.40536  1.0000
  H   H2462     1.0  0.50166  0.88872  0.43253  1.0000
  H   H2463     1.0  0.50107  0.86719  0.40825  1.0000
  H   H2464     1.0  0.39792  0.84520  0.13483  1.0000
  C   C3083     1.0  0.43262  0.98440  0.01695  1.0000
  C   C3084     1.0  0.56111  0.79476  0.42768  1.0000
  C   C3085     1.0  0.51800  0.51728  0.37232  1.0000
  H   H2465     1.0  0.55085  0.79678  0.43984  1.0000
  H   H2466     1.0  0.51734  0.56397  0.00196  1.0000
  C   C3086     1.0  0.51123  0.80577  0.26028  1.0000
  C   C3087     1.0  0.51198  0.80734  0.28293  1.0000
  C   C3088     1.0  0.52619  0.81847  0.28722  1.0000
  C   C3089     1.0  0.53984  0.82814  0.26885  1.0000
  C   C3090     1.0  0.53917  0.82636  0.24626  1.0000
  C   C3091     1.0  0.52497  0.81524  0.24198  1.0000
  H   H2467     1.0  0.46166  0.56293  0.44811  1.0000
  C   C3092     1.0  0.51767  0.49392  0.03298  1.0000
  H   H2468     1.0  0.38906  0.78673  0.16079  1.0000
  C   C3093     1.0  0.45110  0.96010  0.44567  1.0000
  C   C3094     1.0  0.43719  0.85337  0.05326  1.0000
  C   C3095     1.0  0.41126  0.87021  0.05029  1.0000
  H   H2469     1.0  0.50738  0.55149  0.41585  1.0000
  H   H2470     1.0  0.48481  0.51451  0.02968  1.0000
  H   H2471     1.0  0.50532  0.71143  0.44243  1.0000
  C   C3096     1.0  0.51802  0.83033  0.43703  1.0000
  H   H2472     1.0  0.39296  0.51129  0.06850  1.0000
  C   C3097     1.0  0.41206  0.54882  0.30558  1.0000
  C   C3098     1.0  0.40921  0.54578  0.98928  1.0000
  C   C3099     1.0  0.44006  0.72998  0.10468  1.0000
  H   H2473     1.0  0.39201  0.51531  0.32173  1.0000
  C   C3100     1.0  0.46707  0.54753  0.30987  1.0000
  C   C3101     1.0  0.47053  0.53520  0.32644  1.0000
  C   C3102     1.0  0.45750  0.52519  0.34531  1.0000
  C   C3103     1.0  0.44098  0.52741  0.34762  1.0000
  C   C3104     1.0  0.43729  0.53945  0.33071  1.0000
  C   C3105     1.0  0.45055  0.54968  0.31198  1.0000
  P   P101      1.0  0.41622  0.54308  0.33396  1.0000
  C   C3106     1.0  0.51465  0.87561  0.97923  1.0000
  H   H2474     1.0  0.38704  0.57563  0.97710  1.0000
  C   C3107     1.0  0.53734  0.70810  0.97522  1.0000
  C   C3108     1.0  0.42239  0.74054  0.17562  1.0000
  H   H2475     1.0  0.48588  0.72726  0.41573  1.0000
  H   H2476     1.0  0.46137  0.69838  0.10694  1.0000
  H   H2477     1.0  0.51570  0.51322  0.00500  1.0000
  H   H2478     1.0  0.58209  0.53124  0.07580  1.0000
  C   C3109     1.0  0.48618  0.88457  0.00157  1.0000
  C   C3110     1.0  0.43055  0.57328  0.34693  1.0000
  C   C3111     1.0  0.40290  0.55784  0.97617  1.0000
  Fe  Fe219     1.0  0.38997  0.49618  0.45026  1.0000
  Fe  Fe220     1.0  0.50571  0.91681  0.46154  1.0000
  C   C3112     1.0  0.40333  0.52042  0.07197  1.0000
  C   C3113     1.0  0.41792  0.99300  0.06809  1.0000
  H   H2479     1.0  0.40138  0.87699  0.04919  1.0000
  C   C3114     1.0  0.53993  0.59992  0.15225  1.0000
  C   C3115     1.0  0.44867  0.90857  0.97183  1.0000
  C   C3116     1.0  0.40016  0.98849  0.96956  1.0000
  H   H2480     1.0  0.48334  0.53354  0.32481  1.0000
  C   C3117     1.0  0.46154  0.62972  0.99010  1.0000
  H   H2481     1.0  0.43124  0.51991  0.36276  1.0000
  H   H2482     1.0  0.44820  0.55959  0.29923  1.0000
  P   P102      1.0  0.40839  0.96158  0.05538  1.0000
  C   C3118     1.0  0.47287  0.77264  0.07378  1.0000
  C   C3119     1.0  0.51422  0.68785  0.00487  1.0000
  C   C3120     1.0  0.39733  0.51991  0.37513  1.0000
  H   H2483     1.0  0.38749  0.57591  0.38270  1.0000
  H   H2484     1.0  0.52878  0.98670  0.44534  1.0000
  C   C3121     1.0  0.45590  0.51029  0.99594  1.0000
  C   C3122     1.0  0.41455  0.54503  0.26619  1.0000
  C   C3123     1.0  0.46159  0.60024  0.45983  1.0000
  C   C3124     1.0  0.42959  0.52590  0.08527  1.0000
  C   C3125     1.0  0.43303  0.97988  0.10278  1.0000
  H   H2485     1.0  0.46079  0.80319  0.06838  1.0000
  H   H2486     1.0  0.55659  0.86018  0.18774  1.0000
  C   C3126     1.0  0.48470  0.53013  0.42567  1.0000
  C   C3127     1.0  0.49388  0.54716  0.42401  1.0000
  C   C3128     1.0  0.48560  0.55894  0.43207  1.0000
  C   C3129     1.0  0.46818  0.55364  0.44254  1.0000
  H   H2487     1.0  0.54270  0.80260  0.33130  1.0000
  C   C3130     1.0  0.46732  0.52472  0.43688  1.0000
  C   C3131     1.0  0.55654  0.91587  0.30818  1.0000
  H   H2488     1.0  0.49270  0.57229  0.42965  1.0000
  H   H2489     1.0  0.58008  0.87207  0.15284  1.0000
  H   H2490     1.0  0.52066  0.79158  0.46711  1.0000
  C   C3132     1.0  0.53232  0.67728  0.97757  1.0000
  H   H2491     1.0  0.47725  0.55558  0.29550  1.0000
  H   H2492     1.0  0.52495  0.60044  0.03608  1.0000
  C   C3133     1.0  0.52047  0.75235  0.44895  1.0000
  S   S435      1.0  0.55313  0.84924  0.97858  1.0000
  S   S436      1.0  0.57163  0.50560  0.33950  1.0000
  P   P103      1.0  0.44280  0.75245  0.10566  1.0000
  C   C3134     1.0  0.56031  0.88563  0.06177  1.0000
  H   H2493     1.0  0.41858  0.77483  0.11082  1.0000
  H   H2494     1.0  0.51731  0.91576  0.37006  1.0000
  H   H2495     1.0  0.52524  0.78012  0.31738  1.0000
  C   C3135     1.0  0.48754  0.66051  0.97439  1.0000
  H   H2496     1.0  0.55720  0.93133  0.36229  1.0000
  H   H2497     1.0  0.43941  0.52121  0.09217  1.0000
  C   C3136     1.0  0.44066  0.86481  0.11770  1.0000
  H   H2498     1.0  0.43591  0.98034  0.37203  1.0000
  C   C3137     1.0  0.50338  0.73836  0.33082  1.0000
  C   C3138     1.0  0.48612  0.73624  0.34066  1.0000
  C   C3139     1.0  0.47646  0.74525  0.32885  1.0000
  C   C3140     1.0  0.48410  0.75650  0.30728  1.0000
  C   C3141     1.0  0.50129  0.75852  0.29733  1.0000
  H   H2499     1.0  0.51073  0.73149  0.34028  1.0000
  H   H2500     1.0  0.48021  0.72763  0.35745  1.0000
  H   H2501     1.0  0.46308  0.74362  0.33644  1.0000
  H   H2502     1.0  0.47675  0.76377  0.29820  1.0000
  C   C3142     1.0  0.53845  0.59067  0.25004  1.0000
  C   C3143     1.0  0.53216  0.59448  0.27108  1.0000
  C   C3144     1.0  0.52005  0.60410  0.27248  1.0000
  C   C3145     1.0  0.51432  0.60999  0.25286  1.0000
  C   C3146     1.0  0.52068  0.60643  0.23157  1.0000
  C   C3147     1.0  0.53269  0.59653  0.23037  1.0000
  P   P104      1.0  0.51270  0.61370  0.20647  1.0000
  C   C3148     1.0  0.49257  0.59896  0.20739  1.0000
  C   C3149     1.0  0.50961  0.63518  0.20537  1.0000
  C   C3150     1.0  0.51954  0.64692  0.21519  1.0000
  C   C3151     1.0  0.51705  0.66350  0.21427  1.0000
  C   C3152     1.0  0.40955  0.90499  0.08213  1.0000
  C   C3153     1.0  0.48713  0.59779  0.18683  1.0000
  C   C3154     1.0  0.47125  0.58699  0.18754  1.0000
  C   C3155     1.0  0.46065  0.57730  0.20872  1.0000
  C   C3156     1.0  0.46598  0.57829  0.22922  1.0000
  C   C3157     1.0  0.48183  0.58914  0.22861  1.0000
  H   H2503     1.0  0.54783  0.58319  0.24899  1.0000
  H   H2504     1.0  0.53668  0.59000  0.28629  1.0000
  C   C3158     1.0  0.44158  0.82755  0.09960  1.0000
  C   C3159     1.0  0.56312  0.83908  0.43213  1.0000
  H   H2505     1.0  0.53771  0.59334  0.21435  1.0000
  H   H2506     1.0  0.52917  0.64329  0.22361  1.0000
  H   H2507     1.0  0.52459  0.67239  0.22214  1.0000
  C   C3160     1.0  0.53893  0.98024  0.44285  1.0000
  H   H2508     1.0  0.49491  0.60555  0.17024  1.0000
  H   H2509     1.0  0.46698  0.58650  0.17165  1.0000
  H   H2510     1.0  0.44808  0.56945  0.20933  1.0000
  H   H2511     1.0  0.45742  0.57132  0.24568  1.0000
  H   H2512     1.0  0.48532  0.59021  0.24479  1.0000
  C   C3161     1.0  0.51101  0.74926  0.30887  1.0000
  H   H2513     1.0  0.53355  0.52496  0.40550  1.0000
  H   H2514     1.0  0.44161  0.59648  0.35708  1.0000
  H   H2515     1.0  0.44703  0.86542  0.01697  1.0000
  H   H2516     1.0  0.47881  0.80510  0.09709  1.0000
  H   H2517     1.0  0.53890  0.69357  0.28903  1.0000
  C   C3162     1.0  0.49508  0.65708  0.19318  1.0000
  C   C3163     1.0  0.52804  0.51768  0.42311  1.0000
  H   H2518     1.0  0.43882  0.97482  0.11634  1.0000
  C   C3164     1.0  0.58080  0.80402  0.38988  1.0000
  C   C3165     1.0  0.52372  0.70486  0.99431  1.0000
  C   C3166     1.0  0.50699  0.72524  0.19348  1.0000
  C   C3167     1.0  0.52340  0.72322  0.19329  1.0000
  C   C3168     1.0  0.52659  0.71341  0.21278  1.0000
  C   C3169     1.0  0.51336  0.70552  0.23245  1.0000
  C   C3170     1.0  0.49683  0.70751  0.23276  1.0000
  C   C3171     1.0  0.49379  0.71747  0.21314  1.0000
  P   P105      1.0  0.47942  0.69727  0.25777  1.0000
  C   C3172     1.0  0.46720  0.71278  0.26252  1.0000
  C   C3173     1.0  0.46585  0.67819  0.25285  1.0000
  C   C3174     1.0  0.46460  0.67673  0.23035  1.0000
  C   C3175     1.0  0.45364  0.66216  0.22691  1.0000
  C   C3176     1.0  0.44349  0.64919  0.24582  1.0000
  C   C3177     1.0  0.44475  0.65043  0.26822  1.0000
  C   C3178     1.0  0.45587  0.66485  0.27176  1.0000
  C   C3179     1.0  0.47559  0.73037  0.25899  1.0000
  C   C3180     1.0  0.46625  0.74251  0.26216  1.0000
  C   C3181     1.0  0.44845  0.73722  0.26879  1.0000
  C   C3182     1.0  0.43999  0.71975  0.27243  1.0000
  C   C3183     1.0  0.44930  0.70754  0.26934  1.0000
  C   C3184     1.0  0.48762  0.69104  0.28299  1.0000
  C   C3185     1.0  0.49332  0.67589  0.28620  1.0000
  C   C3186     1.0  0.49920  0.67066  0.30596  1.0000
  C   C3187     1.0  0.49926  0.68033  0.32281  1.0000
  C   C3188     1.0  0.49374  0.69547  0.31969  1.0000
  C   C3189     1.0  0.48803  0.70091  0.29983  1.0000
  H   H2519     1.0  0.50446  0.73292  0.17844  1.0000
  H   H2520     1.0  0.53364  0.72935  0.17804  1.0000
  H   H2521     1.0  0.53935  0.71190  0.21260  1.0000
  H   H2522     1.0  0.51610  0.69789  0.24725  1.0000
  H   H2523     1.0  0.48115  0.71921  0.21299  1.0000
  H   H2524     1.0  0.47181  0.68683  0.21538  1.0000
  H   H2525     1.0  0.45287  0.66093  0.20952  1.0000
  H   H2526     1.0  0.43496  0.63793  0.24305  1.0000
  H   H2527     1.0  0.43726  0.64006  0.28281  1.0000
  H   H2528     1.0  0.45656  0.66559  0.28929  1.0000
  H   H2529     1.0  0.48931  0.73481  0.25330  1.0000
  H   H2530     1.0  0.47280  0.75611  0.25885  1.0000
  H   H2531     1.0  0.44121  0.74674  0.27047  1.0000
  H   H2532     1.0  0.42617  0.71572  0.27694  1.0000
  H   H2533     1.0  0.44244  0.69416  0.27175  1.0000
  H   H2534     1.0  0.49297  0.66789  0.27365  1.0000
  H   H2535     1.0  0.50340  0.65885  0.30848  1.0000
  H   H2536     1.0  0.50346  0.67595  0.33835  1.0000
  H   H2537     1.0  0.49366  0.70281  0.33289  1.0000
  H   H2538     1.0  0.48369  0.71261  0.29798  1.0000
  H   H2539     1.0  0.57059  0.99227  0.38329  1.0000
  C   C3190     1.0  0.50852  0.93505  0.34919  1.0000
  Fe  Fe221     1.0  0.38980  0.93529  0.33626  1.0000
  C   C3191     1.0  0.39996  0.56178  0.36112  1.0000
  C   C3192     1.0  0.40216  0.82596  0.27207  1.0000
  C   C3193     1.0  0.39931  0.81310  0.25948  1.0000
  P   P106      1.0  0.42063  0.84425  0.26118  1.0000
  C   C3194     1.0  0.41637  0.85965  0.23874  1.0000
  C   C3195     1.0  0.42487  0.85464  0.28444  1.0000
  C   C3196     1.0  0.41614  0.86690  0.28994  1.0000
  C   C3197     1.0  0.41874  0.87461  0.30834  1.0000
  C   C3198     1.0  0.43005  0.87014  0.32149  1.0000
  C   C3199     1.0  0.43894  0.85807  0.31608  1.0000
  C   C3200     1.0  0.43638  0.85032  0.29766  1.0000
  C   C3201     1.0  0.42618  0.87695  0.23253  1.0000
  C   C3202     1.0  0.42212  0.88929  0.21659  1.0000
  C   C3203     1.0  0.40829  0.88445  0.20668  1.0000
  C   C3204     1.0  0.48110  0.49558  0.41335  1.0000
  C   C3205     1.0  0.40276  0.85483  0.22820  1.0000
  C   C3206     1.0  0.43857  0.83627  0.25026  1.0000
  C   C3207     1.0  0.44125  0.82131  0.26324  1.0000
  C   C3208     1.0  0.45539  0.81532  0.25536  1.0000
  C   C3209     1.0  0.46673  0.82398  0.23429  1.0000
  C   C3210     1.0  0.46388  0.83854  0.22092  1.0000
  C   C3211     1.0  0.44986  0.84471  0.22886  1.0000
  C   C3212     1.0  0.47460  0.63294  0.00182  1.0000
  H   H2540     1.0  0.46445  0.50824  0.39691  1.0000
  H   H2541     1.0  0.44781  0.84771  0.05406  1.0000
  C   C3213     1.0  0.50651  0.79470  0.44105  1.0000
  H   H2542     1.0  0.40835  0.81382  0.24363  1.0000
  H   H2543     1.0  0.40705  0.87035  0.28025  1.0000
  H   H2544     1.0  0.41173  0.88388  0.31261  1.0000
  H   H2545     1.0  0.43176  0.87598  0.33598  1.0000
  H   H2546     1.0  0.44771  0.85460  0.32634  1.0000
  H   H2547     1.0  0.44331  0.84092  0.29404  1.0000
  H   H2548     1.0  0.43669  0.88098  0.24047  1.0000
  H   H2549     1.0  0.42943  0.90270  0.21237  1.0000
  H   H2550     1.0  0.39488  0.84167  0.23251  1.0000
  P   P107      1.0  0.42415  0.83782  0.10066  1.0000
  C   C3214     1.0  0.51843  0.67386  0.99663  1.0000
  H   H2551     1.0  0.43246  0.81434  0.27951  1.0000
  H   H2552     1.0  0.45754  0.80384  0.26541  1.0000
  H   H2553     1.0  0.47760  0.81922  0.22822  1.0000
  H   H2554     1.0  0.47232  0.84478  0.20411  1.0000
  H   H2555     1.0  0.44779  0.85587  0.21807  1.0000
  C   C3215     1.0  0.45620  0.92424  0.00754  1.0000
  H   H2556     1.0  0.56328  0.86036  0.07442  1.0000
  C   C3216     1.0  0.47744  0.97203  0.41644  1.0000
  C   C3217     1.0  0.51027  0.51180  0.43173  1.0000
  H   H2557     1.0  0.51506  0.69538  0.36566  1.0000
  H   H2558     1.0  0.40478  0.89407  0.19489  1.0000
  C   C3218     1.0  0.53673  0.75948  0.26508  1.0000
  C   C3219     1.0  0.47008  0.98262  0.33275  1.0000
  C   C3220     1.0  0.44142  0.98950  0.99373  1.0000
  C   C3221     1.0  0.42300  0.76577  0.04955  1.0000
  H   H2559     1.0  0.38500  0.97649  0.08438  1.0000
  C   C3222     1.0  0.44001  0.92225  0.00277  1.0000
  C   C3223     1.0  0.48755  0.64849  0.99432  1.0000
  C   C3224     1.0  0.46231  0.52369  0.03384  1.0000
  H   H2560     1.0  0.45101  0.87282  0.97212  1.0000
  H   H2561     1.0  0.39980  0.56889  0.31310  1.0000
  H   H2562     1.0  0.45997  0.51160  0.43886  1.0000
  H   H2563     1.0  0.55275  0.51828  0.43022  1.0000
  H   H2564     1.0  0.40648  0.60884  0.05235  1.0000
  C   C3225     1.0  0.40021  0.52375  0.35091  1.0000
  C   C3226     1.0  0.52638  0.52445  0.34913  1.0000
  C   C3227     1.0  0.46471  0.81982  0.11541  1.0000
  C   C3228     1.0  0.41098  0.86606  0.14745  1.0000
  H   H2565     1.0  0.47505  0.88759  0.01057  1.0000
  H   H2566     1.0  0.42549  0.95540  0.09404  1.0000
  C   C3229     1.0  0.54142  0.84275  0.17197  1.0000
  C   C3230     1.0  0.54029  0.83683  0.15186  1.0000
  C   C3231     1.0  0.55370  0.84325  0.13217  1.0000
  H   H2567     1.0  0.38818  0.55226  0.36237  1.0000
  H   H2568     1.0  0.41891  0.53871  0.25281  1.0000
  C   C3232     1.0  0.50923  0.87063  0.00329  1.0000
  H   H2569     1.0  0.51614  0.86334  0.01324  1.0000
  S   S437      1.0  0.56222  0.68672  0.44110  1.0000
  C   C3233     1.0  0.50159  0.80631  0.42523  1.0000
  C   C3234     1.0  0.45134  0.82788  0.11639  1.0000
  H   H2570     1.0  0.45726  0.94030  0.36205  1.0000
  C   C3235     1.0  0.56580  0.79464  0.32273  1.0000
  C   C3236     1.0  0.58180  0.89712  0.08978  1.0000
  C   C3237     1.0  0.44467  0.51864  0.00666  1.0000
  C   C3238     1.0  0.52279  0.81875  0.45333  1.0000
  C   C3239     1.0  0.39430  0.90982  0.08718  1.0000
  H   H2571     1.0  0.41329  0.95997  0.36127  1.0000
  C   C3240     1.0  0.46158  0.64176  0.97039  1.0000
  H   H2572     1.0  0.44557  0.53240  0.45315  1.0000
  H   H2573     1.0  0.53099  0.83773  0.18719  1.0000
  H   H2574     1.0  0.52897  0.82729  0.15144  1.0000
  H   H2575     1.0  0.55243  0.83875  0.11661  1.0000
  C   C3241     1.0  0.50352  0.92920  0.39090  1.0000
  H   H2576     1.0  0.50492  0.61736  0.25432  1.0000
  C   C3242     1.0  0.49492  0.87498  0.01445  1.0000
  C   C3243     1.0  0.43633  0.91462  0.98472  1.0000
  H   H2577     1.0  0.42382  0.88010  0.01429  1.0000
  H   H2578     1.0  0.54047  0.64181  0.17457  1.0000
  H   H2579     1.0  0.53206  0.71980  0.37713  1.0000
  C   C3244     1.0  0.46833  0.96905  0.43930  1.0000
  H   H2580     1.0  0.51386  0.93231  0.33296  1.0000
  H   H2581     1.0  0.52576  0.87222  0.97062  1.0000
  C   C3245     1.0  0.39155  0.97227  0.42572  1.0000
  C   C3246     1.0  0.57284  0.75562  0.37150  1.0000
  P   P108      1.0  0.38782  0.54615  0.05597  1.0000
  H   H2582     1.0  0.54545  0.94050  0.46038  1.0000
  C   C3247     1.0  0.50376  0.50301  0.45502  1.0000
  H   H2583     1.0  0.52966  0.54486  0.31921  1.0000
  C   C3248     1.0  0.45817  0.81010  0.08177  1.0000
  H   H2584     1.0  0.57393  0.72348  0.41550  1.0000
  C   C3249     1.0  0.52960  0.62014  0.97983  1.0000
  C   C3250     1.0  0.53707  0.71928  0.29152  1.0000
  Fe  Fe222     1.0  0.56961  0.49765  0.37766  1.0000
  C   C3251     1.0  0.41793  0.54971  0.07182  1.0000
  H   H2585     1.0  0.41533  0.80972  0.14164  1.0000
  C   C3252     1.0  0.56976  0.93772  0.36391  1.0000
  C   C3253     1.0  0.43061  0.54360  0.08059  1.0000
  S   S438      1.0  0.58045  0.84228  0.01085  1.0000
  C   C3254     1.0  0.57140  0.94996  0.37741  1.0000
  C   C3255     1.0  0.45989  0.98169  0.31664  1.0000
  C   C3256     1.0  0.42402  0.87211  0.03065  1.0000
  H   H2586     1.0  0.45346  0.88591  0.13048  1.0000
  C   C3257     1.0  0.58029  0.84314  0.42050  1.0000
  H   H2587     1.0  0.42394  0.91347  0.98051  1.0000
  H   H2588     1.0  0.44279  0.57271  0.33750  1.0000
  H   H2589     1.0  0.49290  0.54514  0.37905  1.0000
  C   C3258     1.0  0.39141  0.98549  0.99257  1.0000
  H   H2590     1.0  0.48119  0.92013  0.99817  1.0000
  H   H2591     1.0  0.51128  0.62373  0.04203  1.0000
  H   H2592     1.0  0.39943  0.86671  0.15872  1.0000
  H   H2593     1.0  0.47472  0.62315  0.01656  1.0000
  C   C3259     1.0  0.40381  0.56194  0.30034  1.0000
  C   C3260     1.0  0.42996  0.58687  0.35798  1.0000
  H   H2594     1.0  0.50214  0.78090  0.44247  1.0000
  C   C3261     1.0  0.51560  0.63540  0.00540  1.0000
  C   C3262     1.0  0.51672  0.62329  0.02454  1.0000
  P   P109      1.0  0.50472  0.65218  0.00909  1.0000
  C   C3263     1.0  0.49689  0.65064  0.03965  1.0000
  H   H2595     1.0  0.55482  0.86374  0.46461  1.0000
  H   H2596     1.0  0.39533  0.57719  0.27385  1.0000
  H   H2597     1.0  0.55842  0.79410  0.22052  1.0000
  C   C3264     1.0  0.38739  0.56273  0.01144  1.0000
  C   C3265     1.0  0.51035  0.54608  0.34773  1.0000
  C   C3266     1.0  0.42396  0.85071  0.07291  1.0000
  C   C3267     1.0  0.47933  0.64617  0.04999  1.0000
  C   C3268     1.0  0.47376  0.64432  0.07381  1.0000
  C   C3269     1.0  0.48558  0.64717  0.08745  1.0000
  C   C3270     1.0  0.50304  0.65215  0.07724  1.0000
  C   C3271     1.0  0.50869  0.65397  0.05342  1.0000
  C   C3272     1.0  0.54796  0.71242  0.33265  1.0000
  H   H2598     1.0  0.45366  0.50597  0.98061  1.0000
  H   H2599     1.0  0.57348  0.80482  0.32867  1.0000
  H   H2600     1.0  0.57472  0.95613  0.43781  1.0000
  C   C3273     1.0  0.49475  0.94206  0.39113  1.0000
  Fe  Fe223     1.0  0.57908  0.84089  0.34754  1.0000
  H   H2601     1.0  0.39147  0.83508  0.30163  1.0000
  H   H2602     1.0  0.53984  0.58826  0.14593  1.0000
  S   S439      1.0  0.57735  0.86521  0.35995  1.0000
  C   C3274     1.0  0.38969  0.79534  0.14449  1.0000
  H   H2603     1.0  0.55362  0.84016  0.42212  1.0000
  C   C3275     1.0  0.39306  0.80294  0.20162  1.0000
  C   C3276     1.0  0.39946  0.57525  0.37250  1.0000
  C   C3277     1.0  0.44139  0.87694  0.13145  1.0000
  C   C3278     1.0  0.52175  0.63341  0.98306  1.0000
  H   H2604     1.0  0.39498  0.82816  0.18114  1.0000
  H   H2605     1.0  0.46982  0.64398  0.03999  1.0000
  H   H2606     1.0  0.46022  0.64030  0.08186  1.0000
  H   H2607     1.0  0.48114  0.64529  0.10600  1.0000
  H   H2608     1.0  0.51218  0.65435  0.08788  1.0000
  H   H2609     1.0  0.52227  0.65766  0.04576  1.0000
  H   H2610     1.0  0.40675  0.93898  0.41100  1.0000
  C   C3279     1.0  0.56721  0.80613  0.40566  1.0000
  H   H2611     1.0  0.53641  0.59770  0.99636  1.0000
  C   C3280     1.0  0.39762  0.94595  0.41686  1.0000
  C   C3281     1.0  0.45911  0.53645  0.44530  1.0000
  S   S440      1.0  0.55769  0.52793  0.00671  1.0000
  H   H2612     1.0  0.58126  0.98728  0.41917  1.0000
  H   H2613     1.0  0.41770  0.53930  0.98064  1.0000
  C   C3282     1.0  0.45366  0.72222  0.10500  1.0000
  C   C3283     1.0  0.40519  0.82023  0.11311  1.0000
  C   C3284     1.0  0.47351  0.51523  0.02327  1.0000
  H   H2614     1.0  0.46622  0.72962  0.10516  1.0000
  H   H2615     1.0  0.41717  0.72900  0.18952  1.0000
  C   C3285     1.0  0.48261  0.86320  0.26843  1.0000
  C   C3286     1.0  0.49548  0.85486  0.26337  1.0000
  C   C3287     1.0  0.50966  0.85791  0.27309  1.0000
  C   C3288     1.0  0.51094  0.86916  0.28802  1.0000
  C   C3289     1.0  0.49816  0.87778  0.29301  1.0000
  C   C3290     1.0  0.48389  0.87459  0.28324  1.0000
  P   P110      1.0  0.49950  0.89160  0.31331  1.0000
  C   C3291     1.0  0.48948  0.87859  0.34218  1.0000
  C   C3292     1.0  0.52180  0.90119  0.31142  1.0000
  C   C3293     1.0  0.52825  0.90052  0.33143  1.0000
  C   C3294     1.0  0.48220  0.88609  0.35937  1.0000
  C   C3295     1.0  0.47442  0.87600  0.38169  1.0000
  C   C3296     1.0  0.47403  0.85846  0.38709  1.0000
  C   C3297     1.0  0.48167  0.85102  0.37026  1.0000
  C   C3298     1.0  0.48940  0.86104  0.34789  1.0000
  C   C3299     1.0  0.48861  0.90831  0.30636  1.0000
  C   C3300     1.0  0.47075  0.90450  0.31362  1.0000
  C   C3301     1.0  0.46214  0.91714  0.30810  1.0000
  C   C3302     1.0  0.47126  0.93376  0.29544  1.0000
  C   C3303     1.0  0.48902  0.93777  0.28835  1.0000
  C   C3304     1.0  0.49768  0.92512  0.29371  1.0000
  H   H2616     1.0  0.47163  0.86082  0.26085  1.0000
  H   H2617     1.0  0.49450  0.84599  0.25197  1.0000
  H   H2618     1.0  0.51967  0.85150  0.26914  1.0000
  H   H2619     1.0  0.52189  0.87098  0.29575  1.0000
  H   H2620     1.0  0.47372  0.88081  0.28698  1.0000
  H   H2621     1.0  0.52013  0.89392  0.34830  1.0000
  H   H2622     1.0  0.52786  0.76518  0.43960  1.0000
  H   H2623     1.0  0.48253  0.89971  0.35561  1.0000
  H   H2624     1.0  0.46879  0.88181  0.39492  1.0000
  H   H2625     1.0  0.46816  0.85075  0.40447  1.0000
  H   H2626     1.0  0.48191  0.83758  0.37466  1.0000
  H   H2627     1.0  0.49554  0.85510  0.33529  1.0000
  H   H2628     1.0  0.46343  0.89176  0.32367  1.0000
  H   H2629     1.0  0.44835  0.91409  0.31384  1.0000
  H   H2630     1.0  0.46454  0.94354  0.29120  1.0000
  H   H2631     1.0  0.49605  0.95072  0.27863  1.0000
  H   H2632     1.0  0.51140  0.92864  0.28797  1.0000
  C   C3305     1.0  0.50437  0.78046  0.36979  1.0000
  C   C3306     1.0  0.51495  0.79586  0.37165  1.0000
  C   C3307     1.0  0.52781  0.79526  0.38371  1.0000
  C   C3308     1.0  0.53009  0.77934  0.39390  1.0000
  C   C3309     1.0  0.51932  0.76378  0.39262  1.0000
  C   C3310     1.0  0.50648  0.76447  0.38028  1.0000
  P   P111      1.0  0.52257  0.74329  0.40609  1.0000
  C   C3311     1.0  0.51021  0.72574  0.39670  1.0000
  C   C3312     1.0  0.54493  0.74395  0.39798  1.0000
  C   C3313     1.0  0.55559  0.75538  0.37767  1.0000
  S   S441      1.0  0.38830  0.92658  0.98938  1.0000
  C   C3314     1.0  0.50785  0.72222  0.45058  1.0000
  C   C3315     1.0  0.56884  0.73249  0.40503  1.0000
  C   C3316     1.0  0.55167  0.73242  0.41150  1.0000
  C   C3317     1.0  0.51831  0.71661  0.38257  1.0000
  C   C3318     1.0  0.50869  0.70271  0.37601  1.0000
  C   C3319     1.0  0.49096  0.69748  0.38402  1.0000
  C   C3320     1.0  0.48278  0.70640  0.39826  1.0000
  C   C3321     1.0  0.49234  0.72058  0.40443  1.0000
  C   C3322     1.0  0.51623  0.73908  0.43738  1.0000
  H   H2633     1.0  0.53625  0.51922  0.34085  1.0000
  C   C3323     1.0  0.54837  0.77536  0.25309  1.0000
  H   H2634     1.0  0.49458  0.78093  0.36009  1.0000
  H   H2635     1.0  0.51338  0.80828  0.36354  1.0000
  H   H2636     1.0  0.53614  0.80717  0.38506  1.0000
  H   H2637     1.0  0.54057  0.77917  0.40232  1.0000
  H   H2638     1.0  0.49821  0.75282  0.37837  1.0000
  H   H2639     1.0  0.55075  0.76423  0.36664  1.0000
  C   C3324     1.0  0.39194  0.56627  0.98725  1.0000
  C   C3325     1.0  0.39791  0.58163  0.05352  1.0000
  C   C3326     1.0  0.42548  0.96891  0.09003  1.0000
  H   H2640     1.0  0.54371  0.72328  0.42699  1.0000
  C   C3327     1.0  0.38640  0.96239  0.05706  1.0000
  C   C3328     1.0  0.47741  0.60354  0.46570  1.0000
  H   H2641     1.0  0.48368  0.68612  0.37979  1.0000
  H   H2642     1.0  0.46906  0.70210  0.40484  1.0000
  H   H2643     1.0  0.45220  0.86470  0.10590  1.0000
  C   C3329     1.0  0.46913  0.96777  0.34953  1.0000
  H   H2644     1.0  0.56160  0.81670  0.40099  1.0000
  C   C3330     1.0  0.40866  0.93934  0.06570  1.0000
  Fe  Fe224     1.0  0.40657  0.90801  0.35539  1.0000
  Fe  Fe225     1.0  0.56363  0.70482  0.46610  1.0000
  C   C3331     1.0  0.53303  0.90886  0.28971  1.0000
  C   C3332     1.0  0.41025  0.97910  0.33374  1.0000
  H   H2645     1.0  0.46990  0.75622  0.13093  1.0000
  C   C3333     1.0  0.43006  0.98506  0.35841  1.0000
  H   H2646     1.0  0.44004  0.96553  0.30553  1.0000
  H   H2647     1.0  0.42661  0.72618  0.14977  1.0000
  C   C3334     1.0  0.41729  0.97342  0.35220  1.0000
  C   C3335     1.0  0.51033  0.50006  0.01512  1.0000
  H   H2648     1.0  0.52875  0.50222  0.03625  1.0000
  H   H2649     1.0  0.52845  0.90899  0.27399  1.0000
  H   H2650     1.0  0.42712  0.88689  0.15707  1.0000
  C   C3336     1.0  0.38443  0.79954  0.26676  1.0000
  C   C3337     1.0  0.53855  0.78049  0.31642  1.0000
  H   H2651     1.0  0.52113  0.50611  0.38158  1.0000
  C   C3338     1.0  0.43199  0.75854  0.06455  1.0000
  C   C3339     1.0  0.49183  0.89001  0.97737  1.0000
  C   C3340     1.0  0.50626  0.52494  0.38368  1.0000
  C   C3341     1.0  0.41022  0.85380  0.13392  1.0000
  C   C3342     1.0  0.52438  0.60988  0.02127  1.0000
  C   C3343     1.0  0.52785  0.75648  0.22944  1.0000
  H   H2652     1.0  0.50701  0.76750  0.28075  1.0000
  C   C3344     1.0  0.49753  0.64052  0.19407  1.0000
  C   C3345     1.0  0.42657  0.87751  0.14641  1.0000
  H   H2653     1.0  0.43961  0.53257  0.03316  1.0000
  H   H2654     1.0  0.51669  0.73843  0.26206  1.0000
  H   H2655     1.0  0.50375  0.83316  0.41072  1.0000
  H   H2656     1.0  0.43981  0.75029  0.05887  1.0000
  H   H2657     1.0  0.49010  0.49885  0.46211  1.0000
  H   H2658     1.0  0.42027  0.75798  0.19823  1.0000
  C   C3346     1.0  0.42397  0.93440  0.06078  1.0000
  C   C3347     1.0  0.56927  0.86189  0.15254  1.0000
  C   C3348     1.0  0.52803  0.61448  0.18053  1.0000
  H   H2659     1.0  0.51901  0.58720  0.18143  1.0000
  C   C3349     1.0  0.42516  0.85280  0.11935  1.0000
  S   S442      1.0  0.39168  0.92422  0.37206  1.0000
  C   C3350     1.0  0.52810  0.59939  0.17232  1.0000
  P   P112      1.0  0.49560  0.51559  0.41370  1.0000
  H   H2660     1.0  0.50492  0.92193  0.40705  1.0000
  H   H2661     1.0  0.49340  0.80154  0.41441  1.0000
  C   C3351     1.0  0.54012  0.63003  0.16854  1.0000
  C   C3352     1.0  0.55840  0.83325  0.45631  1.0000
  H   H2662     1.0  0.55898  0.92193  0.27136  1.0000
  H   H2663     1.0  0.44415  0.95729  0.46353  1.0000
  H   H2664     1.0  0.38608  0.56680  0.20043  1.0000
  C   C3353     1.0  0.42439  0.91727  0.06890  1.0000
  H   H2665     1.0  0.40991  0.53296  0.02320  1.0000
  Fe  Fe226     1.0  0.56547  0.50784  0.98895  1.0000
  C   C3354     1.0  0.53900  0.73196  0.30454  1.0000
  C   C3355     1.0  0.50479  0.66856  0.20331  1.0000
  P   P113      1.0  0.53331  0.75215  0.29614  1.0000
  C   C3356     1.0  0.52635  0.75021  0.25305  1.0000
  H   H2666     1.0  0.51509  0.60707  0.28878  1.0000
  H   H2667     1.0  0.43270  0.68054  0.10836  1.0000
  C   C3357     1.0  0.39387  0.55077  0.02473  1.0000
  H   H2668     1.0  0.51969  0.74936  0.22035  1.0000
  C   C3358     1.0  0.54969  0.78167  0.22951  1.0000
  C   C3359     1.0  0.45200  0.95720  0.40624  1.0000
  C   C3360     1.0  0.55545  0.98922  0.43005  1.0000
  C   C3361     1.0  0.40453  0.80847  0.13363  1.0000
  H   H2669     1.0  0.55614  0.78324  0.26187  1.0000
  H   H2670     1.0  0.40860  0.69412  0.10719  1.0000
  C   C3362     1.0  0.40648  0.55820  0.26106  1.0000
  S   S443      1.0  0.39484  0.96459  0.32444  1.0000
  H   H2671     1.0  0.52248  0.84422  0.43496  1.0000
  H   H2672     1.0  0.39561  0.77891  0.22075  1.0000
  H   H2673     1.0  0.43557  0.94384  0.05068  1.0000
  C   C3363     1.0  0.54434  0.72829  0.32531  1.0000
  C   C3364     1.0  0.38459  0.50540  0.38852  1.0000
  H   H2674     1.0  0.54565  0.73763  0.33599  1.0000
  H   H2675     1.0  0.56098  0.61587  0.12476  1.0000
  C   C3365     1.0  0.52695  0.55914  0.99235  1.0000
  H   H2676     1.0  0.44123  0.55273  0.08367  1.0000
  C   C3366     1.0  0.42027  0.96840  0.02542  1.0000
  C   C3367     1.0  0.40413  0.53820  0.06755  1.0000
  H   H2677     1.0  0.50337  0.68567  0.01917  1.0000
  C   C3368     1.0  0.44465  0.81796  0.08288  1.0000
  H   H2678     1.0  0.40481  0.56230  0.24369  1.0000
  H   H2679     1.0  0.43667  0.81667  0.07057  1.0000
  H   H2680     1.0  0.40309  0.78744  0.08435  1.0000
  C   C3369     1.0  0.54594  0.76860  0.30693  1.0000
  H   H2681     1.0  0.43037  0.92681  0.01279  1.0000
  H   H2682     1.0  0.56070  0.54582  0.37204  1.0000
  H   H2683     1.0  0.46089  0.60387  0.44189  1.0000
  H   H2684     1.0  0.44854  0.83405  0.13054  1.0000
  C   C3370     1.0  0.39382  0.92692  0.07908  1.0000
  S   S444      1.0  0.57919  0.55510  0.32401  1.0000
  H   H2685     1.0  0.48554  0.66097  0.18467  1.0000
  C   C3371     1.0  0.38987  0.82509  0.29196  1.0000
  C   C3372     1.0  0.43521  0.75396  0.13502  1.0000
  H   H2686     1.0  0.58116  0.76487  0.35632  1.0000
  C   C3373     1.0  0.53542  0.96274  0.45362  1.0000
  H   H2687     1.0  0.42396  0.76313  0.03247  1.0000
  H   H2688     1.0  0.38780  0.86352  0.20499  1.0000
  C   C3374     1.0  0.55194  0.63051  0.14849  1.0000
  H   H2689     1.0  0.45919  0.93059  0.02112  1.0000
  C   C3375     1.0  0.51047  0.92572  0.36997  1.0000
  C   C3376     1.0  0.51708  0.80086  0.45504  1.0000
  H   H2690     1.0  0.53289  0.72147  0.27561  1.0000
  H   H2691     1.0  0.44544  0.95218  0.39399  1.0000
  H   H2692     1.0  0.40980  0.89173  0.08858  1.0000
  C   C3377     1.0  0.47537  0.76335  0.11317  1.0000
  C   C3378     1.0  0.42616  0.96262  0.98699  1.0000
  C   C3379     1.0  0.54826  0.95404  0.45177  1.0000
  C   C3380     1.0  0.54594  0.69991  0.31962  1.0000
  C   C3381     1.0  0.49272  0.77203  0.10668  1.0000
  C   C3382     1.0  0.43169  0.77174  0.16285  1.0000
  H   H2693     1.0  0.47474  0.97329  0.45224  1.0000
  H   H2694     1.0  0.54028  0.77729  0.19948  1.0000
  C   C3383     1.0  0.43742  0.77029  0.14029  1.0000
  C   C3384     1.0  0.39087  0.81840  0.10337  1.0000
  C   C3385     1.0  0.41447  0.58776  0.37097  1.0000
  C   C3386     1.0  0.42382  0.71979  0.10519  1.0000
  H   H2695     1.0  0.43354  0.78443  0.16658  1.0000
  C   C3387     1.0  0.54552  0.90791  0.32979  1.0000
  C   C3388     1.0  0.50013  0.78112  0.08384  1.0000
  C   C3389     1.0  0.53907  0.51405  0.43727  1.0000
  C   C3390     1.0  0.53946  0.77223  0.21767  1.0000
  H   H2696     1.0  0.51357  0.78798  0.07889  1.0000
  C   C3391     1.0  0.49719  0.98953  0.36440  1.0000
  C   C3392     1.0  0.39693  0.59682  0.06087  1.0000
  S   S445      1.0  0.48955  0.60490  0.97536  1.0000
  H   H2697     1.0  0.55218  0.70969  0.34861  1.0000
  C   C3393     1.0  0.50739  0.82410  0.42317  1.0000
  C   C3394     1.0  0.52263  0.53890  0.33687  1.0000
  C   C3395     1.0  0.46521  0.76383  0.09686  1.0000
  H   H2698     1.0  0.39079  0.82729  0.08779  1.0000
  C   C3396     1.0  0.41747  0.95740  0.01029  1.0000
  H   H2699     1.0  0.53593  0.66707  0.97039  1.0000
  H   H2700     1.0  0.52277  0.95611  0.46396  1.0000
  C   C3397     1.0  0.55031  0.91625  0.28814  1.0000
  C   C3398     1.0  0.44789  0.52541  0.02554  1.0000
  C   C3399     1.0  0.41120  0.85957  0.07132  1.0000
  C   C3400     1.0  0.46472  0.90980  0.97716  1.0000
  C   C3401     1.0  0.57946  0.74419  0.38518  1.0000
  H   H2701     1.0  0.55049  0.90676  0.34521  1.0000
  H   H2702     1.0  0.56950  0.76123  0.29731  1.0000
  H   H2703     1.0  0.54114  0.96553  0.98061  1.0000
  C   C3402     1.0  0.42121  0.70205  0.10623  1.0000
  C   C3403     1.0  0.56344  0.77000  0.30511  1.0000
  H   H2704     1.0  0.54851  0.68751  0.32553  1.0000
  S   S446      1.0  0.56979  0.87931  0.00434  1.0000
  C   C3404     1.0  0.41731  0.54032  0.28837  1.0000
  C   C3405     1.0  0.56851  0.85547  0.13256  1.0000
  H   H2705     1.0  0.49610  0.78839  0.04964  1.0000
  C   C3406     1.0  0.55183  0.61547  0.14032  1.0000
  C   C3407     1.0  0.57331  0.78297  0.31307  1.0000
  S   S447      1.0  0.44269  0.91399  0.46142  1.0000
  C   C3408     1.0  0.43703  0.86378  0.03216  1.0000
  H   H2706     1.0  0.46555  0.77297  0.06068  1.0000
  H   H2707     1.0  0.56121  0.64256  0.13925  1.0000
  C   C3409     1.0  0.43479  0.69439  0.10674  1.0000
  C   C3410     1.0  0.41798  0.97543  0.07241  1.0000
  C   C3411     1.0  0.40476  0.54225  0.01345  1.0000
  C   C3412     1.0  0.43091  0.76193  0.08668  1.0000
  C   C3413     1.0  0.49024  0.78136  0.06738  1.0000
  H   H2708     1.0  0.55999  0.91230  0.05134  1.0000
  H   H2709     1.0  0.45165  0.61765  0.99596  1.0000
  C   C3414     1.0  0.56835  0.98043  0.42838  1.0000
  C   C3415     1.0  0.42028  0.77232  0.09374  1.0000
  C   C3416     1.0  0.53469  0.54757  0.00406  1.0000
  C   C3417     1.0  0.38590  0.56586  0.06489  1.0000
  H   H2710     1.0  0.42975  0.94679  0.43444  1.0000
  H   H2711     1.0  0.40566  0.78181  0.04500  1.0000
  H   H2712     1.0  0.53097  0.54343  0.02272  1.0000
  C   C3418     1.0  0.53249  0.50480  0.46021  1.0000
  C   C3419     1.0  0.43800  0.97874  0.97869  1.0000
  C   C3420     1.0  0.55587  0.85536  0.17227  1.0000
  H   H2713     1.0  0.49090  0.97860  0.41204  1.0000
  C   C3421     1.0  0.56477  0.90317  0.06207  1.0000
  H   H2714     1.0  0.44360  0.78194  0.12695  1.0000
  S   S448      1.0  0.58226  0.52401  0.38161  1.0000
  C   C3422     1.0  0.49971  0.94796  0.34939  1.0000
  H   H2715     1.0  0.40833  0.58215  0.03935  1.0000
  C   C3423     1.0  0.56817  0.78082  0.43396  1.0000
  H   H2716     1.0  0.38998  0.56937  0.14796  1.0000
  H   H2717     1.0  0.43620  0.91348  0.06503  1.0000
  C   C3424     1.0  0.46832  0.81118  0.09789  1.0000
  C   C3425     1.0  0.39021  0.51268  0.34031  1.0000
  H   H2718     1.0  0.58303  0.92375  0.34284  1.0000
  C   C3426     1.0  0.49287  0.95164  0.37043  1.0000
  H   H2719     1.0  0.50779  0.55761  0.33847  1.0000
  C   C3427     1.0  0.58136  0.77831  0.41785  1.0000
  H   H2720     1.0  0.51974  0.98050  0.35462  1.0000
  C   C3428     1.0  0.40330  0.96316  0.41825  1.0000
  H   H2721     1.0  0.46509  0.52941  0.04804  1.0000
  H   H2722     1.0  0.48934  0.94437  0.40754  1.0000
  C   C3429     1.0  0.45101  0.70450  0.10593  1.0000
  C   C3430     1.0  0.41270  0.77629  0.05659  1.0000
  H   H2723     1.0  0.43386  0.52051  0.99963  1.0000
  H   H2724     1.0  0.52034  0.71559  0.00064  1.0000
  C   C3431     1.0  0.44856  0.96602  0.31726  1.0000
  C   C3432     1.0  0.44294  0.95427  0.42916  1.0000
  H   H2725     1.0  0.41423  0.59800  0.38018  1.0000
  H   H2726     1.0  0.41307  0.72544  0.10545  1.0000
  H   H2727     1.0  0.40481  0.52824  0.38374  1.0000
  C   C3433     1.0  0.54053  0.70335  0.29905  1.0000
  C   C3434     1.0  0.40108  0.56660  0.27814  1.0000
  H   H2728     1.0  0.56008  0.95289  0.38632  1.0000
  C   C3435     1.0  0.39873  0.86721  0.21234  1.0000
  H   H2729     1.0  0.55184  0.88107  0.05112  1.0000
  H   H2730     1.0  0.48984  0.63190  0.18609  1.0000
  C   C3436     1.0  0.44767  0.95117  0.33370  1.0000
  H   H2731     1.0  0.49828  0.95512  0.33320  1.0000
  H   H2732     1.0  0.43866  0.93908  0.33447  1.0000
  P   P114      1.0  0.48197  0.96865  0.37080  1.0000
  H   H2733     1.0  0.58135  0.87514  0.24498  1.0000
  H   H2734     1.0  0.57810  0.82582  0.11989  1.0000
  C   C3437     1.0  0.47034  0.50834  0.00427  1.0000
  H   H2735     1.0  0.42332  0.95442  0.97517  1.0000
  C   C3438     1.0  0.54730  0.54142  0.99169  1.0000
  H   H2736     1.0  0.38639  0.53660  0.19889  1.0000
  H   H2737     1.0  0.42911  0.49557  0.46613  1.0000
  C   C3439     1.0  0.45808  0.95196  0.34953  1.0000
  H   H2738     1.0  0.50281  0.68137  0.20259  1.0000
  S   S449      1.0  0.56044  0.76734  0.46230  1.0000
  C   C3440     1.0  0.53088  0.60834  0.99893  1.0000
  H   H2739     1.0  0.57005  0.92107  0.30690  1.0000
  H   H2740     1.0  0.40846  0.94483  0.01644  1.0000
  Fe  Fe227     1.0  0.57842  0.84238  0.97374  1.0000
  C   C3441     1.0  0.54845  0.79338  0.32433  1.0000
  H   H2741     1.0  0.41685  0.96936  0.41327  1.0000
  H   H2742     1.0  0.41908  0.56345  0.06830  1.0000
  C   C3442     1.0  0.41556  0.56059  0.34844  1.0000
  C   C3443     1.0  0.57546  0.90890  0.07614  1.0000
  C   C3444     1.0  0.46715  0.49600  0.40318  1.0000
  C   C3445     1.0  0.51481  0.99145  0.35724  1.0000
  C   C3446     1.0  0.57784  0.87959  0.08893  1.0000
  S   S450      1.0  0.38349  0.88639  0.35951  1.0000
  C   C3447     1.0  0.56686  0.87389  0.07505  1.0000
  H   H2743     1.0  0.38587  0.98906  0.38592  1.0000
  P   P115      1.0  0.48517  0.49807  0.98976  1.0000
  C   C3448     1.0  0.38397  0.59639  0.07958  1.0000
  H   H2744     1.0  0.57898  0.92251  0.07633  1.0000
  C   C3449     1.0  0.47401  0.53653  0.88944  1.0000
  S   S451      1.0  0.48169  0.89536  0.47588  1.0000
  Fe  Fe228     1.0  0.54823  0.70948  0.51421  1.0000
  S   S452      1.0  0.56662  0.69463  0.50186  1.0000
  S   S453      1.0  0.52570  0.69534  0.54431  1.0000
  H   H2745     1.0  0.54113  0.50193  0.47099  1.0000
  S   S454      1.0  0.56429  0.71510  0.83776  1.0000
  Fe  Fe229     1.0  0.55054  0.73561  0.83010  1.0000
  S   S455      1.0  0.53779  0.73930  0.79913  1.0000
  Fe  Fe230     1.0  0.55433  0.71400  0.87520  1.0000
  S   S456      1.0  0.54734  0.68807  0.90108  1.0000
  S   S457      1.0  0.53896  0.73326  0.86784  1.0000
  Fe  Fe231     1.0  0.48694  0.70807  0.66532  1.0000
  S   S458      1.0  0.48832  0.68229  0.68489  1.0000
  S   S459      1.0  0.50628  0.72491  0.63315  1.0000
  Fe  Fe232     1.0  0.45690  0.70946  0.70124  1.0000
  S   S460      1.0  0.45571  0.68343  0.72308  1.0000
  S   S461      1.0  0.43931  0.72442  0.71674  1.0000
  Fe  Fe233     1.0  0.48426  0.69315  0.71676  1.0000
  S   S462      1.0  0.49694  0.68754  0.74723  1.0000
  Fe  Fe234     1.0  0.45955  0.67453  0.68964  1.0000
  S   S463      1.0  0.44749  0.64646  0.68753  1.0000
  S   S464      1.0  0.48512  0.71946  0.69676  1.0000
  S   S465      1.0  0.45855  0.70000  0.66818  1.0000
  Fe  Fe235     1.0  0.43481  0.84562  0.71992  1.0000
  S   S466      1.0  0.45261  0.84733  0.68610  1.0000
  S   S467      1.0  0.44346  0.84831  0.75335  1.0000
  Fe  Fe236     1.0  0.40254  0.83484  0.70093  1.0000
  S   S468      1.0  0.41808  0.83597  0.66591  1.0000
  Fe  Fe237     1.0  0.43448  0.82259  0.68491  1.0000
  S   S469      1.0  0.44561  0.80291  0.66921  1.0000
  Fe  Fe238     1.0  0.43506  0.86043  0.66961  1.0000
  S   S470      1.0  0.44402  0.88473  0.64062  1.0000
  S   S471      1.0  0.41777  0.81969  0.71986  1.0000
  S   S472      1.0  0.41837  0.86053  0.70354  1.0000
  Fe  Fe239     1.0  0.50818  0.91064  0.85394  1.0000
  S   S473      1.0  0.52106  0.92338  0.81670  1.0000
  S   S474      1.0  0.51532  0.88836  0.87488  1.0000
  Fe  Fe240     1.0  0.48342  0.93290  0.85588  1.0000
  S   S475      1.0  0.49417  0.94732  0.81882  1.0000
  S   S476      1.0  0.46409  0.94266  0.87776  1.0000
  Fe  Fe241     1.0  0.49432  0.92108  0.81133  1.0000
  S   S477      1.0  0.48703  0.91552  0.77790  1.0000
  Fe  Fe242     1.0  0.51978  0.94847  0.82715  1.0000
  S   S478      1.0  0.54186  0.97301  0.81479  1.0000
  S   S479      1.0  0.48148  0.90667  0.84806  1.0000
  S   S480      1.0  0.50901  0.93568  0.86458  1.0000
  H   H2746     1.0  0.38641  0.59631  0.57401  1.0000
  Fe  Fe243     1.0  0.48354  0.90199  0.51005  1.0000
  S   S481      1.0  0.46811  0.92140  0.50649  1.0000
  S   S482      1.0  0.47908  0.87940  0.54042  1.0000
  Fe  Fe244     1.0  0.49313  0.94111  0.48962  1.0000
  C   C3450     1.0  0.43063  0.55260  0.76744  1.0000
  H   H2747     1.0  0.50421  0.72956  0.50475  1.0000
  S   S483      1.0  0.50870  0.92199  0.49613  1.0000
  C   C3451     1.0  0.43404  0.97042  0.85945  1.0000
  Fe  Fe245     1.0  0.38756  0.50713  0.82142  1.0000
  C   C3452     1.0  0.46432  0.69536  0.57904  1.0000
  C   C3453     1.0  0.50869  0.55355  0.87328  1.0000
  Fe  Fe246     1.0  0.47626  0.60509  0.94621  1.0000
  H   H2748     1.0  0.47206  0.70777  0.56837  1.0000
  S   S484      1.0  0.47763  0.62984  0.92087  1.0000
  C   C3454     1.0  0.46878  0.68017  0.57590  1.0000
  C   C3455     1.0  0.49562  0.52861  0.95514  1.0000
  S   S485      1.0  0.48578  0.58382  0.93389  1.0000
  H   H2749     1.0  0.50186  0.57545  0.88412  1.0000
  C   C3456     1.0  0.52718  0.52299  0.93738  1.0000
  S   S486      1.0  0.40850  0.54655  0.87068  1.0000
  H   H2750     1.0  0.45331  0.81734  0.59640  1.0000
  C   C3457     1.0  0.48290  0.96575  0.95043  1.0000
  S   S487      1.0  0.49641  0.96856  0.49477  1.0000
  H   H2751     1.0  0.38979  0.80100  0.77673  1.0000
  H   H2752     1.0  0.43126  0.63717  0.58261  1.0000
  H   H2753     1.0  0.40662  0.78082  0.76523  1.0000
  C   C3458     1.0  0.41843  0.96870  0.87443  1.0000
  H   H2754     1.0  0.40662  0.61159  0.59852  1.0000
  H   H2755     1.0  0.44345  0.58838  0.55827  1.0000
  H   H2756     1.0  0.40263  0.78588  0.69239  1.0000
  H   H2757     1.0  0.43711  0.58517  0.63468  1.0000
  C   C3459     1.0  0.43660  0.54290  0.92927  1.0000
  C   C3460     1.0  0.42774  0.52780  0.92417  1.0000
  C   C3461     1.0  0.41901  0.52878  0.90629  1.0000
  C   C3462     1.0  0.41882  0.54492  0.89373  1.0000
  C   C3463     1.0  0.42712  0.56003  0.89941  1.0000
  C   C3464     1.0  0.43610  0.55906  0.91707  1.0000
  H   H2758     1.0  0.42781  0.51530  0.93383  1.0000
  H   H2759     1.0  0.41255  0.51705  0.90214  1.0000
  H   H2760     1.0  0.42679  0.57253  0.88997  1.0000
  H   H2761     1.0  0.44278  0.57078  0.92102  1.0000
  C   C3465     1.0  0.50281  0.53633  0.87203  1.0000
  C   C3466     1.0  0.56759  0.75312  0.60631  1.0000
  H   H2762     1.0  0.50967  0.98347  0.83084  1.0000
  H   H2763     1.0  0.53752  0.95331  0.58936  1.0000
  H   H2764     1.0  0.48642  0.97666  0.86568  1.0000
  C   C3467     1.0  0.43434  0.63679  0.75352  1.0000
  H   H2765     1.0  0.55190  0.69686  0.95164  1.0000
  C   C3468     1.0  0.53367  0.96480  0.58268  1.0000
  C   C3469     1.0  0.52893  0.97638  0.50333  1.0000
  H   H2766     1.0  0.56229  0.59900  0.96013  1.0000
  H   H2767     1.0  0.39008  0.81882  0.55875  1.0000
  H   H2768     1.0  0.52859  0.96289  0.50452  1.0000
  C   C3470     1.0  0.44482  0.57238  0.78754  1.0000
  H   H2769     1.0  0.45503  0.57635  0.79596  1.0000
  H   H2770     1.0  0.52804  0.97583  0.86169  1.0000
  C   C3471     1.0  0.44645  0.92836  0.89835  1.0000
  C   C3472     1.0  0.43422  0.93537  0.90968  1.0000
  C   C3473     1.0  0.42025  0.92478  0.92687  1.0000
  C   C3474     1.0  0.41814  0.90691  0.93254  1.0000
  C   C3475     1.0  0.43026  0.89971  0.92107  1.0000
  C   C3476     1.0  0.44450  0.91045  0.90405  1.0000
  H   H2771     1.0  0.43544  0.94907  0.90494  1.0000
  H   H2772     1.0  0.41110  0.93051  0.93564  1.0000
  H   H2773     1.0  0.42865  0.88586  0.92535  1.0000
  H   H2774     1.0  0.45386  0.90492  0.89527  1.0000
  C   C3477     1.0  0.45542  0.86724  0.75988  1.0000
  C   C3478     1.0  0.46198  0.88303  0.74350  1.0000
  C   C3479     1.0  0.47155  0.89759  0.74938  1.0000
  C   C3480     1.0  0.47466  0.89667  0.77170  1.0000
  C   C3481     1.0  0.46806  0.88089  0.78811  1.0000
  C   C3482     1.0  0.45856  0.86630  0.78219  1.0000
  H   H2775     1.0  0.45973  0.88401  0.72628  1.0000
  H   H2776     1.0  0.47657  0.90970  0.73656  1.0000
  H   H2777     1.0  0.47031  0.87993  0.80532  1.0000
  H   H2778     1.0  0.45357  0.85419  0.79503  1.0000
  C   C3483     1.0  0.45421  0.88327  0.61297  1.0000
  C   C3484     1.0  0.45760  0.89741  0.59403  1.0000
  C   C3485     1.0  0.46512  0.89635  0.57168  1.0000
  C   C3486     1.0  0.46947  0.88119  0.56816  1.0000
  C   C3487     1.0  0.46635  0.86717  0.58714  1.0000
  C   C3488     1.0  0.45869  0.86817  0.60948  1.0000
  H   H2779     1.0  0.45427  0.90918  0.59657  1.0000
  H   H2780     1.0  0.46768  0.90731  0.55724  1.0000
  H   H2781     1.0  0.46991  0.85551  0.58457  1.0000
  H   H2782     1.0  0.45631  0.85729  0.62400  1.0000
  C   C3489     1.0  0.43026  0.63586  0.67647  1.0000
  C   C3490     1.0  0.41966  0.64471  0.66641  1.0000
  C   C3491     1.0  0.40628  0.63575  0.65787  1.0000
  C   C3492     1.0  0.40303  0.61775  0.65950  1.0000
  C   C3493     1.0  0.41360  0.60888  0.66966  1.0000
  C   C3494     1.0  0.42710  0.61788  0.67798  1.0000
  H   H2783     1.0  0.42174  0.65847  0.66524  1.0000
  H   H2784     1.0  0.39821  0.64282  0.65018  1.0000
  H   H2785     1.0  0.41130  0.59506  0.67130  1.0000
  H   H2786     1.0  0.43508  0.61079  0.68580  1.0000
  C   C3495     1.0  0.44126  0.74630  0.70360  1.0000
  C   C3496     1.0  0.43325  0.75649  0.71613  1.0000
  C   C3497     1.0  0.43455  0.77392  0.70598  1.0000
  C   C3498     1.0  0.44373  0.78121  0.68312  1.0000
  C   C3499     1.0  0.45166  0.77098  0.67064  1.0000
  C   C3500     1.0  0.45047  0.75363  0.68082  1.0000
  H   H2787     1.0  0.42612  0.75089  0.73378  1.0000
  H   H2788     1.0  0.42853  0.78173  0.71579  1.0000
  H   H2789     1.0  0.45877  0.77652  0.65295  1.0000
  H   H2790     1.0  0.45660  0.74589  0.67098  1.0000
  C   C3501     1.0  0.49704  0.64606  0.91494  1.0000
  C   C3502     1.0  0.51078  0.64268  0.92384  1.0000
  C   C3503     1.0  0.52608  0.65568  0.91929  1.0000
  C   C3504     1.0  0.52790  0.67217  0.90561  1.0000
  C   C3505     1.0  0.51431  0.67552  0.89624  1.0000
  C   C3506     1.0  0.49890  0.66249  0.90096  1.0000
  H   H2791     1.0  0.50969  0.62998  0.93410  1.0000
  H   H2792     1.0  0.53662  0.65294  0.92633  1.0000
  H   H2793     1.0  0.51560  0.68819  0.88563  1.0000
  H   H2794     1.0  0.48838  0.66517  0.89382  1.0000
  C   C3507     1.0  0.52636  0.72450  0.78521  1.0000
  C   C3508     1.0  0.52293  0.73103  0.76379  1.0000
  C   C3509     1.0  0.51365  0.72005  0.75221  1.0000
  C   C3510     1.0  0.50789  0.70220  0.76171  1.0000
  C   C3511     1.0  0.51146  0.69559  0.78303  1.0000
  C   C3512     1.0  0.52052  0.70665  0.79479  1.0000
  H   H2795     1.0  0.52755  0.74470  0.75601  1.0000
  H   H2796     1.0  0.51110  0.72538  0.73584  1.0000
  H   H2797     1.0  0.50713  0.68182  0.79056  1.0000
  H   H2798     1.0  0.52300  0.70137  0.81124  1.0000
  C   C3513     1.0  0.52078  0.70373  0.56899  1.0000
  C   C3514     1.0  0.50827  0.69324  0.58834  1.0000
  C   C3515     1.0  0.50373  0.69954  0.60814  1.0000
  C   C3516     1.0  0.51170  0.71644  0.60870  1.0000
  C   C3517     1.0  0.52438  0.72688  0.58948  1.0000
  C   C3518     1.0  0.52895  0.72054  0.56969  1.0000
  H   H2799     1.0  0.50209  0.68014  0.58812  1.0000
  H   H2800     1.0  0.49401  0.69136  0.62288  1.0000
  H   H2801     1.0  0.53068  0.73992  0.58989  1.0000
  H   H2802     1.0  0.53866  0.72868  0.55495  1.0000
  C   C3519     1.0  0.54938  0.89604  0.92630  1.0000
  C   C3520     1.0  0.54280  0.87956  0.92299  1.0000
  C   C3521     1.0  0.53201  0.87741  0.90763  1.0000
  C   C3522     1.0  0.52789  0.89166  0.89524  1.0000
  C   C3523     1.0  0.53428  0.90811  0.89880  1.0000
  C   C3524     1.0  0.54502  0.91029  0.91425  1.0000
  H   H2803     1.0  0.54610  0.86848  0.93212  1.0000
  H   H2804     1.0  0.52696  0.86467  0.90515  1.0000
  H   H2805     1.0  0.53114  0.91919  0.88948  1.0000
  H   H2806     1.0  0.55010  0.92309  0.91670  1.0000
  H   H2807     1.0  0.54921  0.79625  0.47946  1.0000
  H   H2808     1.0  0.56114  0.77756  0.60443  1.0000
  H   H2809     1.0  0.42274  0.89750  0.61204  1.0000
  C   C3525     1.0  0.51495  0.98240  0.49878  1.0000
  C   C3526     1.0  0.54336  0.98789  0.50644  1.0000
  C   C3527     1.0  0.45005  0.61092  0.61420  1.0000
  C   C3528     1.0  0.47428  0.50712  0.84987  1.0000
  H   H2810     1.0  0.39694  0.90834  0.61321  1.0000
  H   H2811     1.0  0.56186  0.54223  0.95793  1.0000
  H   H2812     1.0  0.43447  0.96432  0.84489  1.0000
  H   H2813     1.0  0.43322  0.59266  0.79420  1.0000
  H   H2814     1.0  0.40660  0.56067  0.95743  1.0000
  H   H2815     1.0  0.43473  0.61191  0.91525  1.0000
  H   H2816     1.0  0.44762  0.50709  0.85972  1.0000
  C   C3529     1.0  0.43607  0.59641  0.62284  1.0000
  S   S488      1.0  0.39463  0.97382  0.95208  1.0000
  C   C3530     1.0  0.48529  0.51049  0.80866  1.0000
  C   C3531     1.0  0.41799  0.97601  0.89364  1.0000
  H   H2817     1.0  0.43544  0.54085  0.60819  1.0000
  C   C3532     1.0  0.46672  0.96046  0.94612  1.0000
  H   H2818     1.0  0.46102  0.98024  0.85185  1.0000
  P   P116      1.0  0.42795  0.57682  0.52212  1.0000
  C   C3533     1.0  0.41755  0.59276  0.53081  1.0000
  C   C3534     1.0  0.43168  0.56514  0.54835  1.0000
  C   C3535     1.0  0.42554  0.54704  0.55553  1.0000
  C   C3536     1.0  0.42706  0.53835  0.57696  1.0000
  C   C3537     1.0  0.43471  0.54761  0.59135  1.0000
  C   C3538     1.0  0.42253  0.61001  0.51799  1.0000
  H   H2819     1.0  0.53024  0.99002  0.96391  1.0000
  H   H2820     1.0  0.40017  0.89152  0.67577  1.0000
  H   H2821     1.0  0.56197  0.93116  0.84869  1.0000
  C   C3539     1.0  0.38998  0.57101  0.82247  1.0000
  C   C3540     1.0  0.56642  0.93899  0.86016  1.0000
  H   H2822     1.0  0.49994  0.66345  0.55849  1.0000
  C   C3541     1.0  0.39700  0.56171  0.51207  1.0000
  C   C3542     1.0  0.39068  0.88267  0.67029  1.0000
  H   H2823     1.0  0.41898  0.53962  0.54516  1.0000
  H   H2824     1.0  0.42167  0.52448  0.58283  1.0000
  C   C3543     1.0  0.56401  0.96183  0.88032  1.0000
  H   H2825     1.0  0.43249  0.61409  0.50226  1.0000
  H   H2826     1.0  0.54931  0.56380  0.93752  1.0000
  C   C3544     1.0  0.56338  0.83307  0.84247  1.0000
  C   C3545     1.0  0.50316  0.71892  0.47473  1.0000
  C   C3546     1.0  0.41941  0.60565  0.86789  1.0000
  S   S489      1.0  0.40916  0.50779  0.83957  1.0000
  H   H2827     1.0  0.40671  0.96137  0.87143  1.0000
  H   H2828     1.0  0.50347  0.55185  0.92810  1.0000
  H   H2829     1.0  0.44655  0.57279  0.59565  1.0000
  C   C3547     1.0  0.57149  0.74080  0.59409  1.0000
  C   C3548     1.0  0.53856  0.98709  0.85356  1.0000
  H   H2830     1.0  0.41633  0.53153  0.47832  1.0000
  C   C3549     1.0  0.57263  0.74412  0.57013  1.0000
  C   C3550     1.0  0.51899  0.87521  0.48585  1.0000
  C   C3551     1.0  0.40691  0.61893  0.79080  1.0000
  H   H2831     1.0  0.56488  0.69794  0.69382  1.0000
  H   H2832     1.0  0.53625  0.94693  0.93069  1.0000
  H   H2833     1.0  0.39540  0.62677  0.55137  1.0000
  C   C3552     1.0  0.41460  0.62224  0.52545  1.0000
  H   H2834     1.0  0.44225  0.95026  0.60291  1.0000
  H   H2835     1.0  0.40042  0.57468  0.56134  1.0000
  C   C3553     1.0  0.55237  0.69358  0.59974  1.0000
  H   H2836     1.0  0.49531  0.95600  0.89928  1.0000
  C   C3554     1.0  0.39224  0.58648  0.75178  1.0000
  H   H2837     1.0  0.44417  0.98313  0.96051  1.0000
  Fe  Fe247     1.0  0.46814  0.91644  0.47113  1.0000
  C   C3555     1.0  0.50021  0.51407  0.96600  1.0000
  P   P117      1.0  0.46639  0.64469  0.58855  1.0000
  C   C3556     1.0  0.42849  0.64530  0.77023  1.0000
  C   C3557     1.0  0.38449  0.71758  0.74431  1.0000
  H   H2838     1.0  0.56143  0.68815  0.79685  1.0000
  H   H2839     1.0  0.49901  0.97832  0.57132  1.0000
  Fe  Fe248     1.0  0.39547  0.52141  0.86281  1.0000
  H   H2840     1.0  0.53444  0.67358  0.59112  1.0000
  H   H2841     1.0  0.57423  0.79522  0.81670  1.0000
  C   C3558     1.0  0.41904  0.57648  0.77557  1.0000
  C   C3559     1.0  0.57366  0.55493  0.89608  1.0000
  H   H2842     1.0  0.46190  0.61057  0.61932  1.0000
  H   H2843     1.0  0.40868  0.86974  0.65586  1.0000
  C   C3560     1.0  0.54160  0.69432  0.96684  1.0000
  S   S490      1.0  0.56298  0.89937  0.94537  1.0000
  C   C3561     1.0  0.51126  0.64546  0.84869  1.0000
  C   C3562     1.0  0.51583  0.63595  0.86715  1.0000
  C   C3563     1.0  0.50661  0.61881  0.87719  1.0000
  C   C3564     1.0  0.49280  0.61116  0.86881  1.0000
  C   C3565     1.0  0.48814  0.62059  0.85019  1.0000
  C   C3566     1.0  0.49752  0.63784  0.84017  1.0000
  P   P118      1.0  0.46983  0.61060  0.84017  1.0000
  C   C3567     1.0  0.47119  0.58902  0.83804  1.0000
  C   C3568     1.0  0.45017  0.60968  0.85986  1.0000
  C   C3569     1.0  0.44999  0.61152  0.88256  1.0000
  C   C3570     1.0  0.43465  0.61044  0.89777  1.0000
  C   C3571     1.0  0.54733  0.98891  0.83078  1.0000
  C   C3572     1.0  0.43476  0.60685  0.85258  1.0000
  C   C3573     1.0  0.45652  0.57505  0.84427  1.0000
  C   C3574     1.0  0.45780  0.55853  0.84209  1.0000
  C   C3575     1.0  0.47369  0.55586  0.83351  1.0000
  C   C3576     1.0  0.48834  0.56965  0.82735  1.0000
  C   C3577     1.0  0.48712  0.58616  0.82965  1.0000
  C   C3578     1.0  0.46999  0.62311  0.81209  1.0000
  C   C3579     1.0  0.46584  0.63910  0.81033  1.0000
  C   C3580     1.0  0.46714  0.64953  0.78862  1.0000
  C   C3581     1.0  0.47214  0.64389  0.76857  1.0000
  C   C3582     1.0  0.47568  0.62774  0.77019  1.0000
  C   C3583     1.0  0.47472  0.61740  0.79185  1.0000
  H   H2844     1.0  0.51815  0.65891  0.84137  1.0000
  H   H2845     1.0  0.52614  0.64206  0.87419  1.0000
  H   H2846     1.0  0.50979  0.61173  0.89210  1.0000
  H   H2847     1.0  0.48541  0.59807  0.87732  1.0000
  H   H2848     1.0  0.49428  0.64560  0.82597  1.0000
  H   H2849     1.0  0.46160  0.61384  0.88870  1.0000
  H   H2850     1.0  0.43458  0.60528  0.83520  1.0000
  H   H2851     1.0  0.44403  0.57675  0.85070  1.0000
  H   H2852     1.0  0.44640  0.54780  0.84707  1.0000
  H   H2853     1.0  0.47469  0.54311  0.83175  1.0000
  H   H2854     1.0  0.50066  0.56749  0.82091  1.0000
  H   H2855     1.0  0.49860  0.59675  0.82471  1.0000
  H   H2856     1.0  0.46219  0.64378  0.82571  1.0000
  H   H2857     1.0  0.46471  0.66221  0.78719  1.0000
  H   H2858     1.0  0.47345  0.65217  0.75175  1.0000
  H   H2859     1.0  0.47950  0.62342  0.75457  1.0000
  H   H2860     1.0  0.47792  0.60515  0.79257  1.0000
  H   H2861     1.0  0.51986  0.50015  0.96493  1.0000
  H   H2862     1.0  0.57360  0.88796  0.77663  1.0000
  C   C3584     1.0  0.43343  0.82869  0.60947  1.0000
  C   C3585     1.0  0.42083  0.83685  0.60431  1.0000
  C   C3586     1.0  0.41848  0.84021  0.58165  1.0000
  H   H2863     1.0  0.54712  0.77460  0.75418  1.0000
  P   P119      1.0  0.40170  0.84997  0.57509  1.0000
  C   C3587     1.0  0.40015  0.86818  0.58783  1.0000
  C   C3588     1.0  0.46775  0.94694  0.59798  1.0000
  H   H2864     1.0  0.53947  0.52085  0.93068  1.0000
  C   C3589     1.0  0.48787  0.50879  0.83111  1.0000
  C   C3590     1.0  0.41364  0.87668  0.59619  1.0000
  C   C3591     1.0  0.41241  0.89113  0.60526  1.0000
  C   C3592     1.0  0.39784  0.89728  0.60589  1.0000
  H   H2865     1.0  0.49387  0.85799  0.49903  1.0000
  H   H2866     1.0  0.50403  0.50731  0.90610  1.0000
  C   C3593     1.0  0.54142  0.79666  0.49574  1.0000
  C   C3594     1.0  0.39049  0.73836  0.69980  1.0000
  C   C3595     1.0  0.41101  0.54000  0.48771  1.0000
  H   H2867     1.0  0.46451  0.58684  0.52366  1.0000
  H   H2868     1.0  0.43057  0.49706  0.50638  1.0000
  C   C3596     1.0  0.42133  0.55137  0.49739  1.0000
  C   C3597     1.0  0.49544  0.92189  0.94139  1.0000
  C   C3598     1.0  0.43923  0.57437  0.56302  1.0000
  H   H2869     1.0  0.43577  0.82665  0.62670  1.0000
  H   H2870     1.0  0.41308  0.84072  0.61788  1.0000
  H   H2871     1.0  0.43447  0.65887  0.76857  1.0000
  C   C3599     1.0  0.48941  0.93235  0.92535  1.0000
  H   H2872     1.0  0.49766  0.67232  0.96755  1.0000
  H   H2873     1.0  0.42519  0.87236  0.59549  1.0000
  C   C3600     1.0  0.54654  0.97260  0.96282  1.0000
  H   H2874     1.0  0.39860  0.76346  0.73779  1.0000
  C   C3601     1.0  0.41440  0.56235  0.50960  1.0000
  C   C3602     1.0  0.45298  0.94892  0.59072  1.0000
  C   C3603     1.0  0.47994  0.55373  0.89076  1.0000
  H   H2875     1.0  0.41033  0.64299  0.80183  1.0000
  C   C3604     1.0  0.44668  0.59220  0.47699  1.0000
  C   C3605     1.0  0.53611  0.87677  0.47613  1.0000
  H   H2876     1.0  0.43841  0.85308  0.94957  1.0000
  H   H2877     1.0  0.43456  0.58977  0.47197  1.0000
  C   C3606     1.0  0.51234  0.92744  0.94356  1.0000
  C   C3607     1.0  0.50686  0.54034  0.93580  1.0000
  C   C3608     1.0  0.47832  0.59873  0.48878  1.0000
  H   H2878     1.0  0.40746  0.60648  0.90238  1.0000
  S   S491      1.0  0.39601  0.51617  0.78238  1.0000
  C   C3609     1.0  0.38680  0.55049  0.50210  1.0000
  C   C3610     1.0  0.39790  0.86438  0.50795  1.0000
  H   H2879     1.0  0.55917  0.98151  0.57509  1.0000
  C   C3611     1.0  0.55792  0.77497  0.74071  1.0000
  C   C3612     1.0  0.56807  0.88651  0.79479  1.0000
  C   C3613     1.0  0.43243  0.58163  0.78638  1.0000
  C   C3614     1.0  0.41268  0.61035  0.77397  1.0000
  C   C3615     1.0  0.56069  0.78546  0.71861  1.0000
  H   H2880     1.0  0.55198  0.79326  0.71489  1.0000
  C   C3616     1.0  0.39655  0.60017  0.55841  1.0000
  C   C3617     1.0  0.39389  0.79125  0.63911  1.0000
  C   C3618     1.0  0.51596  0.74895  0.47312  1.0000
  C   C3619     1.0  0.54607  0.71665  0.64352  1.0000
  C   C3620     1.0  0.53634  0.71205  0.66628  1.0000
  C   C3621     1.0  0.54312  0.70534  0.68441  1.0000
  C   C3622     1.0  0.55969  0.70325  0.67974  1.0000
  H   H2881     1.0  0.40074  0.61401  0.73518  1.0000
  S   S492      1.0  0.40057  0.89373  0.95431  1.0000
  H   H2882     1.0  0.42965  0.54109  0.76053  1.0000
  H   H2883     1.0  0.51993  0.75910  0.48189  1.0000
  H   H2884     1.0  0.40805  0.55724  0.75809  1.0000
  H   H2885     1.0  0.40752  0.60314  0.86232  1.0000
  H   H2886     1.0  0.46713  0.51199  0.78733  1.0000
  C   C3623     1.0  0.44091  0.82635  0.56983  1.0000
  H   H2887     1.0  0.49567  0.51113  0.79440  1.0000
  C   C3624     1.0  0.51655  0.96370  0.58190  1.0000
  H   H2888     1.0  0.46826  0.94702  0.61573  1.0000
  C   C3625     1.0  0.52973  0.84578  0.47826  1.0000
  H   H2889     1.0  0.52532  0.96539  0.90280  1.0000
  C   C3626     1.0  0.45772  0.86516  0.91824  1.0000
  S   S493      1.0  0.44863  0.54106  0.95039  1.0000
  P   P120      1.0  0.48088  0.90242  0.96013  1.0000
  H   H2890     1.0  0.54056  0.72177  0.62969  1.0000
  H   H2891     1.0  0.52346  0.71362  0.66981  1.0000
  H   H2892     1.0  0.53543  0.70167  0.70203  1.0000
  C   C3627     1.0  0.52932  0.78354  0.53638  1.0000
  C   C3628     1.0  0.42837  0.83452  0.56456  1.0000
  H   H2893     1.0  0.52211  0.56019  0.86694  1.0000
  H   H2894     1.0  0.56701  0.75720  0.76303  1.0000
  C   C3629     1.0  0.40651  0.85932  0.54446  1.0000
  H   H2895     1.0  0.39625  0.61231  0.80527  1.0000
  C   C3630     1.0  0.44922  0.97945  0.86364  1.0000
  C   C3631     1.0  0.39547  0.71456  0.72587  1.0000
  C   C3632     1.0  0.50720  0.73228  0.48600  1.0000
  H   H2896     1.0  0.49702  0.70584  0.48479  1.0000
  C   C3633     1.0  0.57999  0.83469  0.82996  1.0000
  H   H2897     1.0  0.47641  0.92841  0.92338  1.0000
  H   H2898     1.0  0.56118  0.91083  0.78936  1.0000
  C   C3634     1.0  0.57534  0.86989  0.88289  1.0000
  C   C3635     1.0  0.40276  0.79330  0.65645  1.0000
  P   P121      1.0  0.57518  0.72102  0.60898  1.0000
  C   C3636     1.0  0.46925  0.51100  0.80466  1.0000
  H   H2899     1.0  0.45221  0.85652  0.90830  1.0000
  H   H2900     1.0  0.44472  0.64376  0.73876  1.0000
  H   H2901     1.0  0.55409  0.98314  0.51007  1.0000
  H   H2902     1.0  0.40955  0.58554  0.62401  1.0000
  C   C3637     1.0  0.45825  0.50795  0.84567  1.0000
  C   C3638     1.0  0.56072  0.99104  0.91711  1.0000
  H   H2903     1.0  0.42994  0.67807  0.62440  1.0000
  C   C3639     1.0  0.38457  0.88921  0.59695  1.0000
  H   H2904     1.0  0.39963  0.79849  0.62146  1.0000
  C   C3640     1.0  0.44745  0.58731  0.50026  1.0000
  C   C3641     1.0  0.44345  0.82345  0.59228  1.0000
  C   C3642     1.0  0.51484  0.49941  0.46916  1.0000
  C   C3643     1.0  0.43283  0.62581  0.59361  1.0000
  C   C3644     1.0  0.55462  0.80415  0.83591  1.0000
  H   H2905     1.0  0.41545  0.80186  0.65222  1.0000
  H   H2906     1.0  0.57037  0.76170  0.54023  1.0000
  C   C3645     1.0  0.44851  0.62576  0.59957  1.0000
  C   C3646     1.0  0.42679  0.87750  0.50976  1.0000
  H   H2907     1.0  0.47106  0.56045  0.89802  1.0000
  H   H2908     1.0  0.53791  0.81579  0.85544  1.0000
  C   C3647     1.0  0.52254  0.53746  0.92677  1.0000
  C   C3648     1.0  0.44358  0.78608  0.77158  1.0000
  C   C3649     1.0  0.44543  0.80015  0.75334  1.0000
  C   C3650     1.0  0.45880  0.80393  0.73382  1.0000
  C   C3651     1.0  0.47061  0.79394  0.73277  1.0000
  C   C3652     1.0  0.46893  0.77981  0.75111  1.0000
  C   C3653     1.0  0.45528  0.77594  0.77051  1.0000
  P   P122      1.0  0.48569  0.76872  0.75168  1.0000
  C   C3654     1.0  0.50104  0.77999  0.76543  1.0000
  C   C3655     1.0  0.47676  0.74642  0.76757  1.0000
  C   C3656     1.0  0.47447  0.74196  0.79173  1.0000
  C   C3657     1.0  0.46912  0.72457  0.80370  1.0000
  C   C3658     1.0  0.46572  0.71152  0.79172  1.0000
  C   C3659     1.0  0.46731  0.71587  0.76784  1.0000
  C   C3660     1.0  0.47269  0.73322  0.75581  1.0000
  C   C3661     1.0  0.50353  0.79786  0.76391  1.0000
  C   C3662     1.0  0.51504  0.80649  0.77504  1.0000
  C   C3663     1.0  0.52418  0.79739  0.78775  1.0000
  C   C3664     1.0  0.52191  0.77967  0.78919  1.0000
  C   C3665     1.0  0.51052  0.77103  0.77793  1.0000
  C   C3666     1.0  0.49621  0.76834  0.72286  1.0000
  C   C3667     1.0  0.48705  0.76739  0.70547  1.0000
  C   C3668     1.0  0.49488  0.76571  0.68374  1.0000
  C   C3669     1.0  0.51179  0.76465  0.67930  1.0000
  C   C3670     1.0  0.52099  0.76551  0.69653  1.0000
  C   C3671     1.0  0.51324  0.76739  0.71821  1.0000
  H   H2909     1.0  0.43331  0.78331  0.78680  1.0000
  H   H2910     1.0  0.43672  0.80837  0.75450  1.0000
  H   H2911     1.0  0.46020  0.81488  0.71970  1.0000
  H   H2912     1.0  0.48127  0.79759  0.71788  1.0000
  H   H2913     1.0  0.45387  0.76540  0.78509  1.0000
  H   H2914     1.0  0.47716  0.75188  0.80130  1.0000
  H   H2915     1.0  0.46789  0.72121  0.82224  1.0000
  H   H2916     1.0  0.46191  0.69804  0.80089  1.0000
  H   H2917     1.0  0.46463  0.70579  0.75849  1.0000
  H   H2918     1.0  0.47377  0.73617  0.73733  1.0000
  H   H2919     1.0  0.49652  0.80520  0.75434  1.0000
  H   H2920     1.0  0.51671  0.82024  0.77400  1.0000
  H   H2921     1.0  0.53294  0.80405  0.79658  1.0000
  H   H2922     1.0  0.52892  0.77254  0.79915  1.0000
  H   H2923     1.0  0.50901  0.75729  0.77934  1.0000
  H   H2924     1.0  0.47371  0.76746  0.70886  1.0000
  H   H2925     1.0  0.48766  0.76478  0.67051  1.0000
  H   H2926     1.0  0.51761  0.76282  0.66263  1.0000
  H   H2927     1.0  0.53400  0.76439  0.69323  1.0000
  H   H2928     1.0  0.52042  0.76767  0.73148  1.0000
  C   C3672     1.0  0.43317  0.98490  0.89808  1.0000
  C   C3673     1.0  0.42664  0.61934  0.75553  1.0000
  C   C3674     1.0  0.47899  0.91459  0.65773  1.0000
  C   C3675     1.0  0.48953  0.92225  0.67071  1.0000
  C   C3676     1.0  0.50350  0.93636  0.65973  1.0000
  C   C3677     1.0  0.50701  0.94276  0.63575  1.0000
  C   C3678     1.0  0.49653  0.93506  0.62250  1.0000
  C   C3679     1.0  0.48243  0.92100  0.63380  1.0000
  P   P123      1.0  0.50099  0.94288  0.59132  1.0000
  C   C3680     1.0  0.56720  0.97741  0.92646  1.0000
  C   C3681     1.0  0.50937  0.92791  0.57668  1.0000
  C   C3682     1.0  0.50375  0.90996  0.58603  1.0000
  C   C3683     1.0  0.50958  0.89849  0.57391  1.0000
  C   C3684     1.0  0.52110  0.90479  0.55242  1.0000
  C   C3685     1.0  0.52692  0.92262  0.54307  1.0000
  C   C3686     1.0  0.52096  0.93413  0.55500  1.0000
  C   C3687     1.0  0.56156  0.70762  0.76737  1.0000
  H   H2929     1.0  0.42654  0.83643  0.54709  1.0000
  C   C3688     1.0  0.41486  0.63634  0.78894  1.0000
  C   C3689     1.0  0.48168  0.94502  0.58234  1.0000
  C   C3690     1.0  0.39847  0.72494  0.70367  1.0000
  H   H2930     1.0  0.49063  0.60123  0.49323  1.0000
  H   H2931     1.0  0.57599  0.63049  0.94542  1.0000
  C   C3691     1.0  0.46613  0.94796  0.55195  1.0000
  C   C3692     1.0  0.48082  0.94573  0.55920  1.0000
  H   H2932     1.0  0.46810  0.90365  0.66619  1.0000
  H   H2933     1.0  0.48684  0.91726  0.68929  1.0000
  H   H2934     1.0  0.51159  0.94235  0.66989  1.0000
  H   H2935     1.0  0.51781  0.95377  0.62782  1.0000
  H   H2936     1.0  0.47398  0.91497  0.62415  1.0000
  H   H2937     1.0  0.49452  0.90463  0.60233  1.0000
  H   H2938     1.0  0.50473  0.88465  0.58091  1.0000
  H   H2939     1.0  0.52521  0.89581  0.54283  1.0000
  H   H2940     1.0  0.53570  0.92752  0.52628  1.0000
  H   H2941     1.0  0.52515  0.94785  0.54699  1.0000
  C   C3693     1.0  0.38836  0.52678  0.74074  1.0000
  C   C3694     1.0  0.39541  0.78414  0.67930  1.0000
  Fe  Fe249     1.0  0.49773  0.58239  0.96443  1.0000
  H   H2942     1.0  0.56447  0.72939  0.73964  1.0000
  H   H2943     1.0  0.38569  0.53073  0.48272  1.0000
  C   C3695     1.0  0.55995  0.96817  0.94946  1.0000
  H   H2944     1.0  0.46572  0.94880  0.53395  1.0000
  H   H2945     1.0  0.49156  0.94487  0.54656  1.0000
  C   C3696     1.0  0.45216  0.94941  0.56771  1.0000
  H   H2946     1.0  0.43470  0.55160  0.49536  1.0000
  C   C3697     1.0  0.40452  0.58795  0.55114  1.0000
  S   S494      1.0  0.52519  0.58176  0.95345  1.0000
  H   H2947     1.0  0.51483  0.88658  0.48865  1.0000
  S   S495      1.0  0.57323  0.75725  0.82962  1.0000
  S   S496      1.0  0.54376  0.71790  0.47881  1.0000
  C   C3698     1.0  0.39319  0.60140  0.73506  1.0000
  H   H2948     1.0  0.44704  0.70643  0.59914  1.0000
  H   H2949     1.0  0.45324  0.55042  0.77943  1.0000
  H   H2950     1.0  0.43127  0.61300  0.74227  1.0000
  C   C3699     1.0  0.53921  0.78333  0.51511  1.0000
  H   H2951     1.0  0.44964  0.96585  0.92479  1.0000
  C   C3700     1.0  0.56946  0.70786  0.65694  1.0000
  P   P124      1.0  0.55888  0.85023  0.85592  1.0000
  C   C3701     1.0  0.56033  0.86962  0.83457  1.0000
  C   C3702     1.0  0.53758  0.84300  0.87423  1.0000
  C   C3703     1.0  0.53483  0.83370  0.89712  1.0000
  C   C3704     1.0  0.51836  0.82785  0.91134  1.0000
  C   C3705     1.0  0.50453  0.83140  0.90282  1.0000
  C   C3706     1.0  0.50714  0.84060  0.88000  1.0000
  C   C3707     1.0  0.52357  0.84622  0.86565  1.0000
  C   C3708     1.0  0.55339  0.88268  0.84144  1.0000
  C   C3709     1.0  0.55377  0.89747  0.82525  1.0000
  H   H2952     1.0  0.39338  0.74644  0.68252  1.0000
  C   C3710     1.0  0.44896  0.98672  0.88308  1.0000
  H   H2953     1.0  0.39117  0.56974  0.52165  1.0000
  H   H2954     1.0  0.54515  0.77279  0.51347  1.0000
  C   C3711     1.0  0.48548  0.52754  0.88066  1.0000
  H   H2955     1.0  0.57278  0.86172  0.80492  1.0000
  C   C3712     1.0  0.54035  0.98634  0.95341  1.0000
  H   H2956     1.0  0.56685  0.75100  0.62472  1.0000
  C   C3713     1.0  0.44386  0.55781  0.77817  1.0000
  H   H2957     1.0  0.54544  0.83115  0.90407  1.0000
  H   H2958     1.0  0.51643  0.82082  0.92906  1.0000
  H   H2959     1.0  0.49182  0.82722  0.91397  1.0000
  H   H2960     1.0  0.49651  0.84370  0.87348  1.0000
  H   H2961     1.0  0.52530  0.85335  0.84804  1.0000
  H   H2962     1.0  0.54721  0.88123  0.85929  1.0000
  H   H2963     1.0  0.54800  0.90722  0.83087  1.0000
  C   C3714     1.0  0.38619  0.57915  0.80218  1.0000
  C   C3715     1.0  0.56537  0.77133  0.57106  1.0000
  C   C3716     1.0  0.53358  0.81027  0.49729  1.0000
  C   C3717     1.0  0.52389  0.81053  0.51886  1.0000
  H   H2964     1.0  0.48000  0.68123  0.56275  1.0000
  C   C3718     1.0  0.56918  0.76501  0.74567  1.0000
  C   C3719     1.0  0.49146  0.64764  0.51241  1.0000
  C   C3720     1.0  0.52310  0.94299  0.92947  1.0000
  H   H2965     1.0  0.44880  0.82242  0.55644  1.0000
  C   C3721     1.0  0.46342  0.59060  0.50601  1.0000
  C   C3722     1.0  0.56567  0.78783  0.90558  1.0000
  C   C3723     1.0  0.47262  0.87828  0.90775  1.0000
  H   H2966     1.0  0.41845  0.63552  0.51549  1.0000
  H   H2967     1.0  0.55504  0.67134  0.55718  1.0000
  H   H2968     1.0  0.40748  0.72294  0.68960  1.0000
  C   C3724     1.0  0.46234  0.96994  0.92741  1.0000
  C   C3725     1.0  0.47420  0.98465  0.91266  1.0000
  C   C3726     1.0  0.49281  0.65599  0.54864  1.0000
  C   C3727     1.0  0.51697  0.95334  0.91364  1.0000
  C   C3728     1.0  0.56111  0.89942  0.80191  1.0000
  H   H2969     1.0  0.48632  0.95830  0.96481  1.0000
  H   H2970     1.0  0.51418  0.79741  0.55484  1.0000
  C   C3729     1.0  0.47178  0.88809  0.94347  1.0000
  C   C3730     1.0  0.39552  0.87029  0.65919  1.0000
  H   H2971     1.0  0.56289  0.78303  0.56217  1.0000
  C   C3731     1.0  0.47496  0.63709  0.52235  1.0000
  H   H2972     1.0  0.39306  0.51459  0.56999  1.0000
  H   H2973     1.0  0.44082  0.95113  0.56198  1.0000
  H   H2974     1.0  0.51180  0.52988  0.86434  1.0000
  C   C3732     1.0  0.55070  0.81768  0.84535  1.0000
  C   C3733     1.0  0.56272  0.71466  0.63860  1.0000
  H   H2975     1.0  0.54802  0.95388  0.85761  1.0000
  C   C3734     1.0  0.41892  0.61127  0.60227  1.0000
  H   H2976     1.0  0.51022  0.88870  0.94758  1.0000
  C   C3735     1.0  0.50011  0.94807  0.91168  1.0000
  C   C3736     1.0  0.47626  0.64543  0.55886  1.0000
  H   H2977     1.0  0.48347  0.53110  0.96156  1.0000
  C   C3737     1.0  0.54748  0.68147  0.58688  1.0000
  H   H2978     1.0  0.40203  0.53141  0.73407  1.0000
  H   H2979     1.0  0.51801  0.82096  0.52091  1.0000
  S   S497      1.0  0.57731  0.73385  0.87780  1.0000
  H   H2980     1.0  0.54894  0.70127  0.76589  1.0000
  H   H2981     1.0  0.46574  0.50747  0.92675  1.0000
  H   H2982     1.0  0.45753  0.94900  0.95719  1.0000
  C   C3738     1.0  0.46734  0.63604  0.54544  1.0000
  S   S498      1.0  0.56793  0.50771  0.95143  1.0000
  C   C3739     1.0  0.48129  0.64377  0.60703  1.0000
  C   C3740     1.0  0.47806  0.64858  0.62828  1.0000
  C   C3741     1.0  0.48960  0.64824  0.64254  1.0000
  C   C3742     1.0  0.50443  0.64303  0.63581  1.0000
  C   C3743     1.0  0.50758  0.63784  0.61496  1.0000
  C   C3744     1.0  0.49597  0.63803  0.60071  1.0000
  C   C3745     1.0  0.45929  0.66406  0.59029  1.0000
  C   C3746     1.0  0.45028  0.69461  0.59642  1.0000
  C   C3747     1.0  0.44066  0.67865  0.61066  1.0000
  C   C3748     1.0  0.44517  0.66345  0.60771  1.0000
  H   H2983     1.0  0.46805  0.62983  0.51207  1.0000
  H   H2984     1.0  0.45452  0.62789  0.55262  1.0000
  H   H2985     1.0  0.46661  0.65257  0.63404  1.0000
  H   H2986     1.0  0.48691  0.65199  0.65889  1.0000
  H   H2987     1.0  0.51340  0.64290  0.64686  1.0000
  H   H2988     1.0  0.51901  0.63365  0.60983  1.0000
  H   H2989     1.0  0.49853  0.63372  0.58482  1.0000
  C   C3749     1.0  0.39393  0.85679  0.53165  1.0000
  C   C3750     1.0  0.56764  0.87162  0.81100  1.0000
  H   H2990     1.0  0.43796  0.65131  0.61956  1.0000
  C   C3751     1.0  0.47967  0.88973  0.92026  1.0000
  H   H2991     1.0  0.49736  0.64857  0.49448  1.0000
  C   C3752     1.0  0.49482  0.98036  0.93577  1.0000
  C   C3753     1.0  0.56865  0.70015  0.78468  1.0000
  C   C3754     1.0  0.50717  0.85906  0.49161  1.0000
  Fe  Fe250     1.0  0.56267  0.75352  0.86817  1.0000
  C   C3755     1.0  0.50036  0.65710  0.52556  1.0000
  H   H2992     1.0  0.40588  0.97442  0.90539  1.0000
  H   H2993     1.0  0.55786  0.97184  0.88372  1.0000
  C   C3756     1.0  0.42054  0.59657  0.61681  1.0000
  C   C3757     1.0  0.42288  0.87000  0.53343  1.0000
  C   C3758     1.0  0.44088  0.56560  0.58432  1.0000
  C   C3759     1.0  0.41824  0.56184  0.76616  1.0000
  C   C3760     1.0  0.40162  0.61732  0.54564  1.0000
  H   H2994     1.0  0.43268  0.87253  0.54309  1.0000
  C   C3761     1.0  0.41935  0.60745  0.89049  1.0000
  H   H2995     1.0  0.54290  0.69479  0.61385  1.0000
  H   H2996     1.0  0.52753  0.77313  0.55138  1.0000
  C   C3762     1.0  0.39534  0.78156  0.75874  1.0000
  H   H2997     1.0  0.49132  0.89970  0.91174  1.0000
  C   C3763     1.0  0.52176  0.79719  0.53828  1.0000
  S   S499      1.0  0.55814  0.77601  0.88533  1.0000
  H   H2998     1.0  0.46047  0.53034  0.89523  1.0000
  H   H2999     1.0  0.47874  0.87958  0.88985  1.0000
  H   H3000     1.0  0.51312  0.66544  0.51789  1.0000
  C   C3764     1.0  0.55846  0.95175  0.86536  1.0000
  S   S500      1.0  0.56880  0.73344  0.51152  1.0000
  H   H3001     1.0  0.57815  0.57775  0.95098  1.0000
  C   C3765     1.0  0.56956  0.75931  0.55870  1.0000
  C   C3766     1.0  0.49728  0.56220  0.88282  1.0000
  C   C3767     1.0  0.57116  0.80590  0.82346  1.0000
  C   C3768     1.0  0.55908  0.68022  0.56769  1.0000
  H   H3002     1.0  0.43254  0.99007  0.91343  1.0000
  C   C3769     1.0  0.57700  0.80809  0.93683  1.0000
  H   H3003     1.0  0.55462  0.81730  0.93595  1.0000
  C   C3770     1.0  0.56909  0.70431  0.59377  1.0000
  H   H3004     1.0  0.38724  0.52476  0.94918  1.0000
  H   H3005     1.0  0.50747  0.98431  0.93881  1.0000
  C   C3771     1.0  0.39068  0.77168  0.74315  1.0000
  H   H3006     1.0  0.54480  0.79984  0.90857  1.0000
  H   H3007     1.0  0.43946  0.88571  0.50130  1.0000
  C   C3772     1.0  0.41434  0.87466  0.49700  1.0000
  H   H3008     1.0  0.38822  0.86244  0.49804  1.0000
  C   C3773     1.0  0.45710  0.87452  0.95412  1.0000
  H   H3009     1.0  0.54448  0.72131  0.96670  1.0000
  C   C3774     1.0  0.49055  0.98970  0.91685  1.0000
  C   C3775     1.0  0.51199  0.97873  0.57265  1.0000
  H   H3010     1.0  0.53126  0.54670  0.91195  1.0000
  C   C3776     1.0  0.56195  0.80892  0.92959  1.0000
  P   P125      1.0  0.40252  0.58795  0.77572  1.0000
  C   C3777     1.0  0.54152  0.86212  0.47245  1.0000
  H   H3011     1.0  0.50045  0.50855  0.83379  1.0000
  C   C3778     1.0  0.39377  0.53961  0.49003  1.0000
  C   C3779     1.0  0.55642  0.79898  0.91404  1.0000
  C   C3780     1.0  0.51245  0.84443  0.48754  1.0000
  C   C3781     1.0  0.38401  0.60034  0.71786  1.0000
  C   C3782     1.0  0.57355  0.85478  0.87432  1.0000
  H   H3012     1.0  0.44567  0.90321  0.95751  1.0000
  H   H3013     1.0  0.56231  0.55704  0.89075  1.0000
  C   C3783     1.0  0.54496  0.55900  0.95605  1.0000
  C   C3784     1.0  0.57488  0.78609  0.70149  1.0000
  H   H3014     1.0  0.56465  0.95765  0.95726  1.0000
  Fe  Fe251     1.0  0.56567  0.74111  0.47481  1.0000
  C   C3785     1.0  0.45581  0.50992  0.82309  1.0000
  C   C3786     1.0  0.54596  0.98069  0.57462  1.0000
  C   C3787     1.0  0.57520  0.60345  0.94943  1.0000
  C   C3788     1.0  0.56443  0.76825  0.59484  1.0000
  C   C3789     1.0  0.44999  0.86323  0.94146  1.0000
  H   H3015     1.0  0.44342  0.51022  0.81984  1.0000
  H   H3016     1.0  0.40210  0.70451  0.72884  1.0000
  H   H3017     1.0  0.54500  0.79200  0.83911  1.0000
  P   P126      1.0  0.53621  0.82702  0.47156  1.0000
  C   C3790     1.0  0.50588  0.88506  0.96627  1.0000
  H   H3018     1.0  0.51739  0.91984  0.95591  1.0000
  C   C3791     1.0  0.49219  0.99007  0.85676  1.0000
  H   H3019     1.0  0.40264  0.56935  0.82261  1.0000
  H   H3020     1.0  0.57083  0.52987  0.88781  1.0000
  H   H3021     1.0  0.54511  0.88944  0.47106  1.0000
  H   H3022     1.0  0.50303  0.83209  0.49145  1.0000
  H   H3023     1.0  0.38478  0.61189  0.70509  1.0000
  H   H3024     1.0  0.56815  0.87913  0.87863  1.0000
  C   C3792     1.0  0.57569  0.69092  0.56152  1.0000
  C   C3793     1.0  0.58069  0.70295  0.57442  1.0000
  C   C3794     1.0  0.38584  0.87489  0.58762  1.0000
  C   C3795     1.0  0.57042  0.72361  0.75251  1.0000
  P   P127      1.0  0.47792  0.50537  0.87869  1.0000
  C   C3796     1.0  0.58323  0.76527  0.72847  1.0000
  C   C3797     1.0  0.57848  0.53968  0.89432  1.0000
  S   S501      1.0  0.38545  0.60714  0.64904  1.0000
  C   C3798     1.0  0.50513  0.49761  0.89618  1.0000
  H   H3025     1.0  0.38713  0.84853  0.64480  1.0000
  H   H3026     1.0  0.57725  0.93680  0.93569  1.0000
  H   H3027     1.0  0.57720  0.79447  0.68448  1.0000
  H   H3028     1.0  0.58072  0.83042  0.87644  1.0000
  H   H3029     1.0  0.57579  0.73501  0.56016  1.0000
  H   H3030     1.0  0.57975  0.57934  0.90538  1.0000
  C   C3799     1.0  0.55211  0.54683  0.96759  1.0000
  C   C3800     1.0  0.58252  0.84269  0.88147  1.0000
  C   C3801     1.0  0.45656  0.49734  0.92281  1.0000
  C   C3802     1.0  0.51610  0.51137  0.95698  1.0000
  H   H3031     1.0  0.56794  0.82836  0.48738  1.0000
  Fe  Fe252     1.0  0.46264  0.56559  0.95857  1.0000
  H   H3032     1.0  0.41740  0.88065  0.47866  1.0000
  H   H3033     1.0  0.58218  0.70601  0.65380  1.0000
  C   C3803     1.0  0.57759  0.95916  0.89031  1.0000
  C   C3804     1.0  0.58061  0.78681  0.91309  1.0000
  C   C3805     1.0  0.58005  0.93633  0.86984  1.0000
  H   H3034     1.0  0.53394  0.61849  0.96251  1.0000
  H   H3035     1.0  0.47495  0.66613  0.94673  1.0000
  Fe  Fe253     1.0  0.56878  0.87691  0.96812  1.0000
  C   C3806     1.0  0.38585  0.79289  0.76526  1.0000
  C   C3807     1.0  0.58291  0.62116  0.94113  1.0000
  C   C3808     1.0  0.45913  0.49353  0.90088  1.0000
  H   H3036     1.0  0.45186  0.63895  0.96075  1.0000
  C   C3809     1.0  0.53237  0.56515  0.96834  1.0000
  C   C3810     1.0  0.47460  0.65711  0.96251  1.0000
  C   C3811     1.0  0.49384  0.49362  0.88195  1.0000
  H   H3037     1.0  0.41054  0.99283  0.47102  1.0000
  C   C3812     1.0  0.57118  0.83240  0.46869  1.0000
  H   H3038     1.0  0.51978  0.64164  0.96814  1.0000
  S   S502      1.0  0.45168  0.58692  0.96819  1.0000
  Fe  Fe254     1.0  0.74979  0.15188  0.37419  1.0000
  S   S503      1.0  0.73183  0.16603  0.36051  1.0000
  H   H3039     1.0  0.77790  0.45889  0.13402  1.0000
  Fe  Fe255     1.0  0.73625  0.12040  0.35300  1.0000
  S   S504      1.0  0.71705  0.13244  0.33888  1.0000
  S   S505      1.0  0.74135  0.09463  0.34738  1.0000
  Fe  Fe256     1.0  0.73828  0.15685  0.32781  1.0000
  S   S506      1.0  0.74455  0.17501  0.29231  1.0000
  Fe  Fe257     1.0  0.71210  0.14044  0.37280  1.0000
  S   S507      1.0  0.68666  0.14258  0.39178  1.0000
  S   S508      1.0  0.75802  0.14461  0.34025  1.0000
  S   S509      1.0  0.72952  0.12643  0.38811  1.0000
  C   C3813     1.0  0.65348  0.16891  0.44550  1.0000
  S   S510      1.0  0.68672  0.11451  0.99583  1.0000
  C   C3814     1.0  0.62820  0.14506  0.46104  1.0000
  Fe  Fe258     1.0  0.69758  0.14019  0.00357  1.0000
  S   S511      1.0  0.68571  0.14555  0.03795  1.0000
  S   S512      1.0  0.72491  0.14149  0.98812  1.0000
  Fe  Fe259     1.0  0.70906  0.01420  0.29278  1.0000
  S   S513      1.0  0.73400  0.01521  0.26944  1.0000
  S   S514      1.0  0.70169  0.03863  0.30030  1.0000
  C   C3815     1.0  0.61177  0.10419  0.40149  1.0000
  S   S515      1.0  0.68729  0.02433  0.06067  1.0000
  C   C3816     1.0  0.65492  0.14454  0.29471  1.0000
  Fe  Fe260     1.0  0.59032  0.43950  0.20354  1.0000
  C   C3817     1.0  0.61948  0.13258  0.09233  1.0000
  C   C3818     1.0  0.76528  0.99534  0.14859  1.0000
  C   C3819     1.0  0.59396  0.12307  0.17744  1.0000
  H   H3040     1.0  0.60240  0.13164  0.16179  1.0000
  Fe  Fe261     1.0  0.71130  0.19365  0.13458  1.0000
  S   S516      1.0  0.70342  0.21853  0.12718  1.0000
  S   S517      1.0  0.72354  0.18109  0.10736  1.0000
  Fe  Fe262     1.0  0.70104  0.18963  0.18680  1.0000
  S   S518      1.0  0.69206  0.21399  0.18310  1.0000
  S   S519      1.0  0.69602  0.17072  0.22166  1.0000
  Fe  Fe263     1.0  0.67996  0.20465  0.15546  1.0000
  S   S520      1.0  0.65314  0.20769  0.15448  1.0000
  Fe  Fe264     1.0  0.71630  0.22611  0.15532  1.0000
  S   S521      1.0  0.73181  0.25471  0.14864  1.0000
  S   S522      1.0  0.68718  0.17940  0.16119  1.0000
  S   S523      1.0  0.72596  0.20205  0.16066  1.0000
  C   C3820     1.0  0.78307  0.10555  0.38061  1.0000
  Fe  Fe265     1.0  0.62230  0.43828  0.16948  1.0000
  S   S524      1.0  0.60965  0.45960  0.17471  1.0000
  S   S525      1.0  0.65128  0.44439  0.15540  1.0000
  H   H3041     1.0  0.69578  0.02806  0.10738  1.0000
  H   H3042     1.0  0.60903  0.12493  0.28901  1.0000
  H   H3043     1.0  0.78206  0.00403  0.04139  1.0000
  C   C3821     1.0  0.77449  0.25957  0.11587  1.0000
  C   C3822     1.0  0.65120  0.19056  0.07453  1.0000
  S   S526      1.0  0.60713  0.42997  0.14402  1.0000
  S   S527      1.0  0.60378  0.41833  0.19971  1.0000
  C   C3823     1.0  0.78064  0.19561  0.39438  1.0000
  S   S528      1.0  0.71363  0.46669  0.20248  1.0000
  C   C3824     1.0  0.72222  0.14522  0.45143  1.0000
  C   C3825     1.0  0.66836  0.45109  0.16875  1.0000
  C   C3826     1.0  0.66587  0.44909  0.19270  1.0000
  C   C3827     1.0  0.67991  0.45381  0.20263  1.0000
  C   C3828     1.0  0.69657  0.46084  0.18878  1.0000
  C   C3829     1.0  0.69910  0.46280  0.16481  1.0000
  C   C3830     1.0  0.68507  0.45788  0.15490  1.0000
  H   H3044     1.0  0.65315  0.44363  0.20358  1.0000
  H   H3045     1.0  0.71185  0.46804  0.15395  1.0000
  H   H3046     1.0  0.68719  0.45929  0.13638  1.0000
  C   C3831     1.0  0.64289  0.13339  0.31413  1.0000
  C   C3832     1.0  0.77536  0.03970  0.97988  1.0000
  C   C3833     1.0  0.59268  0.38764  0.10742  1.0000
  C   C3834     1.0  0.60373  0.46122  0.25543  1.0000
  C   C3835     1.0  0.65045  0.14855  0.27351  1.0000
  C   C3836     1.0  0.61784  0.46041  0.02016  1.0000
  H   H3047     1.0  0.61222  0.45699  0.24314  1.0000
  C   C3837     1.0  0.65910  0.47682  0.25329  1.0000
  C   C3838     1.0  0.68008  0.19717  0.98072  1.0000
  C   C3839     1.0  0.63330  0.14174  0.98663  1.0000
  C   C3840     1.0  0.77150  0.28949  0.17772  1.0000
  C   C3841     1.0  0.60388  0.40835  0.07046  1.0000
  C   C3842     1.0  0.61843  0.46611  0.99671  1.0000
  C   C3843     1.0  0.77918  0.24285  0.24526  1.0000
  C   C3844     1.0  0.69269  0.16646  0.33323  1.0000
  H   H3048     1.0  0.75610  0.01536  0.39663  1.0000
  C   C3845     1.0  0.64295  0.44680  0.26027  1.0000
  C   C3846     1.0  0.64649  0.21435  0.09157  1.0000
  H   H3049     1.0  0.66683  0.18165  0.37044  1.0000
  H   H3050     1.0  0.62790  0.09874  0.27308  1.0000
  C   C3847     1.0  0.67065  0.17344  0.35935  1.0000
  C   C3848     1.0  0.70909  0.14345  0.43967  1.0000
  H   H3051     1.0  0.76673  0.40793  0.21918  1.0000
  C   C3849     1.0  0.65743  0.11028  0.34311  1.0000
  C   C3850     1.0  0.76504  0.29655  0.15934  1.0000
  C   C3851     1.0  0.75294  0.28575  0.15076  1.0000
  C   C3852     1.0  0.74701  0.26776  0.16040  1.0000
  C   C3853     1.0  0.75355  0.26073  0.17867  1.0000
  C   C3854     1.0  0.60557  0.14357  0.98037  1.0000
  H   H3052     1.0  0.76935  0.31031  0.15173  1.0000
  H   H3053     1.0  0.74809  0.29137  0.13653  1.0000
  H   H3054     1.0  0.74925  0.24697  0.18611  1.0000
  H   H3055     1.0  0.66789  0.48411  0.28264  1.0000
  C   C3855     1.0  0.60865  0.17081  0.13703  1.0000
  C   C3856     1.0  0.62468  0.16713  0.13527  1.0000
  C   C3857     1.0  0.63832  0.17810  0.14092  1.0000
  C   C3858     1.0  0.63614  0.19302  0.14815  1.0000
  C   C3859     1.0  0.62008  0.19664  0.15008  1.0000
  C   C3860     1.0  0.60637  0.18555  0.14469  1.0000
  H   H3056     1.0  0.62664  0.15583  0.12927  1.0000
  H   H3057     1.0  0.65065  0.17532  0.13908  1.0000
  H   H3058     1.0  0.61827  0.20817  0.15560  1.0000
  H   H3059     1.0  0.61361  0.45697  0.98695  1.0000
  C   C3861     1.0  0.76571  0.27150  0.18715  1.0000
  C   C3862     1.0  0.67751  0.09480  0.35563  1.0000
  H   H3060     1.0  0.75692  0.01307  0.33193  1.0000
  C   C3863     1.0  0.69673  0.15626  0.05617  1.0000
  C   C3864     1.0  0.71440  0.15923  0.05358  1.0000
  C   C3865     1.0  0.72243  0.16685  0.06934  1.0000
  C   C3866     1.0  0.71300  0.17211  0.08738  1.0000
  C   C3867     1.0  0.69542  0.16963  0.08950  1.0000
  C   C3868     1.0  0.68731  0.16147  0.07423  1.0000
  H   H3061     1.0  0.72184  0.15547  0.03962  1.0000
  H   H3062     1.0  0.73605  0.16881  0.06743  1.0000
  H   H3063     1.0  0.68808  0.17384  0.10308  1.0000
  H   H3064     1.0  0.67365  0.15918  0.07638  1.0000
  C   C3869     1.0  0.71305  0.07360  0.00295  1.0000
  C   C3870     1.0  0.71770  0.05810  0.00166  1.0000
  C   C3871     1.0  0.70969  0.04276  0.01888  1.0000
  C   C3872     1.0  0.69693  0.04282  0.03758  1.0000
  C   C3873     1.0  0.69200  0.05823  0.03855  1.0000
  C   C3874     1.0  0.70003  0.07353  0.02141  1.0000
  H   H3065     1.0  0.72754  0.05795  0.98724  1.0000
  H   H3066     1.0  0.71347  0.03096  0.01776  1.0000
  H   H3067     1.0  0.68192  0.05837  0.05268  1.0000
  H   H3068     1.0  0.69639  0.08535  0.02277  1.0000
  C   C3875     1.0  0.64474  0.09461  0.43326  1.0000
  C   C3876     1.0  0.66061  0.09287  0.42235  1.0000
  C   C3877     1.0  0.67374  0.10755  0.41006  1.0000
  C   C3878     1.0  0.67087  0.12399  0.40813  1.0000
  C   C3879     1.0  0.65509  0.12577  0.41928  1.0000
  C   C3880     1.0  0.64209  0.11111  0.43206  1.0000
  H   H3069     1.0  0.66275  0.08012  0.42338  1.0000
  H   H3070     1.0  0.68597  0.10613  0.40180  1.0000
  C   C3881     1.0  0.76915  0.03398  0.06880  1.0000
  H   H3071     1.0  0.64857  0.46497  0.22782  1.0000
  C   C3882     1.0  0.71001  0.17196  0.24065  1.0000
  C   C3883     1.0  0.70526  0.15986  0.26200  1.0000
  C   C3884     1.0  0.71591  0.16034  0.27774  1.0000
  C   C3885     1.0  0.73138  0.17304  0.27233  1.0000
  C   C3886     1.0  0.73639  0.18480  0.25068  1.0000
  C   C3887     1.0  0.72574  0.18432  0.23487  1.0000
  H   H3072     1.0  0.69329  0.15007  0.26635  1.0000
  H   H3073     1.0  0.71217  0.15094  0.29405  1.0000
  H   H3074     1.0  0.74848  0.19443  0.24628  1.0000
  H   H3075     1.0  0.72963  0.19359  0.21837  1.0000
  C   C3888     1.0  0.73051  0.07963  0.33333  1.0000
  C   C3889     1.0  0.71658  0.08218  0.32420  1.0000
  C   C3890     1.0  0.70813  0.06971  0.31374  1.0000
  C   C3891     1.0  0.71337  0.05447  0.31244  1.0000
  C   C3892     1.0  0.72742  0.05204  0.32132  1.0000
  C   C3893     1.0  0.73598  0.06459  0.33154  1.0000
  H   H3076     1.0  0.71223  0.09366  0.32542  1.0000
  H   H3077     1.0  0.69735  0.07180  0.30682  1.0000
  H   H3078     1.0  0.73146  0.04032  0.32071  1.0000
  H   H3079     1.0  0.74678  0.06248  0.33841  1.0000
  S   S529      1.0  0.69369  0.15489  0.97061  1.0000
  C   C3894     1.0  0.63394  0.48432  0.08230  1.0000
  H   H3080     1.0  0.59175  0.04142  0.39789  1.0000
  C   C3895     1.0  0.77305  0.22801  0.20833  1.0000
  H   H3081     1.0  0.65482  0.45531  0.30891  1.0000
  C   C3896     1.0  0.69880  0.11335  0.24293  1.0000
  C   C3897     1.0  0.59675  0.48854  0.46190  1.0000
  S   S530      1.0  0.78254  0.38266  0.20397  1.0000
  H   H3082     1.0  0.62704  0.22589  0.08155  1.0000
  H   H3083     1.0  0.74886  0.47872  0.09028  1.0000
  C   C3898     1.0  0.60682  0.03461  0.44652  1.0000
  H   H3084     1.0  0.61522  0.18042  0.20099  1.0000
  C   C3899     1.0  0.77227  0.04830  0.28915  1.0000
  C   C3900     1.0  0.62643  0.12598  0.31169  1.0000
  H   H3085     1.0  0.72160  0.12611  0.06245  1.0000
  S   S531      1.0  0.59380  0.48895  0.37352  1.0000
  C   C3901     1.0  0.65880  0.15859  0.35818  1.0000
  H   H3086     1.0  0.78287  0.16342  0.43722  1.0000
  Fe  Fe266     1.0  0.71829  0.99706  0.25230  1.0000
  C   C3902     1.0  0.75937  0.22947  0.22464  1.0000
  C   C3903     1.0  0.62191  0.13026  0.29055  1.0000
  C   C3904     1.0  0.58474  0.46403  0.09728  1.0000
  H   H3087     1.0  0.58758  0.40369  0.97679  1.0000
  H   H3088     1.0  0.75722  0.35681  0.17972  1.0000
  H   H3089     1.0  0.77003  0.00797  0.13681  1.0000
  C   C3905     1.0  0.65015  0.46315  0.24538  1.0000
  C   C3906     1.0  0.66237  0.16033  0.45933  1.0000
  H   H3090     1.0  0.62030  0.48241  0.08418  1.0000
  C   C3907     1.0  0.73705  0.13025  0.21163  1.0000
  C   C3908     1.0  0.59208  0.03547  0.41525  1.0000
  C   C3909     1.0  0.58912  0.10566  0.21626  1.0000
  H   H3091     1.0  0.76781  0.01388  0.00173  1.0000
  H   H3092     1.0  0.76453  0.11741  0.30310  1.0000
  C   C3910     1.0  0.60613  0.04193  0.42402  1.0000
  C   C3911     1.0  0.64458  0.44397  0.28317  1.0000
  H   H3093     1.0  0.72981  0.02507  0.39401  1.0000
  C   C3912     1.0  0.70127  0.20036  0.27403  1.0000
  C   C3913     1.0  0.69434  0.20617  0.25556  1.0000
  C   C3914     1.0  0.70250  0.22211  0.24016  1.0000
  C   C3915     1.0  0.71766  0.23219  0.24307  1.0000
  C   C3916     1.0  0.72480  0.22637  0.26147  1.0000
  C   C3917     1.0  0.71651  0.21034  0.27692  1.0000
  P   P128      1.0  0.74483  0.23925  0.26424  1.0000
  H   H3094     1.0  0.70808  0.02648  0.14204  1.0000
  C   C3918     1.0  0.68089  0.15158  0.33211  1.0000
  H   H3095     1.0  0.65288  0.13851  0.41795  1.0000
  H   H3096     1.0  0.69684  0.18863  0.34823  1.0000
  C   C3919     1.0  0.77813  0.43869  0.11553  1.0000
  H   H3097     1.0  0.64270  0.06409  0.10250  1.0000
  S   S532      1.0  0.72453  0.00309  0.21248  1.0000
  C   C3920     1.0  0.78094  0.12043  0.38802  1.0000
  H   H3098     1.0  0.75905  0.21146  0.28322  1.0000
  C   C3921     1.0  0.68211  0.11259  0.25387  1.0000
  H   H3099     1.0  0.58417  0.36675  0.03906  1.0000
  C   C3922     1.0  0.60673  0.39528  0.11532  1.0000
  H   H3100     1.0  0.76962  0.27296  0.24007  1.0000
  C   C3923     1.0  0.65720  0.08190  0.33538  1.0000
  H   H3101     1.0  0.62344  0.47220  0.27164  1.0000
  H   H3102     1.0  0.65984  0.15727  0.25869  1.0000
  C   C3924     1.0  0.66129  0.00332  0.33353  1.0000
  H   H3103     1.0  0.73542  0.14839  0.44185  1.0000
  H   H3104     1.0  0.69515  0.18783  0.28565  1.0000
  H   H3105     1.0  0.68288  0.19813  0.25284  1.0000
  H   H3106     1.0  0.69723  0.22656  0.22571  1.0000
  H   H3107     1.0  0.72401  0.24437  0.23067  1.0000
  H   H3108     1.0  0.72194  0.20526  0.29087  1.0000
  H   H3109     1.0  0.73679  0.13976  0.11882  1.0000
  C   C3925     1.0  0.77309  0.05650  0.97778  1.0000
  H   H3110     1.0  0.78175  0.24862  0.25949  1.0000
  H   H3111     1.0  0.72700  0.16599  0.18443  1.0000
  C   C3926     1.0  0.77841  0.06631  0.28275  1.0000
  H   H3112     1.0  0.61893  0.14338  0.35013  1.0000
  C   C3927     1.0  0.73924  0.12249  0.03424  1.0000
  H   H3113     1.0  0.71648  0.05319  0.25045  1.0000
  H   H3114     1.0  0.68808  0.11441  0.30769  1.0000
  H   H3115     1.0  0.77195  0.43963  0.20488  1.0000
  S   S533      1.0  0.62843  0.07579  0.44729  1.0000
  C   C3928     1.0  0.72685  0.28228  0.26573  1.0000
  S   S534      1.0  0.76623  0.15993  0.39966  1.0000
  Fe  Fe267     1.0  0.59337  0.44989  0.15131  1.0000
  H   H3116     1.0  0.66197  0.47175  0.11236  1.0000
  H   H3117     1.0  0.63978  0.09657  0.32602  1.0000
  C   C3929     1.0  0.77665  0.41460  0.20397  1.0000
  H   H3118     1.0  0.72465  0.48846  0.24088  1.0000
  H   H3119     1.0  0.66531  0.11255  0.28562  1.0000
  H   H3120     1.0  0.67206  0.01273  0.33576  1.0000
  C   C3930     1.0  0.62296  0.15004  0.08129  1.0000
  H   H3121     1.0  0.69406  0.05605  0.08585  1.0000
  C   C3931     1.0  0.76731  0.99942  0.23815  1.0000
  C   C3932     1.0  0.74091  0.29585  0.25325  1.0000
  H   H3122     1.0  0.62991  0.11253  0.44050  1.0000
  H   H3123     1.0  0.67934  0.10267  0.12352  1.0000
  C   C3933     1.0  0.69095  0.11396  0.28967  1.0000
  S   S535      1.0  0.72451  0.09297  0.98213  1.0000
  H   H3124     1.0  0.74294  0.15888  0.15005  1.0000
  C   C3934     1.0  0.62344  0.47226  0.03303  1.0000
  H   H3125     1.0  0.69261  0.11070  0.05436  1.0000
  C   C3935     1.0  0.59224  0.09291  0.97854  1.0000
  H   H3126     1.0  0.75433  0.32745  0.10287  1.0000
  C   C3936     1.0  0.75649  0.02899  0.39416  1.0000
  H   H3127     1.0  0.59415  0.18861  0.14603  1.0000
  C   C3937     1.0  0.72815  0.26517  0.26917  1.0000
  C   C3938     1.0  0.75914  0.99430  0.17210  1.0000
  C   C3939     1.0  0.76789  0.33060  0.10216  1.0000
  C   C3940     1.0  0.74172  0.03445  0.39261  1.0000
  C   C3941     1.0  0.63640  0.16127  0.44635  1.0000
  H   H3128     1.0  0.70166  0.11320  0.22475  1.0000
  H   H3129     1.0  0.64589  0.15566  0.36837  1.0000
  H   H3130     1.0  0.75765  0.24438  0.09949  1.0000
  C   C3942     1.0  0.61556  0.13705  0.99432  1.0000
  C   C3943     1.0  0.73730  0.09597  0.23972  1.0000
  C   C3944     1.0  0.74813  0.23180  0.29274  1.0000
  P   P129      1.0  0.73351  0.11694  0.24045  1.0000
  S   S536      1.0  0.75955  0.48341  0.15470  1.0000
  C   C3945     1.0  0.76762  0.25614  0.09721  1.0000
  C   C3946     1.0  0.75512  0.00480  0.09119  1.0000
  S   S537      1.0  0.59221  0.15685  0.12868  1.0000
  H   H3131     1.0  0.67039  0.06755  0.11345  1.0000
  C   C3947     1.0  0.76840  0.00890  0.33292  1.0000
  C   C3948     1.0  0.66543  0.20304  0.97985  1.0000
  H   H3132     1.0  0.74620  0.05089  0.23993  1.0000
  C   C3949     1.0  0.59116  0.39408  0.08490  1.0000
  C   C3950     1.0  0.73239  0.15492  0.18649  1.0000
  C   C3951     1.0  0.77736  0.31894  0.09680  1.0000
  C   C3952     1.0  0.77028  0.42179  0.11492  1.0000
  C   C3953     1.0  0.71180  0.11488  0.25517  1.0000
  H   H3133     1.0  0.74364  0.05019  0.02807  1.0000
  C   C3954     1.0  0.76232  0.12508  0.28781  1.0000
  C   C3955     1.0  0.63403  0.12680  0.05716  1.0000
  C   C3956     1.0  0.63738  0.14426  0.04609  1.0000
  C   C3957     1.0  0.63197  0.15603  0.05814  1.0000
  H   H3134     1.0  0.77224  0.16673  0.25692  1.0000
  P   P130      1.0  0.63379  0.17792  0.04330  1.0000
  C   C3958     1.0  0.63843  0.19211  0.06238  1.0000
  C   C3959     1.0  0.65178  0.18549  0.01862  1.0000
  C   C3960     1.0  0.65140  0.19742  0.99886  1.0000
  H   H3135     1.0  0.76849  0.04623  0.05885  1.0000
  C   C3961     1.0  0.60208  0.12756  0.38185  1.0000
  C   C3962     1.0  0.68084  0.18601  0.00078  1.0000
  C   C3963     1.0  0.66684  0.18035  0.01971  1.0000
  C   C3964     1.0  0.63001  0.20521  0.06455  1.0000
  H   H3136     1.0  0.71208  0.14529  0.42102  1.0000
  H   H3137     1.0  0.67787  0.45203  0.22119  1.0000
  C   C3965     1.0  0.71940  0.99940  0.16940  1.0000
  C   C3966     1.0  0.63387  0.21611  0.07938  1.0000
  C   C3967     1.0  0.61323  0.17693  0.03638  1.0000
  C   C3968     1.0  0.59903  0.17613  0.05380  1.0000
  C   C3969     1.0  0.76628  0.02688  0.99976  1.0000
  H   H3138     1.0  0.60758  0.39045  0.13293  1.0000
  H   H3139     1.0  0.71111  0.14488  0.14186  1.0000
  C   C3970     1.0  0.61076  0.17505  0.01447  1.0000
  C   C3971     1.0  0.65529  0.20172  0.08892  1.0000
  C   C3972     1.0  0.74357  0.26150  0.26015  1.0000
  H   H3140     1.0  0.63843  0.11789  0.04773  1.0000
  H   H3141     1.0  0.64422  0.14854  0.02818  1.0000
  H   H3142     1.0  0.63591  0.43639  0.25405  1.0000
  H   H3143     1.0  0.64039  0.20252  0.99822  1.0000
  H   H3144     1.0  0.77540  0.12945  0.37834  1.0000
  S   S538      1.0  0.69322  0.99769  0.27387  1.0000
  Fe  Fe268     1.0  0.71371  0.11658  0.97822  1.0000
  H   H3145     1.0  0.66783  0.17194  0.03521  1.0000
  H   H3146     1.0  0.62045  0.20705  0.05493  1.0000
  H   H3147     1.0  0.65803  0.18074  0.07290  1.0000
  H   H3148     1.0  0.73410  0.11584  0.09866  1.0000
  H   H3149     1.0  0.60032  0.17651  0.07127  1.0000
  H   H3150     1.0  0.63961  0.49193  0.17049  1.0000
  H   H3151     1.0  0.66681  0.01327  0.29674  1.0000
  H   H3152     1.0  0.59376  0.35998  0.07747  1.0000
  H   H3153     1.0  0.62118  0.17432  0.00125  1.0000
  H   H3154     1.0  0.76480  0.10591  0.22982  1.0000
  C   C3973     1.0  0.59929  0.47529  0.28797  1.0000
  C   C3974     1.0  0.63388  0.14163  0.27152  1.0000
  C   C3975     1.0  0.77005  0.14286  0.28091  1.0000
  Fe  Fe269     1.0  0.77873  0.47947  0.17608  1.0000
  H   H3155     1.0  0.59248  0.13474  0.38116  1.0000
  C   C3976     1.0  0.72676  0.11670  0.05493  1.0000
  P   P131      1.0  0.62326  0.12276  0.19398  1.0000
  C   C3977     1.0  0.62927  0.14407  0.19965  1.0000
  C   C3978     1.0  0.62953  0.10813  0.21517  1.0000
  C   C3979     1.0  0.62565  0.10882  0.23855  1.0000
  C   C3980     1.0  0.63095  0.09812  0.25509  1.0000
  C   C3981     1.0  0.64021  0.08664  0.24842  1.0000
  C   C3982     1.0  0.64424  0.08594  0.22518  1.0000
  C   C3983     1.0  0.63897  0.09665  0.20858  1.0000
  C   C3984     1.0  0.64518  0.14982  0.20486  1.0000
  C   C3985     1.0  0.65017  0.16644  0.20870  1.0000
  C   C3986     1.0  0.63931  0.17739  0.20751  1.0000
  C   C3987     1.0  0.62338  0.17168  0.20267  1.0000
  C   C3988     1.0  0.61838  0.15514  0.19861  1.0000
  C   C3989     1.0  0.63405  0.12271  0.16513  1.0000
  C   C3990     1.0  0.62854  0.10873  0.15525  1.0000
  C   C3991     1.0  0.63696  0.10848  0.13304  1.0000
  C   C3992     1.0  0.65063  0.12239  0.12031  1.0000
  C   C3993     1.0  0.65597  0.13641  0.12994  1.0000
  C   C3994     1.0  0.64790  0.13651  0.15233  1.0000
  H   H3156     1.0  0.77829  0.14901  0.29076  1.0000
  H   H3157     1.0  0.63031  0.14523  0.25527  1.0000
  C   C3995     1.0  0.77195  0.04115  0.39176  1.0000
  C   C3996     1.0  0.63991  0.47606  0.10034  1.0000
  C   C3997     1.0  0.66095  0.47378  0.27622  1.0000
  H   H3158     1.0  0.61847  0.11766  0.24392  1.0000
  H   H3159     1.0  0.76971  0.25051  0.13258  1.0000
  H   H3160     1.0  0.64436  0.07836  0.26122  1.0000
  H   H3161     1.0  0.65153  0.07712  0.21998  1.0000
  H   H3162     1.0  0.64244  0.09598  0.19069  1.0000
  H   H3163     1.0  0.65396  0.14168  0.20538  1.0000
  H   H3164     1.0  0.66267  0.17105  0.21196  1.0000
  H   H3165     1.0  0.64347  0.19053  0.20949  1.0000
  H   H3166     1.0  0.61755  0.03975  0.45347  1.0000
  C   C3998     1.0  0.65836  0.00357  0.31145  1.0000
  H   H3167     1.0  0.61777  0.09800  0.16478  1.0000
  H   H3168     1.0  0.63278  0.09760  0.12557  1.0000
  H   H3169     1.0  0.65706  0.12241  0.10292  1.0000
  H   H3170     1.0  0.66647  0.14723  0.12012  1.0000
  H   H3171     1.0  0.65242  0.14752  0.15933  1.0000
  C   C3999     1.0  0.61646  0.99783  0.41388  1.0000
  H   H3172     1.0  0.61234  0.12817  0.11021  1.0000
  H   H3173     1.0  0.64113  0.13615  0.99682  1.0000
  H   H3174     1.0  0.62224  0.10739  0.08875  1.0000
  H   H3175     1.0  0.74369  0.08366  0.02474  1.0000
  H   H3176     1.0  0.75295  0.15327  0.23499  1.0000
  S   S539      1.0  0.58854  0.46952  0.12318  1.0000
  H   H3177     1.0  0.74522  0.10352  0.28132  1.0000
  H   H3178     1.0  0.77081  0.30695  0.09339  1.0000
  H   H3179     1.0  0.71777  0.08162  0.13298  1.0000
  H   H3180     1.0  0.75448  0.11500  0.00680  1.0000
  H   H3181     1.0  0.59814  0.44618  0.34436  1.0000
  H   H3182     1.0  0.63090  0.46793  0.11591  1.0000
  C   C4000     1.0  0.74313  0.23946  0.31102  1.0000
  H   H3183     1.0  0.63983  0.08386  0.06774  1.0000
  C   C4001     1.0  0.67817  0.11288  0.27725  1.0000
  H   H3184     1.0  0.67234  0.11214  0.24405  1.0000
  H   H3185     1.0  0.58660  0.12170  0.07144  1.0000
  H   H3186     1.0  0.66506  0.20039  0.09846  1.0000
  C   C4002     1.0  0.70769  0.11495  0.27872  1.0000
  S   S540      1.0  0.76027  0.47563  0.20998  1.0000
  C   C4003     1.0  0.73939  0.09290  0.03362  1.0000
  H   H3187     1.0  0.65189  0.07120  0.32825  1.0000
  H   H3188     1.0  0.67598  0.06997  0.34727  1.0000
  H   H3189     1.0  0.60623  0.15135  0.19409  1.0000
  H   H3190     1.0  0.77552  0.19772  0.37917  1.0000
  C   C4004     1.0  0.65046  0.09634  0.33402  1.0000
  H   H3191     1.0  0.68514  0.14313  0.32175  1.0000
  C   C4005     1.0  0.74375  0.06346  0.23982  1.0000
  H   H3192     1.0  0.73990  0.30910  0.25032  1.0000
  H   H3193     1.0  0.74133  0.23893  0.34724  1.0000
  C   C4006     1.0  0.75781  0.06425  0.38655  1.0000
  H   H3194     1.0  0.72334  0.14806  0.22331  1.0000
  H   H3195     1.0  0.72234  0.07326  0.06151  1.0000
  C   C4007     1.0  0.75425  0.02074  0.07876  1.0000
  H   H3196     1.0  0.75498  0.13330  0.15497  1.0000
  H   H3197     1.0  0.76244  0.20009  0.32226  1.0000
  H   H3198     1.0  0.71739  0.11616  0.28863  1.0000
  C   C4008     1.0  0.72372  0.08097  0.24566  1.0000
  C   C4009     1.0  0.74132  0.15085  0.16717  1.0000
  H   H3199     1.0  0.60961  0.12828  0.01100  1.0000
  C   C4010     1.0  0.62470  0.48369  0.98604  1.0000
  C   C4011     1.0  0.72698  0.06479  0.24559  1.0000
  C   C4012     1.0  0.59460  0.17359  0.00965  1.0000
  C   C4013     1.0  0.76683  0.40099  0.27319  1.0000
  C   C4014     1.0  0.62677  0.10896  0.38404  1.0000
  C   C4015     1.0  0.65742  0.47825  0.09834  1.0000
  C   C4016     1.0  0.76672  0.15284  0.26171  1.0000
  C   C4017     1.0  0.73030  0.14471  0.20857  1.0000
  H   H3200     1.0  0.62024  0.99748  0.37792  1.0000
  C   C4018     1.0  0.75734  0.07831  0.23412  1.0000
  C   C4019     1.0  0.62987  0.48997  0.02243  1.0000
  C   C4020     1.0  0.75414  0.09451  0.23408  1.0000
  C   C4021     1.0  0.74595  0.12615  0.19212  1.0000
  H   H3201     1.0  0.73106  0.05643  0.38716  1.0000
  H   H3202     1.0  0.63238  0.99467  0.18723  1.0000
  H   H3203     1.0  0.61696  0.11711  0.32619  1.0000
  H   H3204     1.0  0.76768  0.26551  0.06152  1.0000
  C   C4022     1.0  0.61788  0.41602  0.07848  1.0000
  C   C4023     1.0  0.61934  0.40945  0.10087  1.0000
  H   H3205     1.0  0.67559  0.16644  0.45846  1.0000
  H   H3206     1.0  0.60291  0.41379  0.05319  1.0000
  P   P132      1.0  0.64845  0.12872  0.34190  1.0000
  C   C4024     1.0  0.77274  0.05892  0.38814  1.0000
  H   H3207     1.0  0.75117  0.11501  0.19385  1.0000
  C   C4025     1.0  0.66899  0.48877  0.07829  1.0000
  H   H3208     1.0  0.66492  0.10738  0.04419  1.0000
  H   H3209     1.0  0.71064  0.08159  0.25071  1.0000
  C   C4026     1.0  0.74794  0.12723  0.25604  1.0000
  H   H3210     1.0  0.71488  0.28500  0.27253  1.0000
  C   C4027     1.0  0.66380  0.14756  0.34444  1.0000
  H   H3211     1.0  0.62749  0.42722  0.06747  1.0000
  H   H3212     1.0  0.63003  0.41555  0.10725  1.0000
  H   H3213     1.0  0.63879  0.43136  0.29475  1.0000
  C   C4028     1.0  0.61008  0.46986  0.27158  1.0000
  H   H3214     1.0  0.74374  0.13621  0.02618  1.0000
  H   H3215     1.0  0.71918  0.05329  0.15461  1.0000
  C   C4029     1.0  0.62499  0.12093  0.08025  1.0000
  H   H3216     1.0  0.76035  0.04235  0.30185  1.0000
  H   H3217     1.0  0.62951  0.16785  0.43557  1.0000
  C   C4030     1.0  0.74564  0.36079  0.17838  1.0000
  C   C4031     1.0  0.73068  0.34860  0.17881  1.0000
  C   C4032     1.0  0.71572  0.35381  0.17753  1.0000
  C   C4033     1.0  0.71572  0.37122  0.17576  1.0000
  C   C4034     1.0  0.73078  0.38356  0.17502  1.0000
  C   C4035     1.0  0.74569  0.37819  0.17648  1.0000
  P   P133      1.0  0.73116  0.40609  0.17308  1.0000
  C   C4036     1.0  0.71239  0.41038  0.16428  1.0000
  C   C4037     1.0  0.73142  0.41111  0.20104  1.0000
  C   C4038     1.0  0.72926  0.42713  0.20480  1.0000
  C   C4039     1.0  0.72910  0.43088  0.22653  1.0000
  C   C4040     1.0  0.73071  0.41858  0.24481  1.0000
  C   C4041     1.0  0.73232  0.40242  0.24145  1.0000
  C   C4042     1.0  0.73271  0.39869  0.21969  1.0000
  C   C4043     1.0  0.71199  0.41376  0.14077  1.0000
  C   C4044     1.0  0.69742  0.41697  0.13400  1.0000
  C   C4045     1.0  0.68314  0.41678  0.15062  1.0000
  C   C4046     1.0  0.68340  0.41334  0.17403  1.0000
  C   C4047     1.0  0.69790  0.41004  0.18090  1.0000
  C   C4048     1.0  0.74971  0.41894  0.15080  1.0000
  C   C4049     1.0  0.75605  0.41201  0.13232  1.0000
  C   C4050     1.0  0.68757  0.17739  0.34685  1.0000
  H   H3218     1.0  0.71710  0.25480  0.27874  1.0000
  C   C4051     1.0  0.77171  0.44581  0.13349  1.0000
  C   C4052     1.0  0.75768  0.43597  0.15117  1.0000
  H   H3219     1.0  0.61238  0.44685  0.02860  1.0000
  H   H3220     1.0  0.73067  0.33510  0.18028  1.0000
  H   H3221     1.0  0.70411  0.34431  0.17800  1.0000
  H   H3222     1.0  0.70398  0.37497  0.17500  1.0000
  H   H3223     1.0  0.75738  0.38748  0.17632  1.0000
  H   H3224     1.0  0.72741  0.43668  0.19110  1.0000
  H   H3225     1.0  0.72756  0.44332  0.22924  1.0000
  H   H3226     1.0  0.73057  0.42157  0.26158  1.0000
  H   H3227     1.0  0.73341  0.39279  0.25562  1.0000
  H   H3228     1.0  0.73417  0.38613  0.21762  1.0000
  H   H3229     1.0  0.72290  0.41395  0.12764  1.0000
  H   H3230     1.0  0.69719  0.41973  0.11585  1.0000
  H   H3231     1.0  0.67192  0.41953  0.14539  1.0000
  H   H3232     1.0  0.67239  0.41351  0.18682  1.0000
  H   H3233     1.0  0.69774  0.40735  0.19916  1.0000
  H   H3234     1.0  0.75006  0.39902  0.13131  1.0000
  C   C4053     1.0  0.67075  0.08115  0.34614  1.0000
  C   C4054     1.0  0.72712  0.08705  0.05452  1.0000
  H   H3235     1.0  0.77528  0.41621  0.10104  1.0000
  H   H3236     1.0  0.75333  0.44175  0.16509  1.0000
  C   C4055     1.0  0.75269  0.04736  0.01483  1.0000
  C   C4056     1.0  0.75488  0.03064  0.01704  1.0000
  H   H3237     1.0  0.68258  0.12581  0.14505  1.0000
  H   H3238     1.0  0.74753  0.02047  0.03194  1.0000
  H   H3239     1.0  0.59837  0.10319  0.98572  1.0000
  C   C4057     1.0  0.77590  0.34623  0.10667  1.0000
  H   H3240     1.0  0.64937  0.22262  0.10332  1.0000
  C   C4058     1.0  0.69209  0.13942  0.45187  1.0000
  C   C4059     1.0  0.74809  0.13646  0.16998  1.0000
  H   H3241     1.0  0.58709  0.43791  0.10613  1.0000
  C   C4060     1.0  0.75763  0.27524  0.24765  1.0000
  H   H3242     1.0  0.61636  0.05292  0.41369  1.0000
  C   C4061     1.0  0.74543  0.11058  0.02344  1.0000
  C   C4062     1.0  0.75222  0.21888  0.33723  1.0000
  C   C4063     1.0  0.75134  0.11727  0.27542  1.0000
  C   C4064     1.0  0.58491  0.44158  0.34372  1.0000
  H   H3243     1.0  0.74198  0.02274  0.07668  1.0000
  C   C4065     1.0  0.77323  0.26810  0.07587  1.0000
  Fe  Fe270     1.0  0.58747  0.41171  0.17437  1.0000
  H   H3244     1.0  0.61833  0.15887  0.09065  1.0000
  H   H3245     1.0  0.72763  0.01240  0.16324  1.0000
  C   C4066     1.0  0.75564  0.14512  0.24937  1.0000
  H   H3246     1.0  0.73784  0.47721  0.05489  1.0000
  C   C4067     1.0  0.77048  0.41740  0.27798  1.0000
  C   C4068     1.0  0.66607  0.09862  0.05929  1.0000
  C   C4069     1.0  0.65196  0.08549  0.07267  1.0000
  C   C4070     1.0  0.65360  0.07436  0.09221  1.0000
  C   C4071     1.0  0.66940  0.07624  0.09820  1.0000
  C   C4072     1.0  0.68379  0.08904  0.08433  1.0000
  C   C4073     1.0  0.68190  0.10043  0.06510  1.0000
  P   P134      1.0  0.70424  0.09160  0.09196  1.0000
  C   C4074     1.0  0.70647  0.10764  0.10919  1.0000
  C   C4075     1.0  0.70568  0.07102  0.10783  1.0000
  C   C4076     1.0  0.69955  0.05572  0.10085  1.0000
  C   C4077     1.0  0.70049  0.03976  0.11308  1.0000
  C   C4078     1.0  0.70749  0.03890  0.13250  1.0000
  C   C4079     1.0  0.71370  0.05403  0.13958  1.0000
  C   C4080     1.0  0.71285  0.07006  0.12727  1.0000
  C   C4081     1.0  0.72271  0.11784  0.10869  1.0000
  C   C4082     1.0  0.72434  0.13126  0.12036  1.0000
  C   C4083     1.0  0.70985  0.13417  0.13334  1.0000
  C   C4084     1.0  0.69373  0.12355  0.13485  1.0000
  C   C4085     1.0  0.69199  0.11041  0.12268  1.0000
  C   C4086     1.0  0.72071  0.09893  0.06544  1.0000
  H   H3247     1.0  0.75969  0.07314  0.99311  1.0000
  H   H3248     1.0  0.59277  0.17234  0.99268  1.0000
  H   H3249     1.0  0.59367  0.10035  0.23092  1.0000
  C   C4087     1.0  0.65360  0.45745  0.29113  1.0000
  C   C4088     1.0  0.60051  0.11637  0.19600  1.0000
  C   C4089     1.0  0.75528  0.21771  0.29697  1.0000
  H   H3250     1.0  0.61592  0.01123  0.41098  1.0000
  H   H3251     1.0  0.60982  0.09341  0.41609  1.0000
  H   H3252     1.0  0.77120  0.07432  0.29055  1.0000
  C   C4090     1.0  0.77966  0.43259  0.19593  1.0000
  C   C4091     1.0  0.67084  0.10926  0.35423  1.0000
  H   H3253     1.0  0.75790  0.07777  0.38327  1.0000
  C   C4092     1.0  0.59335  0.02107  0.46043  1.0000
  H   H3254     1.0  0.62236  0.46750  0.05128  1.0000
  Fe  Fe271     1.0  0.74168  0.48176  0.18846  1.0000
  H   H3255     1.0  0.70591  0.16935  0.32394  1.0000
  H   H3256     1.0  0.68792  0.09417  0.36418  1.0000
  C   C4093     1.0  0.76177  0.06028  0.99519  1.0000
  H   H3257     1.0  0.68210  0.13809  0.44246  1.0000
  C   C4094     1.0  0.58631  0.45760  0.25571  1.0000
  H   H3258     1.0  0.66775  0.15036  0.29571  1.0000
  C   C4095     1.0  0.61704  0.13236  0.36431  1.0000
  H   H3259     1.0  0.67613  0.11958  0.36194  1.0000
  H   H3260     1.0  0.65988  0.18142  0.43401  1.0000
  C   C4096     1.0  0.58829  0.49300  0.44456  1.0000
  H   H3261     1.0  0.76859  0.35528  0.11081  1.0000
  H   H3262     1.0  0.69231  0.18169  0.00177  1.0000
  H   H3263     1.0  0.75441  0.39203  0.28071  1.0000
  C   C4097     1.0  0.77992  0.01668  0.34501  1.0000
  H   H3264     1.0  0.77063  0.22230  0.19398  1.0000
  H   H3265     1.0  0.63627  0.10177  0.38564  1.0000
  C   C4098     1.0  0.62939  0.12290  0.36506  1.0000
  C   C4099     1.0  0.76233  0.23705  0.24313  1.0000
  H   H3266     1.0  0.71589  0.99691  0.13528  1.0000
  C   C4100     1.0  0.75724  0.21123  0.31912  1.0000
  C   C4101     1.0  0.74240  0.05207  0.38883  1.0000
  H   H3267     1.0  0.74656  0.22467  0.22262  1.0000
  C   C4102     1.0  0.58642  0.38398  0.00666  1.0000
  C   C4103     1.0  0.59940  0.11342  0.40037  1.0000
  H   H3268     1.0  0.77926  0.10330  0.36493  1.0000
  H   H3269     1.0  0.73756  0.25031  0.30833  1.0000
  C   C4104     1.0  0.75628  0.29232  0.24428  1.0000
  H   H3270     1.0  0.77645  0.02396  0.28443  1.0000
  H   H3271     1.0  0.77721  0.02675  0.23383  1.0000
  H   H3272     1.0  0.59328  0.09601  0.05881  1.0000
  H   H3273     1.0  0.69474  0.47952  0.23792  1.0000
  H   H3274     1.0  0.75892  0.00599  0.17826  1.0000
  H   H3275     1.0  0.59182  0.13989  0.98624  1.0000
  H   H3276     1.0  0.74342  0.99473  0.09873  1.0000
  C   C4105     1.0  0.74522  0.23303  0.33316  1.0000
  H   H3277     1.0  0.58778  0.10968  0.41397  1.0000
  C   C4106     1.0  0.77921  0.39615  0.25859  1.0000
  H   H3278     1.0  0.76087  0.42121  0.28922  1.0000
  H   H3279     1.0  0.77075  0.26584  0.20111  1.0000
  H   H3280     1.0  0.61237  0.99440  0.45086  1.0000
  H   H3281     1.0  0.77713  0.02687  0.35297  1.0000
  H   H3282     1.0  0.75369  0.21375  0.35442  1.0000
  H   H3283     1.0  0.68257  0.49046  0.07682  1.0000
  H   H3284     1.0  0.76713  0.30282  0.23432  1.0000
  C   C4107     1.0  0.58598  0.10330  0.04972  1.0000
  H   H3285     1.0  0.77632  0.38357  0.25441  1.0000
  Fe  Fe272     1.0  0.60295  0.07656  0.46814  1.0000
  C   C4108     1.0  0.70008  0.49278  0.23860  1.0000
  C   C4109     1.0  0.78149  0.03789  0.27926  1.0000
  C   C4110     1.0  0.77789  0.17868  0.40731  1.0000
  Fe  Fe273     1.0  0.69102  0.99701  0.06358  1.0000
  C   C4111     1.0  0.58460  0.39989  0.99552  1.0000
  C   C4112     1.0  0.58479  0.44765  0.09317  1.0000
  H   H3286     1.0  0.77033  0.07721  0.22990  1.0000
  C   C4113     1.0  0.77183  0.99585  0.32203  1.0000
  H   H3287     1.0  0.75624  0.00079  0.23141  1.0000
  C   C4114     1.0  0.74848  0.48784  0.05456  1.0000
  C   C4115     1.0  0.75466  0.48866  0.07451  1.0000
  S   S541      1.0  0.60805  0.48488  0.30896  1.0000
  H   H3288     1.0  0.59080  0.37541  0.99653  1.0000
  C   C4116     1.0  0.77094  0.00195  0.09377  1.0000
  H   H3289     1.0  0.58697  0.32823  0.09195  1.0000
  C   C4117     1.0  0.77923  0.01409  0.23959  1.0000
  H   H3290     1.0  0.61497  0.13906  0.46170  1.0000
  H   H3291     1.0  0.59113  0.43572  0.31036  1.0000
  H   H3292     1.0  0.67214  0.10488  0.46851  1.0000
  C   C4118     1.0  0.63980  0.45047  0.50029  1.0000
  C   C4119     1.0  0.59851  0.37986  0.72361  1.0000
  S   S542      1.0  0.73510  0.18129  0.93033  1.0000
  C   C4120     1.0  0.66152  0.09942  0.48338  1.0000
  H   H3293     1.0  0.63044  0.12378  0.48577  1.0000
  C   C4121     1.0  0.78247  0.26624  0.84636  1.0000
  Fe  Fe274     1.0  0.60923  0.17619  0.65137  1.0000
  S   S543      1.0  0.60603  0.14961  0.64434  1.0000
  Fe  Fe275     1.0  0.64861  0.18473  0.63841  1.0000
  S   S544      1.0  0.64785  0.15860  0.63024  1.0000
  S   S545      1.0  0.67498  0.20426  0.63019  1.0000
  Fe  Fe276     1.0  0.62675  0.16226  0.61236  1.0000
  S   S546      1.0  0.62609  0.15849  0.57577  1.0000
  Fe  Fe277     1.0  0.62705  0.14801  0.66290  1.0000
  S   S547      1.0  0.62605  0.12327  0.68814  1.0000
  S   S548      1.0  0.62882  0.18928  0.61818  1.0000
  S   S549      1.0  0.62911  0.17376  0.67217  1.0000
  C   C4122     1.0  0.75435  0.23733  0.86045  1.0000
  S   S550      1.0  0.75977  0.29119  0.64737  1.0000
  H   H3294     1.0  0.62958  0.46375  0.60687  1.0000
  S   S551      1.0  0.75784  0.27889  0.70253  1.0000
  C   C4123     1.0  0.73758  0.21606  0.58479  1.0000
  Fe  Fe278     1.0  0.74922  0.26619  0.67473  1.0000
  S   S552      1.0  0.72195  0.24803  0.68461  1.0000
  C   C4124     1.0  0.76646  0.28570  0.56991  1.0000
  S   S553      1.0  0.76805  0.32991  0.67893  1.0000
  S   S554      1.0  0.59298  0.09906  0.47580  1.0000
  C   C4125     1.0  0.60348  0.39619  0.70847  1.0000
  S   S555      1.0  0.59530  0.06172  0.50511  1.0000
  H   H3295     1.0  0.67378  0.48369  0.49752  1.0000
  H   H3296     1.0  0.69267  0.22043  0.91549  1.0000
  C   C4126     1.0  0.62991  0.49042  0.60559  1.0000
  C   C4127     1.0  0.65658  0.46082  0.49420  1.0000
  C   C4128     1.0  0.64146  0.10243  0.51616  1.0000
  Fe  Fe279     1.0  0.61355  0.08204  0.86410  1.0000
  S   S556      1.0  0.60442  0.10561  0.85407  1.0000
  S   S557      1.0  0.63987  0.08511  0.87180  1.0000
  H   H3297     1.0  0.59353  0.01593  0.47823  1.0000
  Fe  Fe280     1.0  0.59470  0.09330  0.82705  1.0000
  S   S558      1.0  0.59546  0.11391  0.79557  1.0000
  S   S559      1.0  0.60574  0.07033  0.83510  1.0000
  Fe  Fe281     1.0  0.70065  0.47560  0.66980  1.0000
  S   S560      1.0  0.67744  0.47585  0.69631  1.0000
  S   S561      1.0  0.71576  0.45522  0.67225  1.0000
  Fe  Fe282     1.0  0.66532  0.48053  0.66570  1.0000
  S   S562      1.0  0.63675  0.47082  0.66624  1.0000
  S   S563      1.0  0.68769  0.47827  0.63996  1.0000
  C   C4129     1.0  0.74148  0.23166  0.51411  1.0000
  H   H3298     1.0  0.63214  0.06109  0.50921  1.0000
  H   H3299     1.0  0.64133  0.46864  0.56506  1.0000
  C   C4130     1.0  0.68803  0.13728  0.47597  1.0000
  C   C4131     1.0  0.62428  0.45255  0.65898  1.0000
  C   C4132     1.0  0.60651  0.45034  0.66204  1.0000
  C   C4133     1.0  0.59615  0.43641  0.65584  1.0000
  C   C4134     1.0  0.60342  0.42444  0.64645  1.0000
  C   C4135     1.0  0.62117  0.42664  0.64346  1.0000
  C   C4136     1.0  0.63152  0.44052  0.64973  1.0000
  H   H3300     1.0  0.60073  0.45953  0.66919  1.0000
  H   H3301     1.0  0.78162  0.42880  0.51932  1.0000
  H   H3302     1.0  0.62700  0.41753  0.63617  1.0000
  H   H3303     1.0  0.64513  0.44200  0.64720  1.0000
  C   C4137     1.0  0.77068  0.46440  0.68288  1.0000
  C   C4138     1.0  0.76153  0.47693  0.68535  1.0000
  C   C4139     1.0  0.74490  0.47450  0.68158  1.0000
  C   C4140     1.0  0.73709  0.45933  0.67574  1.0000
  C   C4141     1.0  0.74633  0.44691  0.67292  1.0000
  C   C4142     1.0  0.76309  0.44946  0.67635  1.0000
  C   C4143     1.0  0.78109  0.36346  0.68211  1.0000
  S   S564      1.0  0.58583  0.18406  0.66784  1.0000
  H   H3304     1.0  0.74037  0.43511  0.66851  1.0000
  H   H3305     1.0  0.72853  0.14428  0.48457  1.0000
  C   C4144     1.0  0.64951  0.29580  0.60325  1.0000
  S   S565      1.0  0.66024  0.12432  0.94923  1.0000
  H   H3306     1.0  0.63821  0.21182  0.68183  1.0000
  C   C4145     1.0  0.77995  0.21731  0.89760  1.0000
  H   H3307     1.0  0.72848  0.20882  0.83357  1.0000
  C   C4146     1.0  0.61778  0.12079  0.71805  1.0000
  C   C4147     1.0  0.61019  0.13297  0.72619  1.0000
  C   C4148     1.0  0.60326  0.13046  0.74996  1.0000
  C   C4149     1.0  0.60405  0.11591  0.76588  1.0000
  C   C4150     1.0  0.61188  0.10382  0.75785  1.0000
  C   C4151     1.0  0.61863  0.10622  0.73396  1.0000
  H   H3308     1.0  0.60940  0.14419  0.71413  1.0000
  C   C4152     1.0  0.71832  0.14291  0.47548  1.0000
  H   H3309     1.0  0.61262  0.09260  0.76996  1.0000
  P   P135      1.0  0.73738  0.23298  0.56088  1.0000
  C   C4153     1.0  0.61496  0.13976  0.56795  1.0000
  C   C4154     1.0  0.61599  0.13984  0.54437  1.0000
  C   C4155     1.0  0.60722  0.12534  0.53746  1.0000
  H   H3310     1.0  0.77144  0.22061  0.47693  1.0000
  C   C4156     1.0  0.73159  0.18540  0.60265  1.0000
  C   C4157     1.0  0.60508  0.12492  0.58453  1.0000
  H   H3311     1.0  0.62356  0.15121  0.53135  1.0000
  H   H3312     1.0  0.60799  0.12570  0.51933  1.0000
  H   H3313     1.0  0.60413  0.12460  0.60271  1.0000
  C   C4158     1.0  0.68782  0.21611  0.64587  1.0000
  C   C4159     1.0  0.68176  0.21649  0.66890  1.0000
  C   C4160     1.0  0.69236  0.22631  0.68038  1.0000
  C   C4161     1.0  0.70918  0.23591  0.66908  1.0000
  C   C4162     1.0  0.71522  0.23556  0.64601  1.0000
  C   C4163     1.0  0.70459  0.22577  0.63453  1.0000
  H   H3314     1.0  0.66887  0.20936  0.67782  1.0000
  H   H3315     1.0  0.68743  0.22657  0.69812  1.0000
  H   H3316     1.0  0.72808  0.24284  0.63705  1.0000
  H   H3317     1.0  0.70939  0.22565  0.61671  1.0000
  C   C4164     1.0  0.61363  0.21697  0.91305  1.0000
  C   C4165     1.0  0.65517  0.11363  0.92727  1.0000
  C   C4166     1.0  0.63884  0.11199  0.92273  1.0000
  C   C4167     1.0  0.63397  0.10319  0.90596  1.0000
  C   C4168     1.0  0.64552  0.09619  0.89319  1.0000
  C   C4169     1.0  0.66195  0.09803  0.89749  1.0000
  C   C4170     1.0  0.66675  0.10666  0.91449  1.0000
  C   C4171     1.0  0.65311  0.08186  0.48778  1.0000
  H   H3318     1.0  0.62126  0.10178  0.90295  1.0000
  H   H3319     1.0  0.67096  0.09260  0.88778  1.0000
  H   H3320     1.0  0.67935  0.10778  0.91783  1.0000
  C   C4172     1.0  0.76978  0.18221  0.92097  1.0000
  C   C4173     1.0  0.75733  0.19129  0.91910  1.0000
  C   C4174     1.0  0.76254  0.20885  0.90729  1.0000
  C   C4175     1.0  0.74579  0.22148  0.76733  1.0000
  H   H3321     1.0  0.76601  0.16869  0.92989  1.0000
  H   H3322     1.0  0.75302  0.21599  0.90582  1.0000
  C   C4176     1.0  0.74871  0.25385  0.56380  1.0000
  C   C4177     1.0  0.76729  0.39655  0.55514  1.0000
  C   C4178     1.0  0.60553  0.47535  0.71853  1.0000
  H   H3323     1.0  0.61750  0.01383  0.83530  1.0000
  C   C4179     1.0  0.62126  0.13896  0.88589  1.0000
  P   P136      1.0  0.61163  0.25103  0.61578  1.0000
  C   C4180     1.0  0.62745  0.27111  0.60142  1.0000
  C   C4181     1.0  0.62000  0.23889  0.63712  1.0000
  C   C4182     1.0  0.60913  0.22811  0.65767  1.0000
  H   H3324     1.0  0.58617  0.43472  0.47406  1.0000
  H   H3325     1.0  0.76193  0.26502  0.75756  1.0000
  C   C4183     1.0  0.64405  0.23005  0.64901  1.0000
  C   C4184     1.0  0.63752  0.23967  0.63285  1.0000
  C   C4185     1.0  0.62994  0.27791  0.57760  1.0000
  C   C4186     1.0  0.64220  0.29350  0.56671  1.0000
  C   C4187     1.0  0.63231  0.47660  0.59580  1.0000
  C   C4188     1.0  0.63725  0.28024  0.61420  1.0000
  C   C4189     1.0  0.60740  0.23858  0.59455  1.0000
  H   H3326     1.0  0.62493  0.48817  0.96790  1.0000
  Fe  Fe283     1.0  0.72055  0.15485  0.95434  1.0000
  H   H3327     1.0  0.73841  0.46982  0.62779  1.0000
  C   C4190     1.0  0.61378  0.21728  0.57311  1.0000
  C   C4191     1.0  0.61708  0.22695  0.58947  1.0000
  C   C4192     1.0  0.58739  0.43486  0.56608  1.0000
  C   C4193     1.0  0.61747  0.21126  0.93426  1.0000
  H   H3328     1.0  0.65708  0.30273  0.61320  1.0000
  H   H3329     1.0  0.62449  0.09674  0.72777  1.0000
  H   H3330     1.0  0.65754  0.23055  0.64546  1.0000
  H   H3331     1.0  0.64615  0.24745  0.61686  1.0000
  H   H3332     1.0  0.62245  0.27124  0.56738  1.0000
  C   C4194     1.0  0.60251  0.08510  0.96507  1.0000
  H   H3333     1.0  0.73793  0.48414  0.68381  1.0000
  H   H3334     1.0  0.60138  0.42235  0.70286  1.0000
  H   H3335     1.0  0.61411  0.44710  0.51935  1.0000
  H   H3336     1.0  0.60717  0.22723  0.91093  1.0000
  H   H3337     1.0  0.62109  0.20807  0.56963  1.0000
  H   H3338     1.0  0.62709  0.22516  0.59825  1.0000
  S   S566      1.0  0.71159  0.13010  0.94298  1.0000
  H   H3339     1.0  0.71858  0.16143  0.88472  1.0000
  C   C4195     1.0  0.71576  0.23400  0.56029  1.0000
  C   C4196     1.0  0.70166  0.22006  0.57206  1.0000
  C   C4197     1.0  0.68509  0.22116  0.57118  1.0000
  C   C4198     1.0  0.68242  0.23620  0.55878  1.0000
  C   C4199     1.0  0.69634  0.25018  0.54714  1.0000
  C   C4200     1.0  0.71294  0.24910  0.54790  1.0000
  C   C4201     1.0  0.74161  0.26118  0.58132  1.0000
  H   H3340     1.0  0.59714  0.17541  0.55271  1.0000
  C   C4202     1.0  0.62519  0.45871  0.72867  1.0000
  H   H3341     1.0  0.70320  0.20842  0.58238  1.0000
  H   H3342     1.0  0.67429  0.21041  0.58061  1.0000
  H   H3343     1.0  0.66953  0.23701  0.55841  1.0000
  H   H3344     1.0  0.69428  0.26188  0.53761  1.0000
  H   H3345     1.0  0.72361  0.26006  0.53879  1.0000
  H   H3346     1.0  0.72935  0.25446  0.59291  1.0000
  H   H3347     1.0  0.63644  0.11028  0.52699  1.0000
  H   H3348     1.0  0.73956  0.21185  0.75922  1.0000
  C   C4203     1.0  0.61333  0.15475  0.95874  1.0000
  C   C4204     1.0  0.74726  0.48123  0.61608  1.0000
  H   H3349     1.0  0.62983  0.11740  0.93245  1.0000
  H   H3350     1.0  0.59564  0.47099  0.49355  1.0000
  H   H3351     1.0  0.61628  0.08896  0.96263  1.0000
  H   H3352     1.0  0.74540  0.28211  0.59878  1.0000
  H   H3353     1.0  0.66507  0.21212  0.96455  1.0000
  C   C4205     1.0  0.58863  0.47452  0.48075  1.0000
  H   H3354     1.0  0.61211  0.39841  0.69173  1.0000
  C   C4206     1.0  0.61352  0.01192  0.85389  1.0000
  C   C4207     1.0  0.61200  0.02357  0.88809  1.0000
  H   H3355     1.0  0.59238  0.43198  0.58138  1.0000
  C   C4208     1.0  0.64908  0.15570  0.86283  1.0000
  H   H3356     1.0  0.66640  0.45725  0.48300  1.0000
  P   P137      1.0  0.66598  0.13271  0.49141  1.0000
  H   H3357     1.0  0.64408  0.29867  0.54832  1.0000
  C   C4209     1.0  0.61048  0.17121  0.77556  1.0000
  C   C4210     1.0  0.60497  0.17645  0.75550  1.0000
  C   C4211     1.0  0.61568  0.17876  0.73380  1.0000
  C   C4212     1.0  0.63187  0.17574  0.73214  1.0000
  C   C4213     1.0  0.63739  0.17014  0.75218  1.0000
  C   C4214     1.0  0.62669  0.16823  0.77394  1.0000
  P   P138      1.0  0.65835  0.16627  0.74997  1.0000
  C   C4215     1.0  0.65795  0.15003  0.77509  1.0000
  C   C4216     1.0  0.66353  0.15860  0.72392  1.0000
  C   C4217     1.0  0.65953  0.14083  0.72439  1.0000
  C   C4218     1.0  0.66288  0.13520  0.70391  1.0000
  C   C4219     1.0  0.66995  0.14721  0.68277  1.0000
  C   C4220     1.0  0.67401  0.16490  0.68211  1.0000
  C   C4221     1.0  0.67088  0.17058  0.70258  1.0000
  C   C4222     1.0  0.67142  0.15181  0.78649  1.0000
  C   C4223     1.0  0.67072  0.13925  0.80614  1.0000
  C   C4224     1.0  0.65663  0.12483  0.81449  1.0000
  C   C4225     1.0  0.64324  0.12297  0.80318  1.0000
  C   C4226     1.0  0.64387  0.13551  0.78364  1.0000
  C   C4227     1.0  0.67401  0.18629  0.74765  1.0000
  C   C4228     1.0  0.66901  0.20032  0.75475  1.0000
  C   C4229     1.0  0.68108  0.21613  0.75143  1.0000
  C   C4230     1.0  0.69817  0.21807  0.74098  1.0000
  C   C4231     1.0  0.70327  0.20411  0.73416  1.0000
  C   C4232     1.0  0.69129  0.18823  0.73765  1.0000
  H   H3358     1.0  0.60209  0.16915  0.79240  1.0000
  H   H3359     1.0  0.76985  0.43959  0.67496  1.0000
  H   H3360     1.0  0.61131  0.18255  0.71823  1.0000
  H   H3361     1.0  0.63990  0.17753  0.71519  1.0000
  H   H3362     1.0  0.63069  0.16416  0.78969  1.0000
  H   H3363     1.0  0.65341  0.13124  0.74030  1.0000
  H   H3364     1.0  0.65919  0.12150  0.70427  1.0000
  H   H3365     1.0  0.67182  0.14277  0.66686  1.0000
  H   H3366     1.0  0.67925  0.17426  0.66567  1.0000
  H   H3367     1.0  0.67383  0.18434  0.70165  1.0000
  H   H3368     1.0  0.68246  0.16281  0.78030  1.0000
  H   H3369     1.0  0.68114  0.14056  0.81487  1.0000
  H   H3370     1.0  0.65609  0.11504  0.82966  1.0000
  H   H3371     1.0  0.63233  0.11176  0.80947  1.0000
  H   H3372     1.0  0.63334  0.13386  0.77517  1.0000
  H   H3373     1.0  0.65580  0.19921  0.76244  1.0000
  H   H3374     1.0  0.67715  0.22707  0.75640  1.0000
  H   H3375     1.0  0.70741  0.23052  0.73757  1.0000
  H   H3376     1.0  0.71645  0.20582  0.72551  1.0000
  H   H3377     1.0  0.69542  0.17762  0.73193  1.0000
  C   C4233     1.0  0.75004  0.22877  0.49350  1.0000
  C   C4234     1.0  0.59737  0.11048  0.55408  1.0000
  C   C4235     1.0  0.73197  0.19862  0.58402  1.0000
  C   C4236     1.0  0.65114  0.16498  0.87992  1.0000
  C   C4237     1.0  0.63846  0.16097  0.90050  1.0000
  C   C4238     1.0  0.62337  0.14804  0.90317  1.0000
  P   P139      1.0  0.64101  0.17332  0.92233  1.0000
  Fe  Fe284     1.0  0.58374  0.08333  0.51264  1.0000
  C   C4239     1.0  0.66357  0.18234  0.91968  1.0000
  C   C4240     1.0  0.67013  0.20003  0.91852  1.0000
  C   C4241     1.0  0.68763  0.20681  0.91629  1.0000
  C   C4242     1.0  0.69866  0.19600  0.91532  1.0000
  C   C4243     1.0  0.69224  0.17845  0.91633  1.0000
  C   C4244     1.0  0.67483  0.17167  0.91823  1.0000
  H   H3378     1.0  0.66149  0.31450  0.57106  1.0000
  H   H3379     1.0  0.63257  0.48614  0.71383  1.0000
  H   H3380     1.0  0.59248  0.43748  0.78093  1.0000
  C   C4245     1.0  0.59460  0.24066  0.58260  1.0000
  H   H3381     1.0  0.61400  0.21711  0.94858  1.0000
  C   C4246     1.0  0.61180  0.44363  0.73587  1.0000
  C   C4247     1.0  0.76194  0.22187  0.53376  1.0000
  H   H3382     1.0  0.77344  0.40538  0.58467  1.0000
  C   C4248     1.0  0.75027  0.21636  0.78829  1.0000
  S   S567      1.0  0.59121  0.40688  0.63748  1.0000
  S   S568      1.0  0.58936  0.06758  0.89034  1.0000
  C   C4249     1.0  0.62650  0.19625  0.89722  1.0000
  H   H3383     1.0  0.65723  0.07400  0.47631  1.0000
  C   C4250     1.0  0.77292  0.38241  0.63453  1.0000
  H   H3384     1.0  0.66272  0.17517  0.87705  1.0000
  C   C4251     1.0  0.74351  0.22003  0.60408  1.0000
  H   H3385     1.0  0.61329  0.14465  0.91861  1.0000
  C   C4252     1.0  0.74738  0.22819  0.53444  1.0000
  H   H3386     1.0  0.71219  0.20113  0.91400  1.0000
  H   H3387     1.0  0.70077  0.17002  0.91608  1.0000
  H   H3388     1.0  0.67011  0.15801  0.91891  1.0000
  H   H3389     1.0  0.76697  0.21947  0.54907  1.0000
  C   C4253     1.0  0.75059  0.27691  0.58458  1.0000
  C   C4254     1.0  0.63031  0.19040  0.91851  1.0000
  H   H3390     1.0  0.61485  0.03453  0.89595  1.0000
  C   C4255     1.0  0.76718  0.23870  0.84088  1.0000
  H   H3391     1.0  0.60385  0.28253  0.62846  1.0000
  H   H3392     1.0  0.73038  0.23665  0.51400  1.0000
  H   H3393     1.0  0.66236  0.16515  0.50439  1.0000
  H   H3394     1.0  0.76980  0.19269  0.85833  1.0000
  H   H3395     1.0  0.60317  0.06704  0.94311  1.0000
  H   H3396     1.0  0.62883  0.19383  0.95349  1.0000
  S   S569      1.0  0.77301  0.25692  0.66680  1.0000
  H   H3397     1.0  0.77159  0.04669  0.88359  1.0000
  C   C4256     1.0  0.78292  0.01179  0.95749  1.0000
  C   C4257     1.0  0.61816  0.20948  0.89454  1.0000
  H   H3398     1.0  0.75593  0.01075  0.96407  1.0000
  H   H3399     1.0  0.74554  0.23153  0.47782  1.0000
  C   C4258     1.0  0.63304  0.08489  0.52041  1.0000
  H   H3400     1.0  0.76727  0.48847  0.69051  1.0000
  C   C4259     1.0  0.70130  0.13895  0.48774  1.0000
  H   H3401     1.0  0.66187  0.20866  0.91926  1.0000
  C   C4260     1.0  0.76464  0.40403  0.65373  1.0000
  C   C4261     1.0  0.76163  0.38698  0.65114  1.0000
  Fe  Fe285     1.0  0.78224  0.27120  0.69287  1.0000
  C   C4262     1.0  0.76459  0.22256  0.49298  1.0000
  H   H3402     1.0  0.59806  0.21147  0.54927  1.0000
  C   C4263     1.0  0.66488  0.15068  0.55967  1.0000
  C   C4264     1.0  0.74307  0.20678  0.62269  1.0000
  H   H3403     1.0  0.77161  0.02819  0.92062  1.0000
  C   C4265     1.0  0.62206  0.47456  0.72003  1.0000
  H   H3404     1.0  0.77884  0.35415  0.60481  1.0000
  H   H3405     1.0  0.62169  0.07942  0.53435  1.0000
  H   H3406     1.0  0.69098  0.20142  0.96608  1.0000
  C   C4266     1.0  0.66354  0.16184  0.53997  1.0000
  H   H3407     1.0  0.77043  0.36904  0.63328  1.0000
  H   H3408     1.0  0.75723  0.40314  0.55445  1.0000
  C   C4267     1.0  0.77885  0.41659  0.63949  1.0000
  C   C4268     1.0  0.65429  0.14393  0.47397  1.0000
  Fe  Fe286     1.0  0.68513  0.12933  0.96142  1.0000
  H   H3409     1.0  0.58957  0.46157  0.56696  1.0000
  C   C4269     1.0  0.62710  0.45514  0.51462  1.0000
  C   C4270     1.0  0.58578  0.45152  0.55794  1.0000
  H   H3410     1.0  0.75076  0.37715  0.66243  1.0000
  C   C4271     1.0  0.76548  0.00362  0.96103  1.0000
  H   H3411     1.0  0.66168  0.17447  0.54106  1.0000
  C   C4272     1.0  0.65583  0.10981  0.49766  1.0000
  H   H3412     1.0  0.77367  0.29763  0.57284  1.0000
  H   H3413     1.0  0.69860  0.13728  0.50632  1.0000
  C   C4273     1.0  0.77647  0.39771  0.57236  1.0000
  H   H3414     1.0  0.76356  0.38557  0.52596  1.0000
  C   C4274     1.0  0.59208  0.46028  0.72573  1.0000
  H   H3415     1.0  0.73658  0.17924  0.63658  1.0000
  P   P140      1.0  0.76571  0.22201  0.82469  1.0000
  H   H3416     1.0  0.65908  0.15848  0.84728  1.0000
  H   H3417     1.0  0.59827  0.00577  0.92018  1.0000
  H   H3418     1.0  0.63663  0.43883  0.49390  1.0000
  H   H3419     1.0  0.61522  0.21395  0.87808  1.0000
  H   H3420     1.0  0.62123  0.47369  0.53387  1.0000
  H   H3421     1.0  0.60971  0.12875  0.88829  1.0000
  C   C4275     1.0  0.75828  0.25146  0.76647  1.0000
  H   H3422     1.0  0.65486  0.15654  0.95992  1.0000
  C   C4276     1.0  0.75854  0.22882  0.79874  1.0000
  H   H3423     1.0  0.76792  0.36324  0.68854  1.0000
  C   C4277     1.0  0.63317  0.21949  0.66951  1.0000
  C   C4278     1.0  0.66073  0.47581  0.50253  1.0000
  H   H3424     1.0  0.62438  0.03865  0.85363  1.0000
  C   C4279     1.0  0.77329  0.27883  0.55186  1.0000
  H   H3425     1.0  0.74763  0.20268  0.79605  1.0000
  C   C4280     1.0  0.75574  0.25023  0.87299  1.0000
  C   C4281     1.0  0.66702  0.12870  0.53794  1.0000
  H   H3426     1.0  0.63811  0.45811  0.72926  1.0000
  H   H3427     1.0  0.59231  0.17847  0.75674  1.0000
  C   C4282     1.0  0.76460  0.26284  0.54898  1.0000
  C   C4283     1.0  0.61737  0.02592  0.86418  1.0000
  H   H3428     1.0  0.60038  0.17851  0.59178  1.0000
  C   C4284     1.0  0.72751  0.17282  0.87300  1.0000
  C   C4285     1.0  0.73326  0.19952  0.84402  1.0000
  C   C4286     1.0  0.73703  0.18948  0.62205  1.0000
  C   C4287     1.0  0.76978  0.26469  0.86593  1.0000
  H   H3429     1.0  0.76907  0.47112  0.61753  1.0000
  C   C4288     1.0  0.63119  0.15945  0.95081  1.0000
  C   C4289     1.0  0.78132  0.25321  0.83405  1.0000
  H   H3430     1.0  0.72697  0.17197  0.60211  1.0000
  H   H3431     1.0  0.58695  0.24955  0.58610  1.0000
  H   H3432     1.0  0.75608  0.40748  0.66693  1.0000
  C   C4290     1.0  0.66371  0.15639  0.51929  1.0000
  C   C4291     1.0  0.75083  0.20245  0.84311  1.0000
  H   H3433     1.0  0.59550  0.22668  0.66115  1.0000
  Fe  Fe287     1.0  0.77051  0.30312  0.67435  1.0000
  H   H3434     1.0  0.74843  0.23327  0.60503  1.0000
  C   C4292     1.0  0.59512  0.07267  0.95415  1.0000
  H   H3435     1.0  0.60323  0.48761  0.71140  1.0000
  H   H3436     1.0  0.70813  0.18253  0.85959  1.0000
  H   H3437     1.0  0.74733  0.20999  0.63770  1.0000
  C   C4293     1.0  0.59646  0.11039  0.57761  1.0000
  C   C4294     1.0  0.61573  0.21852  0.67380  1.0000
  C   C4295     1.0  0.77050  0.21908  0.51313  1.0000
  C   C4296     1.0  0.66522  0.13968  0.51821  1.0000
  C   C4297     1.0  0.59514  0.44429  0.73437  1.0000
  C   C4298     1.0  0.63881  0.47943  0.57198  1.0000
  C   C4299     1.0  0.65200  0.30242  0.57951  1.0000
  H   H3438     1.0  0.74601  0.24892  0.88836  1.0000
  C   C4300     1.0  0.63120  0.47013  0.52292  1.0000
  H   H3439     1.0  0.77093  0.27465  0.87570  1.0000
  C   C4301     1.0  0.74489  0.17580  0.87255  1.0000
  H   H3440     1.0  0.77053  0.25748  0.53548  1.0000
  C   C4302     1.0  0.76275  0.24641  0.78744  1.0000
  H   H3441     1.0  0.76986  0.25630  0.79434  1.0000
  C   C4303     1.0  0.77082  0.38663  0.53914  1.0000
  H   H3442     1.0  0.62538  0.48822  0.62419  1.0000
  H   H3443     1.0  0.66750  0.12543  0.57403  1.0000
  C   C4304     1.0  0.60267  0.00726  0.90173  1.0000
  H   H3444     1.0  0.74678  0.24300  0.73985  1.0000
  H   H3445     1.0  0.74931  0.16691  0.88423  1.0000
  C   C4305     1.0  0.72167  0.18471  0.85882  1.0000
  C   C4306     1.0  0.63890  0.07460  0.50626  1.0000
  H   H3446     1.0  0.66404  0.15471  0.57590  1.0000
  H   H3447     1.0  0.60717  0.20989  0.68932  1.0000
  C   C4307     1.0  0.64809  0.48046  0.51717  1.0000
  C   C4308     1.0  0.75651  0.19055  0.85775  1.0000
  H   H3448     1.0  0.63540  0.27534  0.63265  1.0000
  H   H3449     1.0  0.60340  0.36939  0.71869  1.0000
  H   H3450     1.0  0.74342  0.22621  0.86640  1.0000
  H   H3451     1.0  0.61450  0.43146  0.74248  1.0000
  C   C4309     1.0  0.74981  0.23902  0.75641  1.0000
  H   H3452     1.0  0.62993  0.19064  0.88267  1.0000
  C   C4310     1.0  0.76462  0.48198  0.61003  1.0000
  H   H3453     1.0  0.66851  0.11586  0.53742  1.0000
  C   C4311     1.0  0.59730  0.40975  0.71481  1.0000
  H   H3454     1.0  0.60536  0.15957  0.94810  1.0000
  C   C4312     1.0  0.66668  0.13413  0.55864  1.0000
  H   H3455     1.0  0.72767  0.19526  0.56912  1.0000
  H   H3456     1.0  0.78198  0.21459  0.51268  1.0000
  C   C4313     1.0  0.63708  0.13640  0.47478  1.0000
  C   C4314     1.0  0.63419  0.14264  0.86586  1.0000
  C   C4315     1.0  0.62582  0.19805  0.93700  1.0000
  H   H3457     1.0  0.63274  0.13528  0.85277  1.0000
  H   H3458     1.0  0.77981  0.06668  0.96268  1.0000
  H   H3459     1.0  0.59722  0.13983  0.75606  1.0000
  C   C4316     1.0  0.64110  0.15319  0.96524  1.0000
  C   C4317     1.0  0.60424  0.99556  0.86748  1.0000
  C   C4318     1.0  0.58589  0.40705  0.73626  1.0000
  H   H3460     1.0  0.78129  0.44438  0.55854  1.0000
  C   C4319     1.0  0.58926  0.16950  0.58984  1.0000
  H   H3461     1.0  0.58700  0.19422  0.61863  1.0000
  C   C4320     1.0  0.59216  0.25576  0.62903  1.0000
  C   C4321     1.0  0.58720  0.37705  0.74501  1.0000
  C   C4322     1.0  0.77967  0.05175  0.89439  1.0000
  C   C4323     1.0  0.59136  0.23101  0.56620  1.0000
  C   C4324     1.0  0.59217  0.27230  0.63291  1.0000
  H   H3462     1.0  0.58830  0.42089  0.91291  1.0000
  H   H3463     1.0  0.58902  0.09896  0.59064  1.0000
  C   C4325     1.0  0.60085  0.21923  0.56158  1.0000
  H   H3464     1.0  0.77760  0.47171  0.56825  1.0000
  C   C4326     1.0  0.77972  0.04127  0.91546  1.0000
  H   H3465     1.0  0.78125  0.42981  0.64151  1.0000
  S   S570      1.0  0.58576  0.09177  0.54669  1.0000
  C   C4327     1.0  0.58738  0.16781  0.56779  1.0000
  H   H3466     1.0  0.77261  0.50349  0.08992  1.0000
  S   S571      1.0  0.60274  0.90765  0.30805  1.0000
  H   H3467     1.0  0.65818  0.95910  0.36249  1.0000
  S   S572      1.0  0.59072  0.85540  0.31034  1.0000
  H   H3468     1.0  0.60930  0.84569  0.03743  1.0000
  Fe  Fe288     1.0  0.59406  0.87093  0.99874  1.0000
  C   C4328     1.0  0.76810  0.50254  0.07429  1.0000
  S   S573      1.0  0.61859  0.88371  0.00949  1.0000
  H   H3469     1.0  0.64076  0.49425  0.21039  1.0000
  Fe  Fe289     1.0  0.69580  0.97473  0.29887  1.0000
  S   S574      1.0  0.72028  0.97335  0.27633  1.0000
  S   S575      1.0  0.67586  0.94915  0.31774  1.0000
  H   H3470     1.0  0.61115  0.97136  0.21779  1.0000
  C   C4329     1.0  0.73280  0.52653  0.40641  1.0000
  C   C4330     1.0  0.59863  0.85345  0.06784  1.0000
  C   C4331     1.0  0.60233  0.84131  0.05539  1.0000
  C   C4332     1.0  0.61444  0.98834  0.43638  1.0000
  H   H3471     1.0  0.67054  0.93455  0.37053  1.0000
  Fe  Fe290     1.0  0.71068  0.97056  0.05378  1.0000
  S   S576      1.0  0.69201  0.94899  0.08166  1.0000
  S   S577      1.0  0.73191  0.96301  0.03138  1.0000
  S   S578      1.0  0.67096  0.97688  0.09174  1.0000
  Fe  Fe291     1.0  0.69307  0.96897  0.10345  1.0000
  S   S579      1.0  0.69361  0.96176  0.14199  1.0000
  Fe  Fe292     1.0  0.67154  0.95871  0.06736  1.0000
  S   S580      1.0  0.64573  0.94201  0.06376  1.0000
  S   S581      1.0  0.69017  0.97957  0.03846  1.0000
  H   H3472     1.0  0.75823  0.95215  0.15033  1.0000
  H   H3473     1.0  0.75031  0.50022  0.01949  1.0000
  S   S582      1.0  0.71265  0.60836  0.43496  1.0000
  S   S583      1.0  0.74570  0.57816  0.44418  1.0000
  Fe  Fe293     1.0  0.68665  0.58923  0.44808  1.0000
  S   S584      1.0  0.66719  0.58575  0.42549  1.0000
  H   H3474     1.0  0.64882  0.89936  0.24305  1.0000
  H   H3475     1.0  0.59468  0.50375  0.42983  1.0000
  S   S585      1.0  0.77331  0.53328  0.12318  1.0000
  H   H3476     1.0  0.60975  0.49578  0.46032  1.0000
  Fe  Fe294     1.0  0.60697  0.51635  0.37422  1.0000
  S   S586      1.0  0.61158  0.52584  0.33555  1.0000
  S   S587      1.0  0.62728  0.51917  0.39590  1.0000
  H   H3477     1.0  0.58395  0.52320  0.03794  1.0000
  C   C4333     1.0  0.73959  0.95975  0.11360  1.0000
  C   C4334     1.0  0.60570  0.87348  0.11291  1.0000
  H   H3478     1.0  0.77052  0.87396  0.45671  1.0000
  C   C4335     1.0  0.58467  0.83031  0.10184  1.0000
  H   H3479     1.0  0.60167  0.85442  0.14485  1.0000
  H   H3480     1.0  0.59825  0.78820  0.38390  1.0000
  H   H3481     1.0  0.74725  0.97743  0.20565  1.0000
  C   C4336     1.0  0.73624  0.56124  0.31786  1.0000
  C   C4337     1.0  0.65245  0.49525  0.19803  1.0000
  H   H3482     1.0  0.67065  0.62119  0.43334  1.0000
  C   C4338     1.0  0.77758  0.99308  0.03428  1.0000
  S   S588      1.0  0.74996  0.51029  0.18694  1.0000
  C   C4339     1.0  0.67457  0.53278  0.36624  1.0000
  C   C4340     1.0  0.64487  0.99112  0.30831  1.0000
  C   C4341     1.0  0.62527  0.95224  0.21410  1.0000
  H   H3483     1.0  0.72427  0.93068  0.08353  1.0000
  C   C4342     1.0  0.65658  0.56706  0.41712  1.0000
  C   C4343     1.0  0.64455  0.56865  0.40359  1.0000
  C   C4344     1.0  0.63553  0.55422  0.39689  1.0000
  C   C4345     1.0  0.63841  0.53792  0.40367  1.0000
  C   C4346     1.0  0.65052  0.53632  0.41712  1.0000
  C   C4347     1.0  0.65961  0.55079  0.42372  1.0000
  H   H3484     1.0  0.64211  0.58116  0.39831  1.0000
  H   H3485     1.0  0.62632  0.55573  0.38651  1.0000
  H   H3486     1.0  0.65292  0.52381  0.42242  1.0000
  H   H3487     1.0  0.66884  0.54931  0.43406  1.0000
  Fe  Fe295     1.0  0.73397  0.99147  0.29536  1.0000
  C   C4348     1.0  0.63022  0.49560  0.99886  1.0000
  P   P141      1.0  0.72165  0.56461  0.36203  1.0000
  C   C4349     1.0  0.66564  0.52017  0.00138  1.0000
  C   C4350     1.0  0.66806  0.49730  0.20480  1.0000
  C   C4351     1.0  0.62899  0.65647  0.45696  1.0000
  C   C4352     1.0  0.71553  0.99149  0.19319  1.0000
  C   C4353     1.0  0.61786  0.96323  0.42153  1.0000
  S   S589      1.0  0.58973  0.50016  0.99147  1.0000
  C   C4354     1.0  0.76011  0.59855  0.39966  1.0000
  C   C4355     1.0  0.76004  0.58424  0.41652  1.0000
  P   P142      1.0  0.77188  0.98127  0.10996  1.0000
  H   H3488     1.0  0.75081  0.60586  0.40303  1.0000
  C   C4356     1.0  0.63406  0.97860  0.32734  1.0000
  C   C4357     1.0  0.61672  0.90151  0.20593  1.0000
  C   C4358     1.0  0.65205  0.96213  0.18533  1.0000
  C   C4359     1.0  0.70238  0.97367  0.16109  1.0000
  H   H3489     1.0  0.71824  0.54779  0.44605  1.0000
  H   H3490     1.0  0.76106  0.56975  0.05927  1.0000
  C   C4360     1.0  0.76819  0.94802  0.37165  1.0000
  C   C4361     1.0  0.75590  0.56874  0.34197  1.0000
  C   C4362     1.0  0.62592  0.90069  0.02362  1.0000
  C   C4363     1.0  0.61514  0.90968  0.03401  1.0000
  C   C4364     1.0  0.62151  0.92249  0.04564  1.0000
  C   C4365     1.0  0.63880  0.92673  0.04699  1.0000
  C   C4366     1.0  0.64961  0.91791  0.03630  1.0000
  C   C4367     1.0  0.64320  0.90500  0.02489  1.0000
  H   H3491     1.0  0.60183  0.90661  0.03333  1.0000
  H   H3492     1.0  0.61295  0.92910  0.05382  1.0000
  H   H3493     1.0  0.66289  0.92083  0.03714  1.0000
  H   H3494     1.0  0.65175  0.89823  0.01699  1.0000
  C   C4368     1.0  0.66662  0.49495  0.15938  1.0000
  S   S590      1.0  0.75800  0.98584  0.30597  1.0000
  H   H3495     1.0  0.78289  0.59630  0.03593  1.0000
  C   C4369     1.0  0.59313  0.88526  0.23806  1.0000
  C   C4370     1.0  0.62319  0.91888  0.31077  1.0000
  C   C4371     1.0  0.63039  0.93617  0.29821  1.0000
  C   C4372     1.0  0.64644  0.94566  0.30005  1.0000
  C   C4373     1.0  0.65549  0.93800  0.31459  1.0000
  C   C4374     1.0  0.64821  0.92076  0.32723  1.0000
  C   C4375     1.0  0.63221  0.91125  0.32534  1.0000
  H   H3496     1.0  0.62358  0.94223  0.28684  1.0000
  H   H3497     1.0  0.65186  0.95885  0.29013  1.0000
  H   H3498     1.0  0.65509  0.91464  0.33845  1.0000
  H   H3499     1.0  0.62688  0.89802  0.33516  1.0000
  C   C4376     1.0  0.62930  0.91451  0.39854  1.0000
  C   C4377     1.0  0.60213  0.95371  0.36931  1.0000
  C   C4378     1.0  0.65586  0.91147  0.24569  1.0000
  C   C4379     1.0  0.75397  0.97201  0.02823  1.0000
  C   C4380     1.0  0.76583  0.96528  0.01532  1.0000
  Fe  Fe296     1.0  0.72215  0.58783  0.45506  1.0000
  H   H3500     1.0  0.75091  0.99083  0.04833  1.0000
  H   H3501     1.0  0.76130  0.95453  0.00786  1.0000
  C   C4381     1.0  0.62393  0.91122  0.22041  1.0000
  C   C4382     1.0  0.77545  0.51553  0.05411  1.0000
  H   H3502     1.0  0.66656  0.52034  0.37653  1.0000
  C   C4383     1.0  0.78059  0.55248  0.01772  1.0000
  C   C4384     1.0  0.67404  0.63421  0.43604  1.0000
  C   C4385     1.0  0.76479  0.98017  0.14044  1.0000
  H   H3503     1.0  0.62819  0.51994  0.28557  1.0000
  H   H3504     1.0  0.72654  0.71371  0.45624  1.0000
  C   C4386     1.0  0.76941  0.51485  0.03388  1.0000
  C   C4387     1.0  0.58424  0.93345  0.35304  1.0000
  C   C4388     1.0  0.71459  0.52698  0.23962  1.0000
  C   C4389     1.0  0.69097  0.53907  0.36945  1.0000
  H   H3505     1.0  0.61508  0.89256  0.08034  1.0000
  S   S591      1.0  0.77320  0.51454  0.23837  1.0000
  H   H3506     1.0  0.61831  0.94983  0.42491  1.0000
  C   C4390     1.0  0.75063  0.94444  0.07785  1.0000
  H   H3507     1.0  0.60852  0.92649  0.40039  1.0000
  H   H3508     1.0  0.76818  0.50771  0.98056  1.0000
  C   C4391     1.0  0.72174  0.58618  0.36588  1.0000
  C   C4392     1.0  0.73638  0.60006  0.35666  1.0000
  C   C4393     1.0  0.73608  0.61674  0.35928  1.0000
  C   C4394     1.0  0.72114  0.61975  0.37090  1.0000
  C   C4395     1.0  0.70648  0.60607  0.37992  1.0000
  C   C4396     1.0  0.70677  0.58934  0.37758  1.0000
  C   C4397     1.0  0.63259  0.57205  0.97832  1.0000
  H   H3509     1.0  0.75991  0.97156  0.24553  1.0000
  C   C4398     1.0  0.68310  0.66765  0.44348  1.0000
  C   C4399     1.0  0.76745  0.88420  0.46448  1.0000
  H   H3510     1.0  0.66537  0.50707  0.99974  1.0000
  H   H3511     1.0  0.73810  0.51558  0.40511  1.0000
  C   C4400     1.0  0.76892  0.55347  0.03725  1.0000
  H   H3512     1.0  0.74810  0.59817  0.34748  1.0000
  H   H3513     1.0  0.74749  0.62731  0.35233  1.0000
  H   H3514     1.0  0.72093  0.63265  0.37301  1.0000
  H   H3515     1.0  0.69487  0.60837  0.38895  1.0000
  H   H3516     1.0  0.69526  0.57891  0.38494  1.0000
  H   H3517     1.0  0.69100  0.95245  0.19086  1.0000
  C   C4401     1.0  0.76303  0.51867  0.97592  1.0000
  C   C4402     1.0  0.66814  0.54277  0.35038  1.0000
  H   H3518     1.0  0.77710  0.54592  0.16553  1.0000
  C   C4403     1.0  0.76238  0.95679  0.08430  1.0000
  H   H3519     1.0  0.75944  0.89581  0.43473  1.0000
  C   C4404     1.0  0.63365  0.89408  0.10096  1.0000
  H   H3520     1.0  0.74771  0.55817  0.28428  1.0000
  C   C4405     1.0  0.58774  0.78998  0.39601  1.0000
  H   H3521     1.0  0.65020  0.89214  0.12448  1.0000
  C   C4406     1.0  0.67411  0.91821  0.14273  1.0000
  C   C4407     1.0  0.62621  0.87264  0.13713  1.0000
  C   C4408     1.0  0.72822  0.53040  0.42790  1.0000
  C   C4409     1.0  0.66026  0.92542  0.14205  1.0000
  H   H3522     1.0  0.64367  0.57820  0.98387  1.0000
  C   C4410     1.0  0.77229  0.57493  0.41184  1.0000
  H   H3523     1.0  0.70242  0.96809  0.21882  1.0000
  H   H3524     1.0  0.77890  0.90528  0.37649  1.0000
  C   C4411     1.0  0.63451  0.98190  0.19152  1.0000
  C   C4412     1.0  0.60684  0.54901  0.98526  1.0000
  S   S592      1.0  0.69641  0.56823  0.46644  1.0000
  H   H3525     1.0  0.58387  0.84689  0.40179  1.0000
  H   H3526     1.0  0.71464  0.56625  0.41132  1.0000
  C   C4413     1.0  0.62113  0.55692  0.99247  1.0000
  C   C4414     1.0  0.73341  0.93978  0.08918  1.0000
  C   C4415     1.0  0.69460  0.56534  0.34053  1.0000
  H   H3527     1.0  0.65150  0.55287  0.21804  1.0000
  C   C4416     1.0  0.76942  0.98294  0.24601  1.0000
  C   C4417     1.0  0.71957  0.55513  0.40962  1.0000
  C   C4418     1.0  0.63782  0.88688  0.12129  1.0000
  H   H3528     1.0  0.74713  0.95052  0.19173  1.0000
  C   C4419     1.0  0.59698  0.82367  0.06598  1.0000
  H   H3529     1.0  0.78013  0.73310  0.44099  1.0000
  S   S593      1.0  0.58562  0.72858  0.45974  1.0000
  P   P143      1.0  0.62278  0.96256  0.37460  1.0000
  H   H3530     1.0  0.60606  0.84439  0.42368  1.0000
  H   H3531     1.0  0.65321  0.99065  0.36950  1.0000
  H   H3532     1.0  0.60914  0.65348  0.43802  1.0000
  C   C4420     1.0  0.72149  0.54459  0.42948  1.0000
  C   C4421     1.0  0.61778  0.88723  0.09659  1.0000
  C   C4422     1.0  0.58822  0.81817  0.08923  1.0000
  C   C4423     1.0  0.73427  0.72214  0.46450  1.0000
  C   C4424     1.0  0.59386  0.52208  0.04731  1.0000
  P   P144      1.0  0.77861  0.53241  0.00832  1.0000
  H   H3533     1.0  0.77724  0.56518  0.29000  1.0000
  H   H3534     1.0  0.72029  0.54024  0.23991  1.0000
  H   H3535     1.0  0.62065  0.91510  0.25543  1.0000
  C   C4425     1.0  0.78214  0.93427  0.34415  1.0000
  C   C4426     1.0  0.75697  0.90995  0.46150  1.0000
  H   H3536     1.0  0.59285  0.74444  0.38053  1.0000
  C   C4427     1.0  0.76110  0.89657  0.45194  1.0000
  H   H3537     1.0  0.60286  0.86708  0.05927  1.0000
  Fe  Fe297     1.0  0.76918  0.51153  0.15459  1.0000
  H   H3538     1.0  0.77551  0.96045  0.07470  1.0000
  C   C4428     1.0  0.75992  0.98573  0.03810  1.0000
  H   H3539     1.0  0.61347  0.96370  0.45769  1.0000
  C   C4429     1.0  0.63238  0.94481  0.38117  1.0000
  H   H3540     1.0  0.58684  0.78417  0.31152  1.0000
  C   C4430     1.0  0.72426  0.55141  0.38794  1.0000
  S   S594      1.0  0.58976  0.81888  0.36270  1.0000
  C   C4431     1.0  0.58960  0.84803  0.09106  1.0000
  C   C4432     1.0  0.66673  0.55422  0.00469  1.0000
  C   C4433     1.0  0.69026  0.50485  0.23718  1.0000
  H   H3541     1.0  0.58990  0.90178  0.10076  1.0000
  H   H3542     1.0  0.76448  0.62714  0.43463  1.0000
  C   C4434     1.0  0.70521  0.97450  0.20075  1.0000
  H   H3543     1.0  0.67357  0.91295  0.19995  1.0000
  H   H3544     1.0  0.61595  0.94230  0.22758  1.0000
  C   C4435     1.0  0.66458  0.91111  0.26351  1.0000
  H   H3545     1.0  0.71455  0.94382  0.11589  1.0000
  H   H3546     1.0  0.69515  0.49958  0.19328  1.0000
  H   H3547     1.0  0.66367  0.95989  0.17630  1.0000
  P   P145      1.0  0.58552  0.86409  0.10677  1.0000
  C   C4436     1.0  0.65055  0.99080  0.35257  1.0000
  C   C4437     1.0  0.75572  0.50092  0.03436  1.0000
  C   C4438     1.0  0.73913  0.56509  0.33877  1.0000
  H   H3548     1.0  0.69702  0.64232  0.40907  1.0000
  C   C4439     1.0  0.61902  0.99000  0.39520  1.0000
  H   H3549     1.0  0.59597  0.88104  0.20361  1.0000
  C   C4440     1.0  0.65567  0.92361  0.18349  1.0000
  C   C4441     1.0  0.71704  0.49779  0.24036  1.0000
  H   H3550     1.0  0.73431  0.53368  0.37000  1.0000
  C   C4442     1.0  0.61030  0.86580  0.13280  1.0000
  H   H3551     1.0  0.65697  0.92942  0.12567  1.0000
  C   C4443     1.0  0.75257  0.97817  0.18761  1.0000
  C   C4444     1.0  0.69339  0.66286  0.42598  1.0000
  H   H3552     1.0  0.62323  0.55140  0.00908  1.0000
  C   C4445     1.0  0.60036  0.94138  0.35575  1.0000
  C   C4446     1.0  0.66816  0.65572  0.45741  1.0000
  C   C4447     1.0  0.67726  0.53402  0.98484  1.0000
  H   H3553     1.0  0.71882  0.74038  0.46358  1.0000
  C   C4448     1.0  0.75644  0.95015  0.35805  1.0000
  H   H3554     1.0  0.73486  0.96577  0.12716  1.0000
  C   C4449     1.0  0.59285  0.84166  0.43286  1.0000
  H   H3555     1.0  0.65868  0.98873  0.16667  1.0000
  Fe  Fe298     1.0  0.76988  0.50447  0.20596  1.0000
  C   C4450     1.0  0.70107  0.55548  0.35671  1.0000
  H   H3556     1.0  0.66726  0.56743  0.00595  1.0000
  H   H3557     1.0  0.74864  0.94651  0.32678  1.0000
  H   H3558     1.0  0.64280  0.90488  0.08838  1.0000
  H   H3559     1.0  0.67306  0.56681  0.32536  1.0000
  H   H3560     1.0  0.74679  0.95683  0.36293  1.0000
  H   H3561     1.0  0.76163  0.55796  0.98760  1.0000
  C   C4451     1.0  0.60463  0.66864  0.46308  1.0000
  C   C4452     1.0  0.62212  0.92849  0.39406  1.0000
  H   H3562     1.0  0.58692  0.76765  0.42241  1.0000
  H   H3563     1.0  0.59295  0.67076  0.45861  1.0000
  C   C4453     1.0  0.77026  0.93630  0.33072  1.0000
  H   H3564     1.0  0.65522  0.53802  0.34850  1.0000
  H   H3565     1.0  0.68152  0.91662  0.12688  1.0000
  H   H3566     1.0  0.69545  0.53125  0.38227  1.0000
  H   H3567     1.0  0.63587  0.64912  0.44744  1.0000
  H   H3568     1.0  0.66739  0.53165  0.20850  1.0000
  H   H3569     1.0  0.66560  0.95527  0.22515  1.0000
  H   H3570     1.0  0.63188  0.54708  0.25663  1.0000
  C   C4454     1.0  0.63669  0.97848  0.34968  1.0000
  H   H3571     1.0  0.59966  0.81430  0.05613  1.0000
  C   C4455     1.0  0.77259  0.60373  0.37865  1.0000
  H   H3572     1.0  0.62965  0.86677  0.15258  1.0000
  C   C4456     1.0  0.61508  0.97104  0.44020  1.0000
  H   H3573     1.0  0.73752  0.51873  0.24201  1.0000
  C   C4457     1.0  0.58752  0.95802  0.38000  1.0000
  C   C4458     1.0  0.67818  0.55900  0.33743  1.0000
  H   H3574     1.0  0.62128  0.90190  0.40811  1.0000
  H   H3575     1.0  0.70513  0.67194  0.41571  1.0000
  C   C4459     1.0  0.76989  0.56916  0.04396  1.0000
  C   C4460     1.0  0.73075  0.53692  0.38652  1.0000
  H   H3576     1.0  0.68709  0.68050  0.44640  1.0000
  C   C4461     1.0  0.66955  0.91628  0.18403  1.0000
  C   C4462     1.0  0.60013  0.89491  0.25254  1.0000
  H   H3577     1.0  0.61141  0.93763  0.34760  1.0000
  C   C4463     1.0  0.67365  0.92657  0.26733  1.0000
  C   C4464     1.0  0.67873  0.91361  0.16369  1.0000
  H   H3578     1.0  0.77929  0.87562  0.39365  1.0000
  C   C4465     1.0  0.65490  0.54040  0.02108  1.0000
  C   C4466     1.0  0.65397  0.52327  0.01920  1.0000
  H   H3579     1.0  0.77119  0.93204  0.31467  1.0000
  C   C4467     1.0  0.64929  0.97858  0.17991  1.0000
  H   H3580     1.0  0.68019  0.92634  0.28138  1.0000
  C   C4468     1.0  0.62000  0.51364  0.05064  1.0000
  C   C4469     1.0  0.61901  0.51852  0.07190  1.0000
  C   C4470     1.0  0.60538  0.52485  0.08091  1.0000
  H   H3581     1.0  0.64374  0.49866  0.27651  1.0000
  C   C4471     1.0  0.67772  0.55103  0.98638  1.0000
  C   C4472     1.0  0.60747  0.51572  0.03831  1.0000
  C   C4473     1.0  0.64677  0.91671  0.39027  1.0000
  H   H3582     1.0  0.65254  0.62935  0.46448  1.0000
  C   C4474     1.0  0.63993  0.94873  0.20218  1.0000
  C   C4475     1.0  0.77787  0.62770  0.42878  1.0000
  C   C4476     1.0  0.60140  0.88859  0.21477  1.0000
  H   H3583     1.0  0.68569  0.53164  0.97045  1.0000
  C   C4477     1.0  0.65707  0.93290  0.37759  1.0000
  C   C4478     1.0  0.71281  0.99062  0.15347  1.0000
  H   H3584     1.0  0.69040  0.53162  0.23675  1.0000
  H   H3585     1.0  0.72346  0.55809  0.31503  1.0000
  H   H3586     1.0  0.65232  0.90583  0.39333  1.0000
  H   H3587     1.0  0.60442  0.52810  0.09764  1.0000
  C   C4479     1.0  0.76661  0.56511  0.30359  1.0000
  C   C4480     1.0  0.66519  0.94283  0.23563  1.0000
  H   H3588     1.0  0.64634  0.54316  0.03491  1.0000
  C   C4481     1.0  0.62007  0.97272  0.39883  1.0000
  H   H3589     1.0  0.62862  0.51729  0.08168  1.0000
  C   C4482     1.0  0.58832  0.83646  0.45697  1.0000
  C   C4483     1.0  0.64546  0.49490  0.06206  1.0000
  C   C4484     1.0  0.75240  0.96303  0.17972  1.0000
  P   P146      1.0  0.64398  0.92768  0.20946  1.0000
  H   H3590     1.0  0.63459  0.50920  0.99030  1.0000
  C   C4485     1.0  0.65601  0.92735  0.23169  1.0000
  H   H3591     1.0  0.68971  0.90839  0.16406  1.0000
  C   C4486     1.0  0.64993  0.94689  0.37299  1.0000
  H   H3592     1.0  0.59771  0.53750  0.99632  1.0000
  H   H3593     1.0  0.70209  0.57811  0.33073  1.0000
  P   P147      1.0  0.63753  0.50541  0.03878  1.0000
  H   H3594     1.0  0.62387  0.96896  0.32443  1.0000
  H   H3595     1.0  0.76726  0.95298  0.38715  1.0000
  C   C4487     1.0  0.75861  0.96400  0.15625  1.0000
  H   H3596     1.0  0.58843  0.96727  0.39077  1.0000
  C   C4488     1.0  0.61543  0.90784  0.24380  1.0000
  H   H3597     1.0  0.64063  0.93410  0.16135  1.0000
  Fe  Fe299     1.0  0.59686  0.49898  0.33518  1.0000
  C   C4489     1.0  0.75750  0.94435  0.33759  1.0000
  C   C4490     1.0  0.59280  0.52661  0.06864  1.0000
  H   H3598     1.0  0.60816  0.51232  0.02181  1.0000
  S   S595      1.0  0.71311  0.98973  0.07644  1.0000
  C   C4491     1.0  0.75697  0.96461  0.10221  1.0000
  H   H3599     1.0  0.65961  0.69744  0.45814  1.0000
  C   C4492     1.0  0.72793  0.94730  0.10720  1.0000
  C   C4493     1.0  0.69879  0.96565  0.18480  1.0000
  C   C4494     1.0  0.65110  0.92815  0.16232  1.0000
  C   C4495     1.0  0.69762  0.52202  0.23777  1.0000
  H   H3600     1.0  0.62539  0.52424  0.46685  1.0000
  C   C4496     1.0  0.62254  0.96875  0.20867  1.0000
  H   H3601     1.0  0.75844  0.57156  0.35806  1.0000
  H   H3602     1.0  0.68078  0.95436  0.25672  1.0000
  H   H3603     1.0  0.68651  0.56172  0.97320  1.0000
  C   C4497     1.0  0.65694  0.51357  0.24180  1.0000
  C   C4498     1.0  0.65892  0.52898  0.22542  1.0000
  C   C4499     1.0  0.64997  0.54106  0.23076  1.0000
  C   C4500     1.0  0.63895  0.53783  0.25247  1.0000
  C   C4501     1.0  0.63690  0.52255  0.26882  1.0000
  C   C4502     1.0  0.64582  0.51045  0.26356  1.0000
  C   C4503     1.0  0.68297  0.49832  0.18854  1.0000
  H   H3604     1.0  0.66412  0.89886  0.27460  1.0000
  H   H3605     1.0  0.75900  0.54219  0.04734  1.0000
  H   H3606     1.0  0.62288  0.90372  0.18789  1.0000
  H   H3607     1.0  0.75212  0.91957  0.45171  1.0000
  C   C4504     1.0  0.61378  0.65895  0.45147  1.0000
  H   H3608     1.0  0.75478  0.93897  0.06341  1.0000
  C   C4505     1.0  0.67396  0.94240  0.25340  1.0000
  H   H3609     1.0  0.66599  0.49355  0.14205  1.0000
  P   P148      1.0  0.66849  0.49808  0.23438  1.0000
  H   H3610     1.0  0.77277  0.61504  0.36594  1.0000
  Fe  Fe300     1.0  0.58691  0.87931  0.32235  1.0000
  H   H3611     1.0  0.67222  0.50511  0.04480  1.0000
  C   C4506     1.0  0.74995  0.56123  0.30036  1.0000
  C   C4507     1.0  0.76957  0.56889  0.32438  1.0000
  C   C4508     1.0  0.78128  0.94022  0.36467  1.0000
  C   C4509     1.0  0.68887  0.64615  0.42229  1.0000
  C   C4510     1.0  0.76561  0.53242  0.98713  1.0000
  H   H3612     1.0  0.64298  0.99102  0.29105  1.0000
  H   H3613     1.0  0.73005  0.52256  0.44330  1.0000
  H   H3614     1.0  0.77799  0.52608  0.27949  1.0000
  C   C4511     1.0  0.66378  0.63892  0.45363  1.0000
  C   C4512     1.0  0.72430  0.51488  0.24087  1.0000
  C   C4513     1.0  0.75943  0.54685  0.97999  1.0000
  H   H3615     1.0  0.77479  0.56269  0.19583  1.0000
  H   H3616     1.0  0.77231  0.56381  0.42473  1.0000
  S   S596      1.0  0.70965  0.99122  0.31962  1.0000
  Fe  Fe301     1.0  0.58577  0.53155  0.34302  1.0000
  H   H3617     1.0  0.69375  0.49782  0.15352  1.0000
  H   H3618     1.0  0.77992  0.82331  0.45993  1.0000
  H   H3619     1.0  0.58414  0.80449  0.09745  1.0000
  C   C4514     1.0  0.68224  0.49731  0.16587  1.0000
  C   C4515     1.0  0.66306  0.49706  0.06017  1.0000
  H   H3620     1.0  0.77568  0.60274  0.45023  1.0000
  H   H3621     1.0  0.59375  0.89224  0.27064  1.0000
  H   H3622     1.0  0.78250  0.57201  0.32689  1.0000
  C   C4516     1.0  0.78218  0.58408  0.03090  1.0000
  H   H3623     1.0  0.59807  0.83530  0.46655  1.0000
  C   C4517     1.0  0.65174  0.49397  0.17544  1.0000
  Fe  Fe302     1.0  0.70739  0.61729  0.46838  1.0000
  H   H3624     1.0  0.75137  0.70591  0.46855  1.0000
  H   H3625     1.0  0.67300  0.72514  0.46659  1.0000
  H   H3626     1.0  0.63733  0.55464  0.46812  1.0000
  C   C4518     1.0  0.72990  0.73715  0.46863  1.0000
  S   S597      1.0  0.58516  0.82097  0.95569  1.0000
  C   C4519     1.0  0.68146  0.71314  0.49563  1.0000
  H   H3627     1.0  0.68961  0.68236  0.87519  1.0000
  C   C4520     1.0  0.65044  0.65736  0.83082  1.0000
  H   H3628     1.0  0.59786  0.79601  0.93388  1.0000
  S   S598      1.0  0.61146  0.71399  0.50734  1.0000
  S   S599      1.0  0.76417  0.56727  0.89768  1.0000
  C   C4521     1.0  0.64269  0.49614  0.55761  1.0000
  H   H3629     1.0  0.78013  0.79673  0.49493  1.0000
  C   C4522     1.0  0.70603  0.64601  0.51591  1.0000
  H   H3630     1.0  0.59738  0.77715  0.69317  1.0000
  S   S600      1.0  0.61126  0.73249  0.81995  1.0000
  H   H3631     1.0  0.74781  0.60144  0.51999  1.0000
  Fe  Fe303     1.0  0.69250  0.58041  0.49685  1.0000
  H   H3632     1.0  0.58461  0.69023  0.54633  1.0000
  S   S601      1.0  0.67781  0.56609  0.53300  1.0000
  H   H3633     1.0  0.61746  0.98370  0.92368  1.0000
  S   S602      1.0  0.71889  0.59812  0.48742  1.0000
  Fe  Fe304     1.0  0.72089  0.56071  0.84839  1.0000
  S   S603      1.0  0.70368  0.57844  0.85312  1.0000
  S   S604      1.0  0.71823  0.53844  0.82963  1.0000
  Fe  Fe305     1.0  0.74292  0.57507  0.88118  1.0000
  S   S605      1.0  0.72731  0.59409  0.88766  1.0000
  C   C4523     1.0  0.67118  0.58356  0.58056  1.0000
  Fe  Fe306     1.0  0.70428  0.57200  0.89082  1.0000
  S   S606      1.0  0.68132  0.56569  0.92133  1.0000
  Fe  Fe307     1.0  0.72788  0.59923  0.84938  1.0000
  S   S607      1.0  0.73378  0.62470  0.82195  1.0000
  S   S608      1.0  0.71973  0.55286  0.88653  1.0000
  S   S609      1.0  0.74515  0.58162  0.84258  1.0000
  Fe  Fe308     1.0  0.73072  0.74890  0.55173  1.0000
  S   S610      1.0  0.73354  0.72445  0.57353  1.0000
  S   S611      1.0  0.75281  0.77067  0.52735  1.0000
  Fe  Fe309     1.0  0.69155  0.73680  0.56500  1.0000
  S   S612      1.0  0.69180  0.71210  0.58851  1.0000
  S   S613      1.0  0.66695  0.74479  0.56127  1.0000
  Fe  Fe310     1.0  0.71285  0.72807  0.60085  1.0000
  S   S614      1.0  0.71287  0.71993  0.63937  1.0000
  Fe  Fe311     1.0  0.71234  0.71006  0.55970  1.0000
  S   S615      1.0  0.71000  0.68225  0.55487  1.0000
  S   S616      1.0  0.71100  0.75319  0.57969  1.0000
  Fe  Fe312     1.0  0.75180  0.76540  0.79301  1.0000
  S   S617      1.0  0.73040  0.74873  0.82257  1.0000
  H   H3634     1.0  0.64641  0.64258  0.80512  1.0000
  Fe  Fe313     1.0  0.73317  0.75127  0.75670  1.0000
  S   S618      1.0  0.71072  0.73391  0.78425  1.0000
  S   S619      1.0  0.73446  0.75832  0.71753  1.0000
  Fe  Fe314     1.0  0.71210  0.75611  0.80155  1.0000
  S   S620      1.0  0.68947  0.76564  0.81696  1.0000
  Fe  Fe315     1.0  0.73037  0.72721  0.80340  1.0000
  S   S621      1.0  0.72429  0.70016  0.82743  1.0000
  S   S622      1.0  0.73333  0.77411  0.77308  1.0000
  S   S623      1.0  0.75308  0.74343  0.77475  1.0000
  Fe  Fe316     1.0  0.69810  0.50686  0.63570  1.0000
  S   S624      1.0  0.67514  0.50961  0.65939  1.0000
  S   S625      1.0  0.71287  0.52469  0.60114  1.0000
  C   C4524     1.0  0.67582  0.50726  0.52520  1.0000
  S   S626      1.0  0.69025  0.52501  0.71020  1.0000
  H   H3635     1.0  0.74710  0.69727  0.52359  1.0000
  Fe  Fe317     1.0  0.68897  0.50480  0.68802  1.0000
  C   C4525     1.0  0.60346  0.68717  0.86375  1.0000
  H   H3636     1.0  0.69843  0.50142  0.74701  1.0000
  C   C4526     1.0  0.76315  0.56895  0.76373  1.0000
  H   H3637     1.0  0.63159  0.71101  0.72820  1.0000
  C   C4527     1.0  0.71881  0.73103  0.66079  1.0000
  C   C4528     1.0  0.72475  0.74908  0.65630  1.0000
  C   C4529     1.0  0.72935  0.75713  0.67394  1.0000
  C   C4530     1.0  0.72806  0.74733  0.69627  1.0000
  C   C4531     1.0  0.72200  0.72931  0.70079  1.0000
  C   C4532     1.0  0.71746  0.72126  0.68315  1.0000
  H   H3638     1.0  0.72595  0.75681  0.63922  1.0000
  H   H3639     1.0  0.73402  0.77106  0.67026  1.0000
  H   H3640     1.0  0.72103  0.72157  0.71779  1.0000
  H   H3641     1.0  0.71303  0.70731  0.68674  1.0000
  C   C4533     1.0  0.66335  0.54856  0.92311  1.0000
  C   C4534     1.0  0.66219  0.54016  0.90501  1.0000
  C   C4535     1.0  0.64743  0.52713  0.90638  1.0000
  C   C4536     1.0  0.63366  0.52241  0.92577  1.0000
  C   C4537     1.0  0.63481  0.53077  0.94395  1.0000
  C   C4538     1.0  0.64964  0.54373  0.94265  1.0000
  H   H3642     1.0  0.67264  0.54376  0.88986  1.0000
  H   H3643     1.0  0.64666  0.52073  0.89224  1.0000
  C   C4539     1.0  0.63487  0.67932  0.86504  1.0000
  H   H3644     1.0  0.65047  0.55012  0.95675  1.0000
  C   C4540     1.0  0.70626  0.53247  0.78112  1.0000
  C   C4541     1.0  0.70401  0.51618  0.77248  1.0000
  C   C4542     1.0  0.69954  0.51384  0.75152  1.0000
  C   C4543     1.0  0.69629  0.52710  0.73667  1.0000
  C   C4544     1.0  0.69767  0.54279  0.74296  1.0000
  C   C4545     1.0  0.70237  0.54549  0.76355  1.0000
  H   H3645     1.0  0.70563  0.50418  0.78173  1.0000
  C   C4546     1.0  0.68169  0.69753  0.50958  1.0000
  H   H3646     1.0  0.69508  0.55333  0.73155  1.0000
  H   H3647     1.0  0.70289  0.55865  0.76487  1.0000
  C   C4547     1.0  0.73110  0.64562  0.82394  1.0000
  C   C4548     1.0  0.72363  0.64906  0.84473  1.0000
  C   C4549     1.0  0.72181  0.66585  0.84540  1.0000
  C   C4550     1.0  0.72742  0.67944  0.82537  1.0000
  C   C4551     1.0  0.73476  0.67598  0.80453  1.0000
  C   C4552     1.0  0.73655  0.65917  0.80385  1.0000
  H   H3648     1.0  0.71939  0.63883  0.86032  1.0000
  H   H3649     1.0  0.71613  0.66835  0.86163  1.0000
  H   H3650     1.0  0.73914  0.68626  0.78899  1.0000
  H   H3651     1.0  0.74236  0.65667  0.78768  1.0000
  C   C4553     1.0  0.70270  0.53560  0.58222  1.0000
  C   C4554     1.0  0.71252  0.54595  0.56076  1.0000
  C   C4555     1.0  0.70497  0.55514  0.54533  1.0000
  C   C4556     1.0  0.68755  0.55407  0.55138  1.0000
  C   C4557     1.0  0.67768  0.54353  0.57272  1.0000
  C   C4558     1.0  0.68521  0.53429  0.58812  1.0000
  H   H3652     1.0  0.72603  0.54689  0.55607  1.0000
  H   H3653     1.0  0.71266  0.56320  0.52891  1.0000
  H   H3654     1.0  0.66418  0.54256  0.57744  1.0000
  H   H3655     1.0  0.67753  0.52626  0.60458  1.0000
  C   C4559     1.0  0.71183  0.65582  0.49311  1.0000
  C   C4560     1.0  0.71635  0.67400  0.48925  1.0000
  C   C4561     1.0  0.71541  0.68227  0.50790  1.0000
  C   C4562     1.0  0.70992  0.67249  0.53070  1.0000
  C   C4563     1.0  0.77019  0.75043  0.65998  1.0000
  H   H3656     1.0  0.71905  0.69622  0.50476  1.0000
  C   C4564     1.0  0.63270  0.74109  0.82122  1.0000
  C   C4565     1.0  0.64534  0.73344  0.81201  1.0000
  C   C4566     1.0  0.66272  0.74056  0.81101  1.0000
  C   C4567     1.0  0.66768  0.75563  0.81886  1.0000
  C   C4568     1.0  0.65501  0.76306  0.82851  1.0000
  C   C4569     1.0  0.63760  0.75579  0.82981  1.0000
  H   H3657     1.0  0.64173  0.72216  0.80512  1.0000
  H   H3658     1.0  0.67231  0.73467  0.80363  1.0000
  H   H3659     1.0  0.65870  0.77460  0.83489  1.0000
  H   H3660     1.0  0.62803  0.76178  0.83705  1.0000
  C   C4570     1.0  0.62636  0.72269  0.52299  1.0000
  C   C4571     1.0  0.63968  0.71482  0.52590  1.0000
  C   C4572     1.0  0.65203  0.72130  0.53773  1.0000
  C   C4573     1.0  0.65135  0.73587  0.54671  1.0000
  C   C4574     1.0  0.63784  0.74358  0.54421  1.0000
  C   C4575     1.0  0.62540  0.73704  0.53246  1.0000
  H   H3661     1.0  0.64055  0.70366  0.51882  1.0000
  H   H3662     1.0  0.66211  0.71504  0.53989  1.0000
  H   H3663     1.0  0.75555  0.77446  0.89193  1.0000
  H   H3664     1.0  0.62392  0.66931  0.90178  1.0000
  C   C4576     1.0  0.78293  0.69033  0.49266  1.0000
  H   H3665     1.0  0.60346  0.75214  0.60224  1.0000
  H   H3666     1.0  0.60360  0.68345  0.48916  1.0000
  H   H3667     1.0  0.72381  0.62545  0.59344  1.0000
  H   H3668     1.0  0.71771  0.58909  0.67552  1.0000
  Fe  Fe318     1.0  0.58724  0.71919  0.49679  1.0000
  C   C4577     1.0  0.63192  0.68750  0.84413  1.0000
  C   C4578     1.0  0.71459  0.60797  0.55673  1.0000
  H   H3669     1.0  0.70992  0.70923  0.87577  1.0000
  H   H3670     1.0  0.78277  0.61881  0.74679  1.0000
  C   C4579     1.0  0.70358  0.58182  0.62755  1.0000
  C   C4580     1.0  0.77160  0.57723  0.74075  1.0000
  S   S627      1.0  0.71110  0.73415  0.53554  1.0000
  P   P149      1.0  0.58509  0.97257  0.90911  1.0000
  H   H3671     1.0  0.58760  0.74277  0.69509  1.0000
  C   C4581     1.0  0.61165  0.97017  0.93180  1.0000
  C   C4582     1.0  0.70415  0.52426  0.50332  1.0000
  C   C4583     1.0  0.70332  0.85107  0.85737  1.0000
  C   C4584     1.0  0.77612  0.49675  0.59475  1.0000
  H   H3672     1.0  0.64360  0.52306  0.55728  1.0000
  C   C4585     1.0  0.59823  0.56477  0.91176  1.0000
  C   C4586     1.0  0.61571  0.57105  0.94930  1.0000
  H   H3673     1.0  0.60118  0.98503  0.85902  1.0000
  H   H3674     1.0  0.72006  0.84715  0.55384  1.0000
  H   H3675     1.0  0.61413  0.69779  0.82740  1.0000
  H   H3676     1.0  0.77633  0.86434  0.82398  1.0000
  H   H3677     1.0  0.65900  0.63915  0.87377  1.0000
  H   H3678     1.0  0.63144  0.50029  0.49280  1.0000
  H   H3679     1.0  0.60312  0.73502  0.66111  1.0000
  C   C4587     1.0  0.59756  0.72411  0.60893  1.0000
  H   H3680     1.0  0.70229  0.63205  0.51912  1.0000
  C   C4588     1.0  0.62193  0.67520  0.88534  1.0000
  C   C4589     1.0  0.65707  0.64294  0.89010  1.0000
  C   C4590     1.0  0.75881  0.84944  0.88541  1.0000
  C   C4591     1.0  0.74832  0.53373  0.95105  1.0000
  C   C4592     1.0  0.77831  0.57732  0.91341  1.0000
  C   C4593     1.0  0.73833  0.59979  0.53576  1.0000
  C   C4594     1.0  0.70437  0.83725  0.87409  1.0000
  C   C4595     1.0  0.58621  0.79687  0.92848  1.0000
  H   H3681     1.0  0.75616  0.92147  0.49095  1.0000
  P   P150      1.0  0.61145  0.58086  0.92244  1.0000
  S   S628      1.0  0.71273  0.50405  0.66352  1.0000
  H   H3682     1.0  0.74858  0.81144  0.60758  1.0000
  C   C4596     1.0  0.59356  0.84602  0.89606  1.0000
  H   H3683     1.0  0.75576  0.81388  0.81220  1.0000
  H   H3684     1.0  0.69181  0.85556  0.85905  1.0000
  H   H3685     1.0  0.77571  0.83441  0.52839  1.0000
  C   C4597     1.0  0.60312  0.54955  0.90958  1.0000
  C   C4598     1.0  0.61986  0.96138  0.94655  1.0000
  C   C4599     1.0  0.75037  0.82474  0.54986  1.0000
  H   H3686     1.0  0.69772  0.55660  0.61930  1.0000
  C   C4600     1.0  0.72452  0.58432  0.57528  1.0000
  H   H3687     1.0  0.70526  0.50582  0.55811  1.0000
  C   C4601     1.0  0.63053  0.58973  0.89950  1.0000
  C   C4602     1.0  0.63019  0.60118  0.87926  1.0000
  C   C4603     1.0  0.64471  0.60753  0.86100  1.0000
  C   C4604     1.0  0.65959  0.60231  0.86270  1.0000
  C   C4605     1.0  0.65983  0.59048  0.88245  1.0000
  C   C4606     1.0  0.64533  0.58407  0.90066  1.0000
  C   C4607     1.0  0.76940  0.85729  0.89830  1.0000
  C   C4608     1.0  0.60629  0.67913  0.88466  1.0000
  C   C4609     1.0  0.63382  0.50708  0.59151  1.0000
  S   S629      1.0  0.77521  0.78738  0.79321  1.0000
  C   C4610     1.0  0.58357  0.56752  0.90457  1.0000
  C   C4611     1.0  0.68607  0.69447  0.87154  1.0000
  H   H3688     1.0  0.76734  0.89973  0.51328  1.0000
  C   C4612     1.0  0.74888  0.78134  0.88112  1.0000
  H   H3689     1.0  0.61456  0.54730  0.91458  1.0000
  C   C4613     1.0  0.65480  0.65942  0.89135  1.0000
  H   H3690     1.0  0.63026  0.67921  0.49915  1.0000
  H   H3691     1.0  0.59150  0.69063  0.86335  1.0000
  C   C4614     1.0  0.58917  0.94383  0.93854  1.0000
  H   H3692     1.0  0.61863  0.60501  0.87748  1.0000
  H   H3693     1.0  0.64441  0.61632  0.84542  1.0000
  H   H3694     1.0  0.67088  0.60715  0.84859  1.0000
  H   H3695     1.0  0.67121  0.58605  0.88356  1.0000
  H   H3696     1.0  0.64569  0.57448  0.91539  1.0000
  H   H3697     1.0  0.59642  0.67628  0.90039  1.0000
  H   H3698     1.0  0.66208  0.53743  0.52107  1.0000
  H   H3699     1.0  0.76842  0.60413  0.78762  1.0000
  C   C4615     1.0  0.59541  0.86114  0.90421  1.0000
  C   C4616     1.0  0.71320  0.59494  0.57631  1.0000
  H   H3700     1.0  0.62258  0.62498  0.55788  1.0000
  H   H3701     1.0  0.67470  0.49466  0.56063  1.0000
  H   H3702     1.0  0.74208  0.53457  0.93669  1.0000
  C   C4617     1.0  0.71083  0.51977  0.52253  1.0000
  H   H3703     1.0  0.60027  0.83655  0.90176  1.0000
  H   H3704     1.0  0.59613  0.75537  0.78391  1.0000
  C   C4618     1.0  0.64690  0.51707  0.50951  1.0000
  C   C4619     1.0  0.76564  0.89870  0.49617  1.0000
  H   H3705     1.0  0.70226  0.73729  0.86836  1.0000
  C   C4620     1.0  0.77457  0.76366  0.61929  1.0000
  H   H3706     1.0  0.70517  0.54146  0.65371  1.0000
  C   C4621     1.0  0.62566  0.74301  0.60498  1.0000
  H   H3707     1.0  0.59032  0.70288  0.80032  1.0000
  H   H3708     1.0  0.71630  0.86982  0.82558  1.0000
  C   C4622     1.0  0.60414  0.55599  0.96377  1.0000
  C   C4623     1.0  0.60441  0.70971  0.61230  1.0000
  H   H3709     1.0  0.75588  0.78909  0.63465  1.0000
  C   C4624     1.0  0.63236  0.72862  0.60833  1.0000
  C   C4625     1.0  0.67762  0.72609  0.86281  1.0000
  H   H3710     1.0  0.73638  0.75955  0.48290  1.0000
  C   C4626     1.0  0.70014  0.50893  0.54299  1.0000
  C   C4627     1.0  0.65957  0.70454  0.67395  1.0000
  H   H3711     1.0  0.72072  0.68169  0.47170  1.0000
  P   P151      1.0  0.69757  0.59275  0.60268  1.0000
  H   H3712     1.0  0.74547  0.57827  0.55431  1.0000
  H   H3713     1.0  0.75178  0.53397  0.82225  1.0000
  C   C4628     1.0  0.70938  0.59089  0.64351  1.0000
  C   C4629     1.0  0.68674  0.51794  0.50455  1.0000
  H   H3714     1.0  0.72571  0.80571  0.84104  1.0000
  C   C4630     1.0  0.62979  0.57922  0.95692  1.0000
  H   H3715     1.0  0.59195  0.92144  0.96131  1.0000
  C   C4631     1.0  0.71348  0.58214  0.66305  1.0000
  H   H3716     1.0  0.75139  0.72165  0.63184  1.0000
  C   C4632     1.0  0.61062  0.67578  0.48032  1.0000
  C   C4633     1.0  0.75820  0.72846  0.48266  1.0000
  H   H3717     1.0  0.74561  0.84989  0.88864  1.0000
  C   C4634     1.0  0.63974  0.54414  0.47990  1.0000
  C   C4635     1.0  0.59869  0.99311  0.89154  1.0000
  C   C4636     1.0  0.72722  0.78098  0.85891  1.0000
  H   H3718     1.0  0.67459  0.66985  0.51592  1.0000
  C   C4637     1.0  0.75666  0.52049  0.74696  1.0000
  C   C4638     1.0  0.67666  0.58089  0.60127  1.0000
  H   H3719     1.0  0.65083  0.57671  0.56343  1.0000
  C   C4639     1.0  0.70639  0.55528  0.65079  1.0000
  C   C4640     1.0  0.77158  0.69958  0.50111  1.0000
  C   C4641     1.0  0.65322  0.65227  0.93270  1.0000
  H   H3720     1.0  0.66898  0.56766  0.63762  1.0000
  H   H3721     1.0  0.67966  0.59195  0.56486  1.0000
  C   C4642     1.0  0.63300  0.52695  0.47925  1.0000
  H   H3722     1.0  0.71055  0.60463  0.64116  1.0000
  C   C4643     1.0  0.64890  0.56104  0.62028  1.0000
  H   H3723     1.0  0.70597  0.61628  0.55700  1.0000
  H   H3724     1.0  0.67165  0.72134  0.64027  1.0000
  C   C4644     1.0  0.65471  0.57501  0.57973  1.0000
  Fe  Fe319     1.0  0.58635  0.73633  0.83954  1.0000
  C   C4645     1.0  0.74546  0.85706  0.53200  1.0000
  C   C4646     1.0  0.65308  0.66406  0.91278  1.0000
  H   H3725     1.0  0.71484  0.55747  0.68202  1.0000
  P   P152      1.0  0.75439  0.54585  0.77236  1.0000
  C   C4647     1.0  0.73299  0.54083  0.78941  1.0000
  C   C4648     1.0  0.75195  0.53596  0.74829  1.0000
  C   C4649     1.0  0.74336  0.54261  0.73214  1.0000
  C   C4650     1.0  0.73989  0.53416  0.71465  1.0000
  C   C4651     1.0  0.74489  0.51897  0.71321  1.0000
  C   C4652     1.0  0.72296  0.51969  0.80307  1.0000
  C   C4653     1.0  0.70173  0.51408  0.81770  1.0000
  C   C4654     1.0  0.69080  0.52967  0.81864  1.0000
  C   C4655     1.0  0.70094  0.55090  0.80580  1.0000
  C   C4656     1.0  0.72215  0.55655  0.79100  1.0000
  H   H3726     1.0  0.75644  0.57237  0.79855  1.0000
  H   H3727     1.0  0.73879  0.55397  0.73358  1.0000
  H   H3728     1.0  0.73275  0.53901  0.70271  1.0000
  H   H3729     1.0  0.59639  0.69674  0.61484  1.0000
  H   H3730     1.0  0.72985  0.50985  0.80246  1.0000
  H   H3731     1.0  0.65427  0.71203  0.85729  1.0000
  H   H3732     1.0  0.67766  0.52620  0.82821  1.0000
  H   H3733     1.0  0.69419  0.56079  0.80726  1.0000
  H   H3734     1.0  0.72833  0.56994  0.78266  1.0000
  C   C4657     1.0  0.77865  0.59518  0.73467  1.0000
  C   C4658     1.0  0.63398  0.62765  0.54426  1.0000
  C   C4659     1.0  0.64610  0.61823  0.54675  1.0000
  C   C4660     1.0  0.66087  0.62178  0.52928  1.0000
  C   C4661     1.0  0.66356  0.63477  0.50933  1.0000
  C   C4662     1.0  0.65129  0.64409  0.50647  1.0000
  C   C4663     1.0  0.63658  0.64058  0.52423  1.0000
  H   H3735     1.0  0.72436  0.81837  0.56934  1.0000
  C   C4664     1.0  0.76985  0.88521  0.48668  1.0000
  H   H3736     1.0  0.75223  0.81215  0.55653  1.0000
  C   C4665     1.0  0.58622  0.77615  0.70643  1.0000
  C   C4666     1.0  0.60966  0.73848  0.67429  1.0000
  C   C4667     1.0  0.75232  0.67245  0.52456  1.0000
  P   P153      1.0  0.65549  0.67510  0.86555  1.0000
  P   P154      1.0  0.65521  0.66130  0.48101  1.0000
  C   C4668     1.0  0.67040  0.69499  0.86579  1.0000
  H   H3737     1.0  0.59831  0.67363  0.78733  1.0000
  H   H3738     1.0  0.70078  0.64657  0.55213  1.0000
  H   H3739     1.0  0.75578  0.72369  0.67084  1.0000
  H   H3740     1.0  0.67030  0.61451  0.53113  1.0000
  H   H3741     1.0  0.67527  0.63754  0.49618  1.0000
  H   H3742     1.0  0.62712  0.64782  0.52273  1.0000
  C   C4669     1.0  0.77507  0.52713  0.82527  1.0000
  C   C4670     1.0  0.65002  0.54783  0.49526  1.0000
  P   P155      1.0  0.77644  0.72290  0.49164  1.0000
  H   H3743     1.0  0.73196  0.75808  0.87789  1.0000
  H   H3744     1.0  0.67435  0.73837  0.85959  1.0000
  C   C4671     1.0  0.64361  0.56367  0.59952  1.0000
  H   H3745     1.0  0.68178  0.52173  0.48953  1.0000
  C   C4672     1.0  0.76254  0.57870  0.78065  1.0000
  C   C4673     1.0  0.58659  0.73215  0.75470  1.0000
  C   C4674     1.0  0.76943  0.59663  0.77452  1.0000
  C   C4675     1.0  0.75329  0.51216  0.72932  1.0000
  C   C4676     1.0  0.73221  0.79906  0.85239  1.0000
  C   C4677     1.0  0.66992  0.71984  0.65883  1.0000
  C   C4678     1.0  0.67882  0.73290  0.66756  1.0000
  C   C4679     1.0  0.67751  0.73067  0.69138  1.0000
  C   C4680     1.0  0.66685  0.71548  0.70676  1.0000
  C   C4681     1.0  0.65809  0.70231  0.69782  1.0000
  P   P156      1.0  0.66544  0.71225  0.73754  1.0000
  C   C4682     1.0  0.68100  0.70106  0.74533  1.0000
  C   C4683     1.0  0.66964  0.73314  0.74482  1.0000
  C   C4684     1.0  0.65619  0.74003  0.75328  1.0000
  C   C4685     1.0  0.65965  0.75613  0.75903  1.0000
  C   C4686     1.0  0.67651  0.76547  0.75644  1.0000
  C   C4687     1.0  0.68994  0.75883  0.74771  1.0000
  C   C4688     1.0  0.68655  0.74275  0.74193  1.0000
  C   C4689     1.0  0.68796  0.69135  0.73096  1.0000
  C   C4690     1.0  0.70036  0.68316  0.73686  1.0000
  C   C4691     1.0  0.70588  0.68459  0.75713  1.0000
  C   C4692     1.0  0.69886  0.69403  0.77166  1.0000
  C   C4693     1.0  0.68637  0.70211  0.76591  1.0000
  C   C4694     1.0  0.64420  0.69983  0.75332  1.0000
  C   C4695     1.0  0.62998  0.70192  0.74443  1.0000
  C   C4696     1.0  0.61109  0.68088  0.77783  1.0000
  C   C4697     1.0  0.62512  0.67890  0.78697  1.0000
  C   C4698     1.0  0.64162  0.68832  0.77480  1.0000
  H   H3746     1.0  0.68741  0.74444  0.65572  1.0000
  H   H3747     1.0  0.68515  0.74069  0.69753  1.0000
  H   H3748     1.0  0.65040  0.69017  0.70923  1.0000
  H   H3749     1.0  0.64303  0.73288  0.75616  1.0000
  H   H3750     1.0  0.64924  0.76093  0.76668  1.0000
  H   H3751     1.0  0.67918  0.77758  0.76187  1.0000
  H   H3752     1.0  0.70305  0.76599  0.74583  1.0000
  H   H3753     1.0  0.69717  0.73778  0.73541  1.0000
  H   H3754     1.0  0.68415  0.69035  0.71494  1.0000
  H   H3755     1.0  0.70594  0.67599  0.72547  1.0000
  H   H3756     1.0  0.71570  0.67851  0.76155  1.0000
  H   H3757     1.0  0.70328  0.69524  0.78731  1.0000
  H   H3758     1.0  0.68106  0.70939  0.77739  1.0000
  H   H3759     1.0  0.64037  0.55216  0.63564  1.0000
  H   H3760     1.0  0.62319  0.67011  0.80356  1.0000
  H   H3761     1.0  0.65227  0.68663  0.78229  1.0000
  H   H3762     1.0  0.61524  0.74324  0.53046  1.0000
  H   H3763     1.0  0.68952  0.67511  0.83958  1.0000
  C   C4699     1.0  0.63652  0.51343  0.49401  1.0000
  C   C4700     1.0  0.78149  0.73342  0.51446  1.0000
  C   C4701     1.0  0.66251  0.66697  0.84046  1.0000
  H   H3764     1.0  0.63102  0.55677  0.59868  1.0000
  H   H3765     1.0  0.58714  0.88446  0.90487  1.0000
  H   H3766     1.0  0.75682  0.50015  0.72846  1.0000
  C   C4702     1.0  0.76992  0.78656  0.53157  1.0000
  C   C4703     1.0  0.73701  0.58675  0.55507  1.0000
  C   C4704     1.0  0.73467  0.82825  0.55706  1.0000
  C   C4705     1.0  0.76121  0.85353  0.52440  1.0000
  C   C4706     1.0  0.65744  0.63128  0.91000  1.0000
  C   C4707     1.0  0.77955  0.59424  0.91613  1.0000
  C   C4708     1.0  0.64017  0.50996  0.56763  1.0000
  H   H3767     1.0  0.65552  0.56117  0.49553  1.0000
  C   C4709     1.0  0.70512  0.65430  0.53457  1.0000
  H   H3768     1.0  0.64768  0.79976  0.73549  1.0000
  H   H3769     1.0  0.74321  0.86941  0.52530  1.0000
  C   C4710     1.0  0.75398  0.79945  0.87450  1.0000
  C   C4711     1.0  0.76134  0.73477  0.65635  1.0000
  H   H3770     1.0  0.72423  0.52501  0.52178  1.0000
  H   H3771     1.0  0.76036  0.64935  0.52155  1.0000
  C   C4712     1.0  0.75926  0.91103  0.48359  1.0000
  H   H3772     1.0  0.77163  0.60164  0.90870  1.0000
  P   P157      1.0  0.75226  0.83179  0.85078  1.0000
  C   C4713     1.0  0.73314  0.83941  0.85307  1.0000
  C   C4714     1.0  0.76451  0.83850  0.82114  1.0000
  C   C4715     1.0  0.73200  0.85332  0.83635  1.0000
  C   C4716     1.0  0.71713  0.85910  0.83852  1.0000
  H   H3773     1.0  0.76142  0.75230  0.49444  1.0000
  C   C4717     1.0  0.62579  0.67334  0.48590  1.0000
  C   C4718     1.0  0.71921  0.83145  0.87199  1.0000
  C   C4719     1.0  0.67355  0.71303  0.47706  1.0000
  H   H3774     1.0  0.77105  0.83756  0.58441  1.0000
  P   P158      1.0  0.77833  0.86947  0.50296  1.0000
  H   H3775     1.0  0.62427  0.52729  0.95892  1.0000
  H   H3776     1.0  0.58796  0.77839  0.90688  1.0000
  C   C4720     1.0  0.76577  0.80057  0.62495  1.0000
  C   C4721     1.0  0.77594  0.72456  0.53785  1.0000
  H   H3777     1.0  0.69545  0.50080  0.82659  1.0000
  S   S630      1.0  0.59406  0.87034  0.96140  1.0000
  C   C4722     1.0  0.60097  0.74305  0.69344  1.0000
  H   H3778     1.0  0.74250  0.85973  0.82161  1.0000
  H   H3779     1.0  0.71241  0.53298  0.48766  1.0000
  H   H3780     1.0  0.71985  0.82077  0.88518  1.0000
  C   C4723     1.0  0.59623  0.96144  0.92761  1.0000
  H   H3781     1.0  0.76312  0.74726  0.59893  1.0000
  C   C4724     1.0  0.61623  0.69122  0.84349  1.0000
  H   H3782     1.0  0.77282  0.56988  0.72757  1.0000
  H   H3783     1.0  0.74793  0.52104  0.58593  1.0000
  H   H3784     1.0  0.72813  0.62052  0.52161  1.0000
  C   C4725     1.0  0.67989  0.66818  0.83229  1.0000
  H   H3785     1.0  0.77247  0.82341  0.77226  1.0000
  C   C4726     1.0  0.60052  0.59689  0.92939  1.0000
  C   C4727     1.0  0.78241  0.78616  0.67592  1.0000
  C   C4728     1.0  0.59960  0.62678  0.92755  1.0000
  C   C4729     1.0  0.76357  0.66334  0.51593  1.0000
  C   C4730     1.0  0.71194  0.56434  0.66671  1.0000
  C   C4731     1.0  0.69648  0.61437  0.60507  1.0000
  C   C4732     1.0  0.68069  0.61798  0.61212  1.0000
  C   C4733     1.0  0.67993  0.63498  0.61235  1.0000
  C   C4734     1.0  0.69488  0.64844  0.60565  1.0000
  C   C4735     1.0  0.71065  0.64491  0.59903  1.0000
  C   C4736     1.0  0.71149  0.62793  0.59887  1.0000
  S   S631      1.0  0.61526  0.50621  0.92629  1.0000
  H   H3786     1.0  0.66893  0.60780  0.61715  1.0000
  H   H3787     1.0  0.66773  0.63780  0.61737  1.0000
  H   H3788     1.0  0.69428  0.66169  0.60523  1.0000
  H   H3789     1.0  0.72216  0.65547  0.59349  1.0000
  H   H3790     1.0  0.76334  0.77953  0.56876  1.0000
  H   H3791     1.0  0.65963  0.61876  0.90880  1.0000
  C   C4737     1.0  0.62175  0.71199  0.61194  1.0000
  C   C4738     1.0  0.65574  0.64979  0.81269  1.0000
  H   H3792     1.0  0.62919  0.78123  0.71686  1.0000
  C   C4739     1.0  0.66529  0.56972  0.62124  1.0000
  C   C4740     1.0  0.76840  0.53759  0.78856  1.0000
  C   C4741     1.0  0.70219  0.56393  0.63132  1.0000
  H   H3793     1.0  0.59653  0.94440  0.89159  1.0000
  H   H3794     1.0  0.59287  0.54970  0.95871  1.0000
  H   H3795     1.0  0.64068  0.79592  0.77818  1.0000
  C   C4742     1.0  0.59743  0.93508  0.95317  1.0000
  C   C4743     1.0  0.76362  0.83735  0.53378  1.0000
  C   C4744     1.0  0.65362  0.53437  0.50987  1.0000
  C   C4745     1.0  0.77529  0.85535  0.81277  1.0000
  C   C4746     1.0  0.68507  0.66007  0.81476  1.0000
  H   H3796     1.0  0.59348  0.71150  0.56879  1.0000
  H   H3797     1.0  0.64409  0.60823  0.56226  1.0000
  C   C4747     1.0  0.76387  0.53295  0.81283  1.0000
  C   C4748     1.0  0.77218  0.78819  0.55355  1.0000
  H   H3798     1.0  0.77131  0.75110  0.67738  1.0000
  H   H3799     1.0  0.61484  0.77368  0.80213  1.0000
  C   C4749     1.0  0.66589  0.69730  0.47242  1.0000
  C   C4750     1.0  0.69755  0.70967  0.87230  1.0000
  H   H3800     1.0  0.74664  0.55888  0.95602  1.0000
  H   H3801     1.0  0.58616  0.92636  0.86590  1.0000
  H   H3802     1.0  0.72374  0.57400  0.58981  1.0000
  H   H3803     1.0  0.65188  0.67689  0.91401  1.0000
  H   H3804     1.0  0.65200  0.65598  0.94915  1.0000
  C   C4751     1.0  0.61277  0.94385  0.95721  1.0000
  C   C4752     1.0  0.72718  0.61046  0.53665  1.0000
  H   H3805     1.0  0.76245  0.51452  0.75984  1.0000
  C   C4753     1.0  0.76540  0.84134  0.86845  1.0000
  C   C4754     1.0  0.67306  0.65107  0.80474  1.0000
  H   H3806     1.0  0.65312  0.69421  0.66707  1.0000
  C   C4755     1.0  0.77221  0.97656  0.95742  1.0000
  H   H3807     1.0  0.60664  0.73022  0.77303  1.0000
  C   C4756     1.0  0.58490  0.70841  0.78661  1.0000
  H   H3808     1.0  0.63691  0.65547  0.83750  1.0000
  H   H3809     1.0  0.64192  0.69141  0.82842  1.0000
  C   C4757     1.0  0.58617  0.87300  0.89784  1.0000
  H   H3810     1.0  0.62712  0.70091  0.61380  1.0000
  H   H3811     1.0  0.59712  0.52532  0.89936  1.0000
  C   C4758     1.0  0.65541  0.63589  0.93131  1.0000
  C   C4759     1.0  0.73977  0.74795  0.47944  1.0000
  C   C4760     1.0  0.78165  0.79795  0.51201  1.0000
  H   H3812     1.0  0.69850  0.66080  0.80893  1.0000
  H   H3813     1.0  0.67723  0.64497  0.79098  1.0000
  C   C4761     1.0  0.60831  0.74080  0.60530  1.0000
  C   C4762     1.0  0.61353  0.69238  0.75657  1.0000
  H   H3814     1.0  0.63710  0.75481  0.55116  1.0000
  C   C4763     1.0  0.76352  0.82710  0.80626  1.0000
  C   C4764     1.0  0.66624  0.71099  0.86151  1.0000
  H   H3815     1.0  0.62144  0.61933  0.91165  1.0000
  H   H3816     1.0  0.64591  0.73040  0.60735  1.0000
  P   P159      1.0  0.59796  0.75284  0.73558  1.0000
  H   H3817     1.0  0.60262  0.69407  0.74961  1.0000
  H   H3818     1.0  0.71701  0.77387  0.85254  1.0000
  C   C4765     1.0  0.62679  0.73837  0.67214  1.0000
  C   C4766     1.0  0.63516  0.74261  0.68926  1.0000
  C   C4767     1.0  0.62651  0.74711  0.70846  1.0000
  C   C4768     1.0  0.60949  0.74789  0.71032  1.0000
  H   H3819     1.0  0.69366  0.83103  0.88872  1.0000
  H   H3820     1.0  0.59005  0.84628  0.82807  1.0000
  C   C4769     1.0  0.58410  0.59140  0.94395  1.0000
  C   C4770     1.0  0.61174  0.76627  0.74907  1.0000
  C   C4771     1.0  0.60750  0.76475  0.77307  1.0000
  C   C4772     1.0  0.61798  0.77533  0.78348  1.0000
  C   C4773     1.0  0.63252  0.78785  0.76998  1.0000
  C   C4774     1.0  0.63650  0.78991  0.74597  1.0000
  C   C4775     1.0  0.62609  0.77925  0.73550  1.0000
  H   H3821     1.0  0.63412  0.75590  0.60131  1.0000
  C   C4776     1.0  0.77003  0.51085  0.58603  1.0000
  C   C4777     1.0  0.69332  0.72547  0.86797  1.0000
  C   C4778     1.0  0.67413  0.68176  0.50493  1.0000
  C   C4779     1.0  0.74572  0.80844  0.85998  1.0000
  H   H3822     1.0  0.63864  0.59108  0.94631  1.0000
  C   C4780     1.0  0.73225  0.84444  0.54825  1.0000
  H   H3823     1.0  0.68707  0.72531  0.49956  1.0000
  H   H3824     1.0  0.74665  0.97964  0.96498  1.0000
  H   H3825     1.0  0.76434  0.86364  0.91124  1.0000
  H   H3826     1.0  0.68764  0.69762  0.52418  1.0000
  C   C4781     1.0  0.59328  0.53709  0.90088  1.0000
  H   H3827     1.0  0.63356  0.73490  0.65727  1.0000
  H   H3828     1.0  0.64840  0.74244  0.68765  1.0000
  H   H3829     1.0  0.63312  0.74995  0.72179  1.0000
  H   H3830     1.0  0.75251  0.50878  0.94929  1.0000
  H   H3831     1.0  0.76455  0.80627  0.88043  1.0000
  H   H3832     1.0  0.74049  0.66555  0.53702  1.0000
  H   H3833     1.0  0.65588  0.62689  0.94666  1.0000
  C   C4782     1.0  0.75083  0.54745  0.96205  1.0000
  C   C4783     1.0  0.77979  0.73300  0.55520  1.0000
  C   C4784     1.0  0.75889  0.73361  0.63435  1.0000
  H   H3834     1.0  0.77370  0.77502  0.84308  1.0000
  H   H3835     1.0  0.60568  0.64049  0.92155  1.0000
  C   C4785     1.0  0.68271  0.50270  0.54437  1.0000
  H   H3836     1.0  0.59673  0.82236  0.81122  1.0000
  C   C4786     1.0  0.63517  0.66368  0.47424  1.0000
  H   H3837     1.0  0.60372  0.86341  0.91591  1.0000
  S   S632      1.0  0.68070  0.60008  0.47952  1.0000
  C   C4787     1.0  0.75618  0.69047  0.51700  1.0000
  C   C4788     1.0  0.58575  0.94649  0.88466  1.0000
  C   C4789     1.0  0.75266  0.51010  0.59240  1.0000
  C   C4790     1.0  0.73560  0.77211  0.87320  1.0000
  H   H3838     1.0  0.76574  0.83832  0.48632  1.0000
  H   H3839     1.0  0.74187  0.51225  0.69994  1.0000
  C   C4791     1.0  0.60845  0.61471  0.92181  1.0000
  C   C4792     1.0  0.76545  0.74806  0.61583  1.0000
  H   H3840     1.0  0.77957  0.77472  0.60472  1.0000
  C   C4793     1.0  0.76158  0.81321  0.60962  1.0000
  C   C4794     1.0  0.59401  0.72415  0.77135  1.0000
  C   C4795     1.0  0.77745  0.60489  0.75151  1.0000
  C   C4796     1.0  0.66602  0.68153  0.48642  1.0000
  H   H3841     1.0  0.77860  0.52248  0.57450  1.0000
  P   P160      1.0  0.65308  0.50012  0.52731  1.0000
  C   C4797     1.0  0.75393  0.74369  0.48625  1.0000
  C   C4798     1.0  0.77887  0.67227  0.49997  1.0000
  C   C4799     1.0  0.77691  0.76502  0.64145  1.0000
  C   C4800     1.0  0.77306  0.83250  0.78339  1.0000
  C   C4801     1.0  0.75433  0.51929  0.95807  1.0000
  H   H3842     1.0  0.63177  0.96815  0.94972  1.0000
  C   C4802     1.0  0.76661  0.79595  0.70676  1.0000
  H   H3843     1.0  0.77521  0.72617  0.57320  1.0000
  H   H3844     1.0  0.63236  0.51785  0.59923  1.0000
  H   H3845     1.0  0.76846  0.71126  0.54292  1.0000
  H   H3846     1.0  0.76804  0.96286  0.95804  1.0000
  C   C4803     1.0  0.77421  0.82794  0.59662  1.0000
  H   H3847     1.0  0.77967  0.51752  0.91032  1.0000
  H   H3848     1.0  0.72784  0.49477  0.61247  1.0000
  C   C4804     1.0  0.77921  0.84357  0.47836  1.0000
  H   H3849     1.0  0.76431  0.80156  0.67163  1.0000
  C   C4805     1.0  0.78260  0.84098  0.86494  1.0000
  C   C4806     1.0  0.77062  0.79523  0.68348  1.0000
  H   H3850     1.0  0.75718  0.80257  0.71268  1.0000
  H   H3851     1.0  0.77144  0.52360  0.84401  1.0000
  Fe  Fe320     1.0  0.59109  0.49784  0.95483  1.0000
  C   C4807     1.0  0.76016  0.98604  0.96127  1.0000
  C   C4808     1.0  0.74128  0.49530  0.60738  1.0000
  C   C4809     1.0  0.74833  0.71774  0.47157  1.0000
  C   C4810     1.0  0.58383  0.82118  0.82043  1.0000
  S   S633      1.0  0.71387  0.64612  0.46888  1.0000
  C   C4811     1.0  0.77424  0.78758  0.72267  1.0000
  C   C4812     1.0  0.78266  0.80259  0.62739  1.0000
  H   H3852     1.0  0.77093  0.78792  0.74079  1.0000
  H   H3853     1.0  0.61915  0.93701  0.96859  1.0000
  C   C4813     1.0  0.84675  0.35800  0.32347  1.0000
  S   S634      1.0  0.83531  0.01243  0.40929  1.0000
  Fe  Fe321     1.0  0.86792  0.00782  0.35895  1.0000
  S   S635      1.0  0.86014  0.03277  0.35926  1.0000
  H   H3854     1.0  0.96827  0.00651  0.39907  1.0000
  Fe  Fe322     1.0  0.86288  0.02775  0.39644  1.0000
  S   S636      1.0  0.87123  0.04651  0.41905  1.0000
  Fe  Fe323     1.0  0.83319  0.01541  0.37217  1.0000
  S   S637      1.0  0.80914  0.02192  0.36210  1.0000
  C   C4814     1.0  0.80216  0.06741  0.34029  1.0000
  C   C4815     1.0  0.82537  0.42515  0.28668  1.0000
  C   C4816     1.0  0.96021  0.46922  0.44329  1.0000
  H   H3855     1.0  0.79649  0.04167  0.06396  1.0000
  C   C4817     1.0  0.78561  0.28356  0.07325  1.0000
  H   H3856     1.0  0.89012  0.26523  0.43673  1.0000
  S   S638      1.0  0.94121  0.09457  0.42898  1.0000
  C   C4818     1.0  0.95085  0.36402  0.35333  1.0000
  C   C4819     1.0  0.79944  0.05501  0.42234  1.0000
  H   H3857     1.0  0.97448  0.07012  0.41212  1.0000
  H   H3858     1.0  0.82942  0.41446  0.32001  1.0000
  C   C4820     1.0  0.92060  0.31132  0.42230  1.0000
  C   C4821     1.0  0.81591  0.32821  0.28522  1.0000
  C   C4822     1.0  0.78978  0.23406  0.21038  1.0000
  C   C4823     1.0  0.88909  0.41152  0.12335  1.0000
  S   S639      1.0  0.96320  0.03882  0.29439  1.0000
  C   C4824     1.0  0.96643  0.00097  0.41730  1.0000
  H   H3859     1.0  0.91575  0.38851  0.42024  1.0000
  H   H3860     1.0  0.83834  0.44496  0.00863  1.0000
  S   S640      1.0  0.85025  0.25532  0.44153  1.0000
  S   S641      1.0  0.84244  0.30196  0.44484  1.0000
  S   S642      1.0  0.80956  0.22622  0.42775  1.0000
  H   H3861     1.0  0.81426  0.29552  0.33766  1.0000
  S   S643      1.0  0.90687  0.39989  0.98901  1.0000
  H   H3862     1.0  0.93011  0.30608  0.38936  1.0000
  Fe  Fe324     1.0  0.89628  0.37099  0.99802  1.0000
  S   S644      1.0  0.88396  0.35469  0.03435  1.0000
  S   S645      1.0  0.92012  0.36588  0.97857  1.0000
  H   H3863     1.0  0.80439  0.04010  0.45258  1.0000
  Fe  Fe325     1.0  0.90280  0.40646  0.35508  1.0000
  S   S646      1.0  0.91395  0.42059  0.31783  1.0000
  S   S647      1.0  0.89251  0.41661  0.38596  1.0000
  Fe  Fe326     1.0  0.90695  0.37191  0.34570  1.0000
  S   S648      1.0  0.91880  0.38335  0.30789  1.0000
  S   S649      1.0  0.90432  0.34357  0.36043  1.0000
  Fe  Fe327     1.0  0.93372  0.40540  0.31992  1.0000
  S   S650      1.0  0.96247  0.41473  0.30504  1.0000
  Fe  Fe328     1.0  0.89805  0.39727  0.30878  1.0000
  S   S651      1.0  0.88122  0.40034  0.28251  1.0000
  S   S652      1.0  0.92345  0.39271  0.35760  1.0000
  S   S653      1.0  0.88536  0.38447  0.34608  1.0000
  Fe  Fe329     1.0  0.80028  0.36757  0.18917  1.0000
  S   S654      1.0  0.82834  0.37905  0.17443  1.0000
  S   S655      1.0  0.82999  0.34027  0.16727  1.0000
  Fe  Fe330     1.0  0.83157  0.35481  0.19577  1.0000
  S   S656      1.0  0.85280  0.35392  0.21558  1.0000
  Fe  Fe331     1.0  0.82445  0.36375  0.14735  1.0000
  S   S657      1.0  0.83532  0.37824  0.10976  1.0000
  C   C4825     1.0  0.79975  0.41406  0.17341  1.0000
  C   C4826     1.0  0.80278  0.43208  0.16531  1.0000
  H   H3864     1.0  0.80753  0.40702  0.16461  1.0000
  H   H3865     1.0  0.81288  0.43880  0.15023  1.0000
  C   C4827     1.0  0.87279  0.38645  0.26525  1.0000
  C   C4828     1.0  0.85947  0.38993  0.25503  1.0000
  C   C4829     1.0  0.85297  0.37992  0.24022  1.0000
  C   C4830     1.0  0.85986  0.36640  0.23515  1.0000
  C   C4831     1.0  0.87302  0.36277  0.24561  1.0000
  C   C4832     1.0  0.87940  0.37266  0.26062  1.0000
  H   H3866     1.0  0.85417  0.40048  0.25856  1.0000
  H   H3867     1.0  0.84271  0.38270  0.23260  1.0000
  H   H3868     1.0  0.87844  0.35232  0.24192  1.0000
  H   H3869     1.0  0.88971  0.36986  0.26816  1.0000
  C   C4833     1.0  0.92078  0.46860  0.39716  1.0000
  C   C4834     1.0  0.90711  0.45751  0.41439  1.0000
  C   C4835     1.0  0.89836  0.44170  0.41063  1.0000
  C   C4836     1.0  0.90335  0.43681  0.38979  1.0000
  C   C4837     1.0  0.91707  0.44788  0.37267  1.0000
  C   C4838     1.0  0.92572  0.46369  0.37636  1.0000
  H   H3870     1.0  0.90343  0.46104  0.43061  1.0000
  H   H3871     1.0  0.88778  0.43316  0.42395  1.0000
  H   H3872     1.0  0.92107  0.44422  0.35660  1.0000
  H   H3873     1.0  0.93638  0.47214  0.36304  1.0000
  C   C4839     1.0  0.87025  0.36139  0.05486  1.0000
  C   C4840     1.0  0.86751  0.37793  0.05046  1.0000
  C   C4841     1.0  0.85679  0.38292  0.06749  1.0000
  C   C4842     1.0  0.84877  0.37144  0.08902  1.0000
  C   C4843     1.0  0.85140  0.35486  0.09331  1.0000
  C   C4844     1.0  0.86206  0.34987  0.07624  1.0000
  H   H3874     1.0  0.87368  0.38680  0.03396  1.0000
  H   H3875     1.0  0.85472  0.39573  0.06400  1.0000
  H   H3876     1.0  0.84521  0.34587  0.10977  1.0000
  H   H3877     1.0  0.86405  0.33702  0.07962  1.0000
  H   H3878     1.0  0.80959  0.06145  0.30733  1.0000
  C   C4845     1.0  0.92256  0.37157  0.44696  1.0000
  C   C4846     1.0  0.83762  0.32287  0.30590  1.0000
  C   C4847     1.0  0.84678  0.31942  0.28605  1.0000
  H   H3879     1.0  0.84682  0.42057  0.02979  1.0000
  C   C4848     1.0  0.96722  0.40939  0.00240  1.0000
  H   H3880     1.0  0.92546  0.19729  0.43723  1.0000
  H   H3881     1.0  0.95553  0.39930  0.00984  1.0000
  C   C4849     1.0  0.95407  0.43941  0.40284  1.0000
  C   C4850     1.0  0.97577  0.42754  0.31887  1.0000
  H   H3882     1.0  0.80445  0.40358  0.23732  1.0000
  C   C4851     1.0  0.85960  0.31327  0.42121  1.0000
  C   C4852     1.0  0.86130  0.33083  0.41180  1.0000
  C   C4853     1.0  0.87475  0.34018  0.39281  1.0000
  C   C4854     1.0  0.88663  0.33202  0.38318  1.0000
  C   C4855     1.0  0.88483  0.31444  0.39245  1.0000
  C   C4856     1.0  0.87143  0.30510  0.41151  1.0000
  H   H3883     1.0  0.85217  0.33722  0.41920  1.0000
  H   H3884     1.0  0.87599  0.35372  0.38580  1.0000
  H   H3885     1.0  0.89386  0.30803  0.38490  1.0000
  H   H3886     1.0  0.87021  0.29159  0.41857  1.0000
  C   C4857     1.0  0.79726  0.20755  0.42062  1.0000
  H   H3887     1.0  0.97266  0.99413  0.98744  1.0000
  Fe  Fe332     1.0  0.80144  0.33115  0.18218  1.0000
  H   H3888     1.0  0.79529  0.48699  0.21911  1.0000
  S   S658      1.0  0.78683  0.30229  0.18958  1.0000
  C   C4858     1.0  0.84549  0.37339  0.32999  1.0000
  C   C4859     1.0  0.88438  0.44038  0.99077  1.0000
  C   C4860     1.0  0.84366  0.04430  0.97167  1.0000
  H   H3889     1.0  0.79241  0.22281  0.39061  1.0000
  C   C4861     1.0  0.79491  0.01142  0.34679  1.0000
  H   H3890     1.0  0.92801  0.00691  0.39255  1.0000
  C   C4862     1.0  0.84159  0.47950  0.43887  1.0000
  H   H3891     1.0  0.96947  0.03510  0.12464  1.0000
  H   H3892     1.0  0.80601  0.99402  0.26420  1.0000
  C   C4863     1.0  0.89112  0.05889  0.42208  1.0000
  C   C4864     1.0  0.89139  0.06620  0.44150  1.0000
  C   C4865     1.0  0.90662  0.07675  0.44426  1.0000
  C   C4866     1.0  0.92179  0.08040  0.42738  1.0000
  C   C4867     1.0  0.92151  0.07313  0.40794  1.0000
  C   C4868     1.0  0.90637  0.06228  0.40541  1.0000
  H   H3893     1.0  0.85342  0.33279  0.00044  1.0000
  C   C4869     1.0  0.92888  0.48118  0.00530  1.0000
  H   H3894     1.0  0.93306  0.07601  0.39461  1.0000
  H   H3895     1.0  0.90638  0.05693  0.39028  1.0000
  H   H3896     1.0  0.89681  0.43829  0.98485  1.0000
  C   C4870     1.0  0.94391  0.35833  0.37711  1.0000
  C   C4871     1.0  0.90646  0.01097  0.32165  1.0000
  C   C4872     1.0  0.91287  0.02742  0.32527  1.0000
  C   C4873     1.0  0.93029  0.03592  0.31668  1.0000
  C   C4874     1.0  0.94146  0.02780  0.30513  1.0000
  C   C4875     1.0  0.93513  0.01118  0.30207  1.0000
  C   C4876     1.0  0.90655  0.36173  0.41997  1.0000
  H   H3897     1.0  0.90431  0.03379  0.33402  1.0000
  H   H3898     1.0  0.93507  0.04886  0.31885  1.0000
  Fe  Fe333     1.0  0.82394  0.23655  0.45419  1.0000
  H   H3899     1.0  0.83500  0.04435  0.43482  1.0000
  H   H3900     1.0  0.88614  0.48373  0.40033  1.0000
  C   C4877     1.0  0.81296  0.09719  0.34216  1.0000
  H   H3901     1.0  0.84794  0.41006  0.12027  1.0000
  C   C4878     1.0  0.85611  0.43027  0.01589  1.0000
  C   C4879     1.0  0.79915  0.42411  0.25373  1.0000
  C   C4880     1.0  0.96903  0.43617  0.33482  1.0000
  H   H3902     1.0  0.79663  0.48604  0.01789  1.0000
  C   C4881     1.0  0.90071  0.42578  0.04693  1.0000
  C   C4882     1.0  0.90754  0.41147  0.04753  1.0000
  C   C4883     1.0  0.92328  0.41305  0.03295  1.0000
  C   C4884     1.0  0.93214  0.42887  0.01762  1.0000
  C   C4885     1.0  0.92548  0.44340  0.01698  1.0000
  C   C4886     1.0  0.90960  0.44168  0.03173  1.0000
  P   P161      1.0  0.93693  0.46376  0.99670  1.0000
  H   H3903     1.0  0.98149  0.99658  0.22317  1.0000
  C   C4887     1.0  0.95953  0.46861  0.99599  1.0000
  C   C4888     1.0  0.96568  0.46065  0.01422  1.0000
  C   C4889     1.0  0.91214  0.34067  0.44985  1.0000
  H   H3904     1.0  0.80410  0.33189  0.28469  1.0000
  P   P162      1.0  0.90846  0.31826  0.46482  1.0000
  H   H3905     1.0  0.79814  0.01395  0.08660  1.0000
  H   H3906     1.0  0.88086  0.47385  0.44247  1.0000
  C   C4890     1.0  0.84473  0.48526  0.41482  1.0000
  C   C4891     1.0  0.79303  0.11223  0.42062  1.0000
  C   C4892     1.0  0.94114  0.21398  0.45335  1.0000
  Fe  Fe334     1.0  0.97198  0.99650  0.06252  1.0000
  C   C4893     1.0  0.91763  0.00288  0.31008  1.0000
  C   C4894     1.0  0.80798  0.48349  0.00850  1.0000
  H   H3907     1.0  0.97282  0.35463  0.42182  1.0000
  H   H3908     1.0  0.83082  0.03765  0.00767  1.0000
  C   C4895     1.0  0.81654  0.03991  0.20170  1.0000
  H   H3909     1.0  0.85862  0.01023  0.26413  1.0000
  H   H3910     1.0  0.88835  0.42440  0.05802  1.0000
  H   H3911     1.0  0.90049  0.39906  0.05897  1.0000
  H   H3912     1.0  0.92840  0.40184  0.03306  1.0000
  H   H3913     1.0  0.94414  0.42974  0.00607  1.0000
  H   H3914     1.0  0.90392  0.45248  0.03145  1.0000
  H   H3915     1.0  0.90090  0.36458  0.40530  1.0000
  C   C4896     1.0  0.93746  0.49174  0.01781  1.0000
  H   H3916     1.0  0.92930  0.32409  0.41808  1.0000
  C   C4897     1.0  0.87979  0.45443  0.97889  1.0000
  C   C4898     1.0  0.96987  0.43978  0.40832  1.0000
  H   H3917     1.0  0.93490  0.01512  0.00842  1.0000
  H   H3918     1.0  0.85662  0.01638  0.30313  1.0000
  C   C4899     1.0  0.80963  0.48274  0.98529  1.0000
  H   H3919     1.0  0.78928  0.44142  0.27271  1.0000
  C   C4900     1.0  0.79511  0.09729  0.41336  1.0000
  C   C4901     1.0  0.92123  0.30108  0.40608  1.0000
  H   H3920     1.0  0.89796  0.33428  0.42436  1.0000
  H   H3921     1.0  0.83485  0.48884  0.40688  1.0000
  C   C4902     1.0  0.97013  0.36041  0.43643  1.0000
  C   C4903     1.0  0.82931  0.03978  0.99002  1.0000
  Fe  Fe335     1.0  0.83903  0.27341  0.45960  1.0000
  H   H3922     1.0  0.95336  0.05696  0.45482  1.0000
  S   S659      1.0  0.85850  0.00744  0.00342  1.0000
  C   C4904     1.0  0.86164  0.41515  0.11725  1.0000
  C   C4905     1.0  0.90977  0.99772  0.02195  1.0000
  H   H3923     1.0  0.85307  0.30838  0.37547  1.0000
  H   H3924     1.0  0.83346  0.02863  0.31950  1.0000
  C   C4906     1.0  0.91572  0.40072  0.17550  1.0000
  H   H3925     1.0  0.80037  0.23306  0.19760  1.0000
  H   H3926     1.0  0.81449  0.10721  0.35178  1.0000
  C   C4907     1.0  0.90267  0.40413  0.16476  1.0000
  P   P163      1.0  0.80875  0.03162  0.25030  1.0000
  C   C4908     1.0  0.79701  0.04537  0.26286  1.0000
  C   C4909     1.0  0.82329  0.02601  0.26773  1.0000
  C   C4910     1.0  0.82215  0.02925  0.28993  1.0000
  C   C4911     1.0  0.95169  0.36627  0.39254  1.0000
  C   C4912     1.0  0.86334  0.45669  0.98560  1.0000
  C   C4913     1.0  0.87257  0.42831  0.00924  1.0000
  C   C4914     1.0  0.98041  0.11677  0.39144  1.0000
  C   C4915     1.0  0.80316  0.06350  0.25654  1.0000
  H   H3927     1.0  0.84978  0.35813  0.30521  1.0000
  C   C4916     1.0  0.94482  0.42450  0.39794  1.0000
  C   C4917     1.0  0.81957  0.29298  0.35262  1.0000
  H   H3928     1.0  0.89319  0.45150  0.08982  1.0000
  C   C4918     1.0  0.82170  0.04298  0.22183  1.0000
  C   C4919     1.0  0.94180  0.04733  0.45570  1.0000
  C   C4920     1.0  0.94388  0.45790  0.45082  1.0000
  C   C4921     1.0  0.84257  0.06026  0.17793  1.0000
  C   C4922     1.0  0.84782  0.06338  0.19784  1.0000
  C   C4923     1.0  0.83745  0.05479  0.21970  1.0000
  C   C4924     1.0  0.78492  0.03140  0.07168  1.0000
  S   S660      1.0  0.88286  0.37041  0.96874  1.0000
  C   C4925     1.0  0.97997  0.44697  0.34466  1.0000
  H   H3929     1.0  0.79942  0.99469  0.40408  1.0000
  C   C4926     1.0  0.94216  0.00305  0.36120  1.0000
  H   H3930     1.0  0.84616  0.47700  0.01592  1.0000
  C   C4927     1.0  0.83597  0.47842  0.00725  1.0000
  C   C4928     1.0  0.82439  0.47972  0.97306  1.0000
  C   C4929     1.0  0.79435  0.19063  0.43367  1.0000
  C   C4930     1.0  0.93526  0.41906  0.12007  1.0000
  H   H3931     1.0  0.81510  0.06966  0.24405  1.0000
  H   H3932     1.0  0.87476  0.43776  0.26620  1.0000
  C   C4931     1.0  0.78659  0.42889  0.26840  1.0000
  C   C4932     1.0  0.88801  0.36510  0.16447  1.0000
  C   C4933     1.0  0.85142  0.44426  0.00395  1.0000
  C   C4934     1.0  0.80974  0.04766  0.43502  1.0000
  C   C4935     1.0  0.79347  0.01242  0.24867  1.0000
  H   H3933     1.0  0.85067  0.06683  0.16099  1.0000
  H   H3934     1.0  0.86001  0.07236  0.19633  1.0000
  C   C4936     1.0  0.80317  0.08025  0.35304  1.0000
  C   C4937     1.0  0.89795  0.33776  0.30647  1.0000
  C   C4938     1.0  0.90250  0.32211  0.31075  1.0000
  C   C4939     1.0  0.88996  0.30673  0.32140  1.0000
  C   C4940     1.0  0.79833  0.99839  0.33586  1.0000
  C   C4941     1.0  0.86829  0.32278  0.32436  1.0000
  C   C4942     1.0  0.88095  0.33816  0.31335  1.0000
  P   P164      1.0  0.84610  0.32297  0.33143  1.0000
  C   C4943     1.0  0.84446  0.34275  0.34032  1.0000
  C   C4944     1.0  0.84096  0.34324  0.36381  1.0000
  C   C4945     1.0  0.83981  0.35869  0.37026  1.0000
  C   C4946     1.0  0.84203  0.37375  0.35338  1.0000
  H   H3935     1.0  0.90769  0.34965  0.29818  1.0000
  H   H3936     1.0  0.91576  0.32196  0.30592  1.0000
  H   H3937     1.0  0.86334  0.29488  0.33566  1.0000
  H   H3938     1.0  0.87780  0.35047  0.31008  1.0000
  H   H3939     1.0  0.83927  0.33186  0.37726  1.0000
  H   H3940     1.0  0.83749  0.35903  0.38839  1.0000
  H   H3941     1.0  0.84154  0.38580  0.35839  1.0000
  C   C4947     1.0  0.87137  0.40496  0.12693  1.0000
  C   C4948     1.0  0.79007  0.09375  0.39332  1.0000
  H   H3942     1.0  0.80201  0.03290  0.00024  1.0000
  C   C4949     1.0  0.80275  0.33830  0.10129  1.0000
  H   H3943     1.0  0.94442  0.35825  0.34138  1.0000
  H   H3944     1.0  0.78612  0.05316  0.43035  1.0000
  H   H3945     1.0  0.92570  0.39582  0.16682  1.0000
  H   H3946     1.0  0.84790  0.31836  0.25041  1.0000
  H   H3947     1.0  0.93642  0.04451  0.40173  1.0000
  S   S661      1.0  0.88445  0.00066  0.32999  1.0000
  S   S662      1.0  0.97325  0.13019  0.44977  1.0000
  H   H3948     1.0  0.82112  0.29033  0.05444  1.0000
  C   C4950     1.0  0.79550  0.99580  0.25650  1.0000
  H   H3949     1.0  0.86495  0.39204  0.13737  1.0000
  H   H3950     1.0  0.87882  0.41155  0.16954  1.0000
  C   C4951     1.0  0.97631  0.42517  0.40923  1.0000
  C   C4952     1.0  0.97033  0.37804  0.43292  1.0000
  C   C4953     1.0  0.82117  0.10128  0.31871  1.0000
  C   C4954     1.0  0.89861  0.27813  0.43270  1.0000
  H   H3951     1.0  0.79951  0.48465  0.97673  1.0000
  H   H3952     1.0  0.85890  0.31630  0.28579  1.0000
  H   H3953     1.0  0.91046  0.43390  0.10705  1.0000
  H   H3954     1.0  0.87892  0.41563  0.20903  1.0000
  C   C4955     1.0  0.86948  0.43186  0.10382  1.0000
  H   H3955     1.0  0.81177  0.26260  0.40301  1.0000
  H   H3956     1.0  0.80228  0.30637  0.13881  1.0000
  H   H3957     1.0  0.93246  0.42636  0.13294  1.0000
  H   H3958     1.0  0.96742  0.39881  0.45004  1.0000
  C   C4956     1.0  0.97591  0.04047  0.37857  1.0000
  C   C4957     1.0  0.87931  0.35099  0.12812  1.0000
  C   C4958     1.0  0.94299  0.40111  0.08593  1.0000
  H   H3959     1.0  0.81164  0.42142  0.29280  1.0000
  C   C4959     1.0  0.82517  0.32490  0.26551  1.0000
  H   H3960     1.0  0.90705  0.47627  0.99001  1.0000
  C   C4960     1.0  0.92652  0.02199  0.44518  1.0000
  C   C4961     1.0  0.83300  0.28529  0.39142  1.0000
  H   H3961     1.0  0.94891  0.48951  0.02277  1.0000
  C   C4962     1.0  0.88038  0.34740  0.16833  1.0000
  H   H3962     1.0  0.94477  0.01641  0.35194  1.0000
  S   S663      1.0  0.95649  0.00379  0.03652  1.0000
  H   H3963     1.0  0.82026  0.30151  0.16648  1.0000
  C   C4963     1.0  0.83463  0.30417  0.35443  1.0000
  S   S664      1.0  0.93251  0.48844  0.40088  1.0000
  H   H3964     1.0  0.82639  0.09156  0.28799  1.0000
  H   H3965     1.0  0.87601  0.41712  0.01782  1.0000
  H   H3966     1.0  0.97732  0.45162  0.41112  1.0000
  H   H3967     1.0  0.84769  0.38514  0.31681  1.0000
  C   C4964     1.0  0.88937  0.40951  0.17701  1.0000
  H   H3968     1.0  0.95072  0.22025  0.43750  1.0000
  C   C4965     1.0  0.96562  0.37764  0.34496  1.0000
  C   C4966     1.0  0.83426  0.02595  0.30246  1.0000
  H   H3969     1.0  0.88883  0.28305  0.46551  1.0000
  H   H3970     1.0  0.89088  0.37012  0.17911  1.0000
  H   H3971     1.0  0.87748  0.33925  0.18562  1.0000
  C   C4967     1.0  0.88642  0.36882  0.12429  1.0000
  C   C4968     1.0  0.91116  0.02339  0.45799  1.0000
  C   C4969     1.0  0.85447  0.47506  0.44919  1.0000
  H   H3972     1.0  0.95462  0.99516  0.33196  1.0000
  C   C4970     1.0  0.88710  0.43850  0.10015  1.0000
  H   H3973     1.0  0.87028  0.32660  0.15318  1.0000
  H   H3974     1.0  0.88803  0.37694  0.10730  1.0000
  C   C4971     1.0  0.98246  0.04066  0.12558  1.0000
  C   C4972     1.0  0.87057  0.47680  0.43505  1.0000
  H   H3975     1.0  0.82002  0.48233  0.03731  1.0000
  C   C4973     1.0  0.88933  0.41178  0.19943  1.0000
  C   C4974     1.0  0.82699  0.05005  0.42504  1.0000
  H   H3976     1.0  0.94563  0.36214  0.41076  1.0000
  C   C4975     1.0  0.90243  0.40851  0.20990  1.0000
  C   C4976     1.0  0.82902  0.47235  0.24955  1.0000
  C   C4977     1.0  0.89136  0.37597  0.14229  1.0000
  H   H3977     1.0  0.82066  0.32613  0.24966  1.0000
  Fe  Fe336     1.0  0.98228  0.02317  0.28744  1.0000
  H   H3978     1.0  0.90420  0.00423  0.00921  1.0000
  H   H3979     1.0  0.87969  0.06377  0.45445  1.0000
  H   H3980     1.0  0.83838  0.46854  0.25837  1.0000
  H   H3981     1.0  0.96316  0.05687  0.33068  1.0000
  C   C4978     1.0  0.81806  0.27422  0.38951  1.0000
  H   H3982     1.0  0.94423  0.39892  0.39360  1.0000
  C   C4979     1.0  0.91394  0.48433  0.99946  1.0000
  C   C4980     1.0  0.92711  0.00399  0.02172  1.0000
  H   H3983     1.0  0.82872  0.11436  0.31044  1.0000
  H   H3984     1.0  0.94601  0.39417  0.07267  1.0000
  C   C4981     1.0  0.97274  0.46755  0.45591  1.0000
  C   C4982     1.0  0.79335  0.35014  0.10600  1.0000
  C   C4983     1.0  0.91563  0.40301  0.19793  1.0000
  H   H3985     1.0  0.81003  0.99460  0.33643  1.0000
  C   C4984     1.0  0.80667  0.46608  0.22886  1.0000
  C   C4985     1.0  0.84132  0.30011  0.37391  1.0000
  C   C4986     1.0  0.89688  0.42840  0.10991  1.0000
  C   C4987     1.0  0.95138  0.41004  0.39829  1.0000
  C   C4988     1.0  0.90877  0.30511  0.44375  1.0000
  H   H3986     1.0  0.79863  0.45730  0.22134  1.0000
  C   C4989     1.0  0.90503  0.34456  0.43072  1.0000
  H   H3987     1.0  0.93212  0.34817  0.38344  1.0000
  C   C4990     1.0  0.79528  0.40766  0.24882  1.0000
  C   C4991     1.0  0.78581  0.01554  0.08435  1.0000
  H   H3988     1.0  0.79697  0.11493  0.43603  1.0000
  H   H3989     1.0  0.79963  0.36230  0.10935  1.0000
  H   H3990     1.0  0.93274  0.42429  0.39320  1.0000
  H   H3991     1.0  0.97464  0.45378  0.35673  1.0000
  C   C4992     1.0  0.95951  0.00234  0.45756  1.0000
  H   H3992     1.0  0.96778  0.41933  0.07606  1.0000
  H   H3993     1.0  0.79863  0.08789  0.26156  1.0000
  C   C4993     1.0  0.92280  0.40476  0.11836  1.0000
  C   C4994     1.0  0.95140  0.42424  0.10493  1.0000
  C   C4995     1.0  0.83540  0.42121  0.30223  1.0000
  C   C4996     1.0  0.85318  0.42581  0.29481  1.0000
  C   C4997     1.0  0.86096  0.43449  0.27190  1.0000
  C   C4998     1.0  0.85100  0.43849  0.25631  1.0000
  C   C4999     1.0  0.83310  0.43362  0.26350  1.0000
  P   P165      1.0  0.82035  0.43855  0.24305  1.0000
  C   C5000     1.0  0.81877  0.46065  0.24003  1.0000
  C   C5001     1.0  0.83047  0.43493  0.21584  1.0000
  C   C5002     1.0  0.83261  0.44683  0.19486  1.0000
  C   C5003     1.0  0.84104  0.44409  0.17412  1.0000
  C   C5004     1.0  0.84714  0.42935  0.17410  1.0000
  C   C5005     1.0  0.84506  0.41746  0.19489  1.0000
  C   C5006     1.0  0.83691  0.42031  0.21569  1.0000
  C   C5007     1.0  0.96665  0.37988  0.38429  1.0000
  C   C5008     1.0  0.79285  0.24143  0.22888  1.0000
  S   S665      1.0  0.80355  0.34397  0.21220  1.0000
  H   H3994     1.0  0.78934  0.29294  0.05682  1.0000
  C   C5009     1.0  0.82706  0.48916  0.24807  1.0000
  H   H3995     1.0  0.86098  0.42247  0.30670  1.0000
  C   C5010     1.0  0.89787  0.28835  0.44895  1.0000
  H   H3996     1.0  0.85727  0.44518  0.23860  1.0000
  H   H3997     1.0  0.82768  0.45815  0.19427  1.0000
  H   H3998     1.0  0.84239  0.45320  0.15799  1.0000
  H   H3999     1.0  0.85331  0.42706  0.15799  1.0000
  H   H4000     1.0  0.84959  0.40591  0.19495  1.0000
  H   H4001     1.0  0.83550  0.41102  0.23167  1.0000
  H   H4002     1.0  0.83818  0.28231  0.40648  1.0000
  C   C5011     1.0  0.92116  0.35436  0.45769  1.0000
  H   H4003     1.0  0.92930  0.38211  0.45323  1.0000
  H   H4004     1.0  0.93425  0.45955  0.44117  1.0000
  C   C5012     1.0  0.82694  0.04854  0.17987  1.0000
  C   C5013     1.0  0.84841  0.01553  0.27130  1.0000
  C   C5014     1.0  0.79491  0.32269  0.09635  1.0000
  H   H4005     1.0  0.93758  0.05527  0.36066  1.0000
  P   P166      1.0  0.80737  0.30785  0.08909  1.0000
  C   C5015     1.0  0.97546  0.10261  0.38185  1.0000
  C   C5016     1.0  0.82079  0.31586  0.06010  1.0000
  C   C5017     1.0  0.82576  0.30417  0.04742  1.0000
  C   C5018     1.0  0.83726  0.31027  0.02583  1.0000
  C   C5019     1.0  0.84412  0.32805  0.01687  1.0000
  C   C5020     1.0  0.83936  0.33975  0.02939  1.0000
  C   C5021     1.0  0.82776  0.33372  0.05090  1.0000
  S   S666      1.0  0.81145  0.99669  0.01643  1.0000
  C   C5022     1.0  0.91022  0.28448  0.41128  1.0000
  C   C5023     1.0  0.96676  0.35017  0.45885  1.0000
  C   C5024     1.0  0.82209  0.32721  0.30537  1.0000
  H   H4006     1.0  0.90214  0.40990  0.22750  1.0000
  C   C5025     1.0  0.82099  0.30553  0.10912  1.0000
  C   C5026     1.0  0.81497  0.30500  0.13258  1.0000
  C   C5027     1.0  0.82516  0.30229  0.14832  1.0000
  C   C5028     1.0  0.84159  0.30057  0.14071  1.0000
  C   C5029     1.0  0.84786  0.30149  0.11730  1.0000
  C   C5030     1.0  0.83758  0.30384  0.10158  1.0000
  C   C5031     1.0  0.92686  0.39583  0.10111  1.0000
  H   H4007     1.0  0.95541  0.43478  0.33928  1.0000
  C   C5032     1.0  0.92691  0.20106  0.45321  1.0000
  C   C5033     1.0  0.84055  0.32045  0.26596  1.0000
  H   H4008     1.0  0.90652  0.08234  0.45920  1.0000
  C   C5034     1.0  0.79267  0.28708  0.09192  1.0000
  H   H4009     1.0  0.84117  0.30122  0.01620  1.0000
  P   P167      1.0  0.79305  0.07460  0.38350  1.0000
  H   H4010     1.0  0.84510  0.35352  0.02271  1.0000
  H   H4011     1.0  0.82475  0.34310  0.06045  1.0000
  H   H4012     1.0  0.80582  0.24612  0.23048  1.0000
  H   H4013     1.0  0.92557  0.40015  0.20630  1.0000
  H   H4014     1.0  0.94922  0.45083  0.40177  1.0000
  H   H4015     1.0  0.89346  0.29458  0.32468  1.0000
  C   C5035     1.0  0.87618  0.34031  0.15013  1.0000
  P   P168      1.0  0.90157  0.39888  0.13713  1.0000
  H   H4016     1.0  0.84942  0.29847  0.15299  1.0000
  H   H4017     1.0  0.86065  0.30026  0.11131  1.0000
  H   H4018     1.0  0.84269  0.30435  0.08359  1.0000
  C   C5036     1.0  0.87289  0.30701  0.32788  1.0000
  H   H4019     1.0  0.81495  0.33011  0.32042  1.0000
  S   S667      1.0  0.98046  0.99912  0.27362  1.0000
  C   C5037     1.0  0.81135  0.27806  0.37012  1.0000
  S   S668      1.0  0.98040  0.01354  0.08585  1.0000
  H   H4020     1.0  0.97086  0.12098  0.40223  1.0000
  H   H4021     1.0  0.80078  0.08871  0.42342  1.0000
  C   C5038     1.0  0.86069  0.48658  0.40092  1.0000
  H   H4022     1.0  0.83765  0.01646  0.24144  1.0000
  C   C5039     1.0  0.79291  0.44144  0.17671  1.0000
  C   C5040     1.0  0.80476  0.48289  0.22746  1.0000
  C   C5041     1.0  0.91507  0.37523  0.42829  1.0000
  H   H4023     1.0  0.84181  0.05727  0.23495  1.0000
  H   H4024     1.0  0.79533  0.05414  0.34851  1.0000
  H   H4025     1.0  0.89921  0.01438  0.45849  1.0000
  C   C5042     1.0  0.97872  0.41417  0.01622  1.0000
  C   C5043     1.0  0.81987  0.08845  0.30606  1.0000
  C   C5044     1.0  0.97113  0.48112  0.97747  1.0000
  H   H4026     1.0  0.96210  0.09580  0.38539  1.0000
  C   C5045     1.0  0.80636  0.06479  0.39952  1.0000
  C   C5046     1.0  0.82371  0.06706  0.38959  1.0000
  C   C5047     1.0  0.83395  0.05969  0.40235  1.0000
  H   H4027     1.0  0.82918  0.47864  0.44924  1.0000
  H   H4028     1.0  0.96277  0.47933  0.42776  1.0000
  H   H4029     1.0  0.97796  0.02966  0.16205  1.0000
  S   S669      1.0  0.79808  0.46424  0.16712  1.0000
  C   C5048     1.0  0.93439  0.99602  0.03859  1.0000
  C   C5049     1.0  0.84733  0.01903  0.29323  1.0000
  H   H4030     1.0  0.86185  0.43965  0.09634  1.0000
  C   C5050     1.0  0.96717  0.38524  0.45220  1.0000
  C   C5051     1.0  0.79385  0.07391  0.26642  1.0000
  H   H4031     1.0  0.97064  0.38249  0.32646  1.0000
  C   C5052     1.0  0.96269  0.05204  0.34878  1.0000
  C   C5053     1.0  0.87364  0.48246  0.41105  1.0000
  H   H4032     1.0  0.86038  0.43972  0.46095  1.0000
  H   H4033     1.0  0.81615  0.34140  0.10141  1.0000
  C   C5054     1.0  0.96146  0.03941  0.39569  1.0000
  H   H4034     1.0  0.79985  0.26934  0.36862  1.0000
  C   C5055     1.0  0.81295  0.03710  0.98570  1.0000
  H   H4035     1.0  0.95711  0.45138  0.02913  1.0000
  H   H4036     1.0  0.82941  0.07447  0.37205  1.0000
  C   C5056     1.0  0.81041  0.07151  0.31690  1.0000
  H   H4037     1.0  0.93463  0.29847  0.46115  1.0000
  H   H4038     1.0  0.96096  0.43524  0.10640  1.0000
  H   H4039     1.0  0.85632  0.04602  0.97506  1.0000
  H   H4040     1.0  0.98332  0.45180  0.26451  1.0000
  H   H4041     1.0  0.91059  0.27655  0.39870  1.0000
  Fe  Fe337     1.0  0.95250  0.10501  0.45735  1.0000
  H   H4042     1.0  0.92630  0.01173  0.43596  1.0000
  C   C5057     1.0  0.94195  0.03401  0.44384  1.0000
  C   C5058     1.0  0.96715  0.41019  0.40400  1.0000
  P   P169      1.0  0.96142  0.03258  0.42592  1.0000
  C   C5059     1.0  0.96262  0.01040  0.43400  1.0000
  C   C5060     1.0  0.98304  0.06506  0.42147  1.0000
  H   H4043     1.0  0.80464  0.03076  0.20263  1.0000
  C   C5061     1.0  0.97972  0.04718  0.43069  1.0000
  S   S670      1.0  0.79589  0.35402  0.16068  1.0000
  C   C5062     1.0  0.94829  0.05113  0.36567  1.0000
  C   C5063     1.0  0.94765  0.04485  0.38903  1.0000
  H   H4044     1.0  0.87610  0.34540  0.11406  1.0000
  H   H4045     1.0  0.91771  0.38482  0.09913  1.0000
  C   C5064     1.0  0.83650  0.01906  0.25854  1.0000
  H   H4046     1.0  0.87532  0.32507  0.46054  1.0000
  C   C5065     1.0  0.78483  0.17637  0.42701  1.0000
  H   H4047     1.0  0.84733  0.06138  0.39467  1.0000
  H   H4048     1.0  0.82294  0.04603  0.16440  1.0000
  H   H4049     1.0  0.81193  0.03421  0.29774  1.0000
  C   C5066     1.0  0.95526  0.41530  0.08783  1.0000
  H   H4050     1.0  0.79959  0.18851  0.44879  1.0000
  H   H4051     1.0  0.96667  0.33660  0.46144  1.0000
  C   C5067     1.0  0.83765  0.47742  0.98399  1.0000
  H   H4052     1.0  0.94368  0.00495  0.29305  1.0000
  H   H4053     1.0  0.97577  0.40770  0.03432  1.0000
  C   C5068     1.0  0.97098  0.41761  0.97894  1.0000
  S   S671      1.0  0.87236  0.00391  0.39499  1.0000
  H   H4054     1.0  0.86313  0.49108  0.38229  1.0000
  C   C5069     1.0  0.93280  0.99768  0.38413  1.0000
  H   H4055     1.0  0.78926  0.44626  0.10224  1.0000
  P   P170      1.0  0.97567  0.39147  0.40391  1.0000
  H   H4056     1.0  0.93217  0.43539  0.97211  1.0000
  C   C5070     1.0  0.97642  0.04655  0.35518  1.0000
  C   C5071     1.0  0.78672  0.40526  0.19292  1.0000
  C   C5072     1.0  0.82118  0.48140  0.01944  1.0000
  C   C5073     1.0  0.97347  0.38560  0.36034  1.0000
  C   C5074     1.0  0.78690  0.27498  0.11333  1.0000
  H   H4057     1.0  0.79148  0.27753  0.12835  1.0000
  H   H4058     1.0  0.98111  0.08924  0.29241  1.0000
  C   C5075     1.0  0.79028  0.20986  0.40095  1.0000
  H   H4059     1.0  0.78337  0.03666  0.39217  1.0000
  C   C5076     1.0  0.78593  0.12377  0.40799  1.0000
  C   C5077     1.0  0.98318  0.46467  0.01341  1.0000
  H   H4060     1.0  0.78434  0.13535  0.41364  1.0000
  Fe  Fe338     1.0  0.95770  0.09374  0.50613  1.0000
  S   S672      1.0  0.94991  0.07287  0.53941  1.0000
  H   H4061     1.0  0.83526  0.43197  0.74874  1.0000
  S   S673      1.0  0.94011  0.10830  0.49217  1.0000
  S   S674      1.0  0.80067  0.28893  0.60471  1.0000
  H   H4062     1.0  0.85524  0.20159  0.48687  1.0000
  H   H4063     1.0  0.93700  0.49054  0.95647  1.0000
  C   C5078     1.0  0.93090  0.21044  0.49456  1.0000
  C   C5079     1.0  0.88546  0.44662  0.50834  1.0000
  H   H4064     1.0  0.95431  0.22847  0.47425  1.0000
  S   S675      1.0  0.95686  0.41269  0.96069  1.0000
  C   C5080     1.0  0.92417  0.31486  0.48138  1.0000
  C   C5081     1.0  0.93328  0.04972  0.94875  1.0000
  H   H4065     1.0  0.95445  0.38804  0.93171  1.0000
  C   C5082     1.0  0.84085  0.42317  0.80387  1.0000
  H   H4066     1.0  0.80254  0.37204  0.55832  1.0000
  S   S676      1.0  0.88398  0.03870  0.94189  1.0000
  Fe  Fe339     1.0  0.82066  0.24489  0.50266  1.0000
  S   S677      1.0  0.83042  0.22462  0.48732  1.0000
  S   S678      1.0  0.80326  0.23638  0.53876  1.0000
  H   H4067     1.0  0.82206  0.40496  0.83266  1.0000
  C   C5083     1.0  0.95064  0.07465  0.61474  1.0000
  C   C5084     1.0  0.79403  0.37887  0.67889  1.0000
  C   C5085     1.0  0.82878  0.45505  0.49239  1.0000
  S   S679      1.0  0.84607  0.26451  0.49314  1.0000
  Fe  Fe340     1.0  0.86408  0.26496  0.83577  1.0000
  S   S680      1.0  0.85822  0.29092  0.83122  1.0000
  S   S681      1.0  0.88692  0.25882  0.81504  1.0000
  Fe  Fe341     1.0  0.82879  0.24591  0.86768  1.0000
  S   S682      1.0  0.82062  0.27069  0.86560  1.0000
  S   S683      1.0  0.81459  0.21802  0.88724  1.0000
  Fe  Fe342     1.0  0.83258  0.27667  0.82736  1.0000
  S   S684      1.0  0.82056  0.28923  0.79986  1.0000
  Fe  Fe343     1.0  0.84702  0.28296  0.86963  1.0000
  S   S685      1.0  0.84859  0.30143  0.89415  1.0000
  S   S686      1.0  0.83923  0.25132  0.82921  1.0000
  S   S687      1.0  0.85439  0.25762  0.87445  1.0000
  H   H4068     1.0  0.96151  0.38062  0.48941  1.0000
  C   C5086     1.0  0.93156  0.07115  0.91641  1.0000
  Fe  Fe344     1.0  0.95528  0.26349  0.55066  1.0000
  S   S688      1.0  0.92865  0.26613  0.54683  1.0000
  S   S689      1.0  0.96008  0.23920  0.56985  1.0000
  H   H4069     1.0  0.89920  0.03793  0.47938  1.0000
  S   S690      1.0  0.96575  0.28922  0.80918  1.0000
  H   H4070     1.0  0.94769  0.36261  0.91475  1.0000
  H   H4071     1.0  0.82173  0.40643  0.54953  1.0000
  S   S691      1.0  0.79538  0.29603  0.66640  1.0000
  H   H4072     1.0  0.94830  0.04167  0.57218  1.0000
  H   H4073     1.0  0.82048  0.21322  0.83937  1.0000
  H   H4074     1.0  0.89475  0.29518  0.51128  1.0000
  S   S692      1.0  0.90985  0.35016  0.92246  1.0000
  C   C5087     1.0  0.83523  0.44596  0.84930  1.0000
  C   C5088     1.0  0.87824  0.43137  0.47920  1.0000
  S   S693      1.0  0.91925  0.39589  0.93589  1.0000
  H   H4075     1.0  0.95277  0.01309  0.56685  1.0000
  Fe  Fe345     1.0  0.84496  0.46328  0.63965  1.0000
  S   S694      1.0  0.85547  0.44371  0.65974  1.0000
  C   C5089     1.0  0.78658  0.21833  0.81652  1.0000
  Fe  Fe346     1.0  0.81292  0.45559  0.67857  1.0000
  S   S695      1.0  0.82112  0.43522  0.70159  1.0000
  Fe  Fe347     1.0  0.84726  0.45405  0.69113  1.0000
  S   S696      1.0  0.86492  0.45660  0.71665  1.0000
  Fe  Fe348     1.0  0.82868  0.42618  0.66892  1.0000
  S   S697      1.0  0.82806  0.39843  0.66535  1.0000
  S   S698      1.0  0.83863  0.47488  0.67027  1.0000
  S   S699      1.0  0.81868  0.44530  0.64663  1.0000
  C   C5090     1.0  0.78855  0.46720  0.57155  1.0000
  C   C5091     1.0  0.88034  0.46917  0.58006  1.0000
  C   C5092     1.0  0.89277  0.46979  0.56028  1.0000
  H   H4076     1.0  0.84733  0.27861  0.64187  1.0000
  C   C5093     1.0  0.92066  0.00452  0.83950  1.0000
  S   S700      1.0  0.96315  0.07470  0.92762  1.0000
  H   H4077     1.0  0.87724  0.45851  0.59505  1.0000
  H   H4078     1.0  0.89922  0.45956  0.56022  1.0000
  C   C5094     1.0  0.83262  0.42576  0.76697  1.0000
  C   C5095     1.0  0.87035  0.47270  0.73261  1.0000
  C   C5096     1.0  0.88293  0.47164  0.74540  1.0000
  H   H4079     1.0  0.88931  0.46140  0.74486  1.0000
  C   C5097     1.0  0.90909  0.45408  0.87459  1.0000
  C   C5098     1.0  0.91034  0.43700  0.88021  1.0000
  C   C5099     1.0  0.90206  0.42634  0.90210  1.0000
  C   C5100     1.0  0.89270  0.43279  0.91860  1.0000
  C   C5101     1.0  0.89126  0.44982  0.91286  1.0000
  C   C5102     1.0  0.89931  0.46044  0.89080  1.0000
  H   H4080     1.0  0.91783  0.43205  0.86763  1.0000
  H   H4081     1.0  0.90275  0.41307  0.90608  1.0000
  H   H4082     1.0  0.88426  0.45494  0.92564  1.0000
  H   H4083     1.0  0.89834  0.47366  0.88657  1.0000
  C   C5103     1.0  0.81113  0.37930  0.67067  1.0000
  C   C5104     1.0  0.81510  0.36407  0.66620  1.0000
  C   C5105     1.0  0.80216  0.34873  0.66921  1.0000
  H   H4084     1.0  0.82830  0.36416  0.66015  1.0000
  H   H4085     1.0  0.80542  0.33721  0.66544  1.0000
  C   C5106     1.0  0.84410  0.43110  0.78025  1.0000
  H   H4086     1.0  0.84680  0.37163  0.86811  1.0000
  C   C5107     1.0  0.86598  0.31489  0.90144  1.0000
  C   C5108     1.0  0.88306  0.31614  0.89157  1.0000
  C   C5109     1.0  0.89632  0.32690  0.89827  1.0000
  C   C5110     1.0  0.89269  0.33655  0.91485  1.0000
  C   C5111     1.0  0.87563  0.33549  0.92441  1.0000
  C   C5112     1.0  0.86240  0.32473  0.91774  1.0000
  H   H4087     1.0  0.88603  0.30879  0.87886  1.0000
  H   H4088     1.0  0.90947  0.32775  0.89058  1.0000
  H   H4089     1.0  0.87261  0.34288  0.93706  1.0000
  H   H4090     1.0  0.84925  0.32391  0.92545  1.0000
  H   H4091     1.0  0.95621  0.00919  0.47082  1.0000
  C   C5113     1.0  0.81578  0.46361  0.49586  1.0000
  C   C5114     1.0  0.93462  0.00257  0.95069  1.0000
  H   H4092     1.0  0.91972  0.13469  0.50258  1.0000
  C   C5115     1.0  0.81358  0.28018  0.77746  1.0000
  C   C5116     1.0  0.80575  0.28950  0.76256  1.0000
  C   C5117     1.0  0.80005  0.28289  0.74451  1.0000
  C   C5118     1.0  0.80211  0.26683  0.74116  1.0000
  C   C5119     1.0  0.80995  0.25750  0.75605  1.0000
  C   C5120     1.0  0.81562  0.26409  0.77415  1.0000
  H   H4093     1.0  0.80410  0.30196  0.76494  1.0000
  H   H4094     1.0  0.81166  0.24512  0.75351  1.0000
  H   H4095     1.0  0.82157  0.25672  0.78550  1.0000
  C   C5121     1.0  0.90871  0.26786  0.81346  1.0000
  C   C5122     1.0  0.91418  0.28135  0.82397  1.0000
  C   C5123     1.0  0.93172  0.28781  0.82257  1.0000
  C   C5124     1.0  0.94389  0.28119  0.81005  1.0000
  C   C5125     1.0  0.93841  0.26816  0.79884  1.0000
  C   C5126     1.0  0.92089  0.26133  0.80091  1.0000
  H   H4096     1.0  0.90490  0.28665  0.83336  1.0000
  H   H4097     1.0  0.93586  0.29795  0.83124  1.0000
  H   H4098     1.0  0.94764  0.26310  0.78897  1.0000
  H   H4099     1.0  0.91674  0.25085  0.79283  1.0000
  C   C5127     1.0  0.80268  0.25091  0.55720  1.0000
  C   C5128     1.0  0.81230  0.26813  0.54965  1.0000
  C   C5129     1.0  0.81162  0.27951  0.56456  1.0000
  C   C5130     1.0  0.80125  0.27383  0.58708  1.0000
  H   H4100     1.0  0.84726  0.31653  0.48744  1.0000
  H   H4101     1.0  0.96549  0.08174  0.75367  1.0000
  H   H4102     1.0  0.82005  0.27267  0.53220  1.0000
  H   H4103     1.0  0.81885  0.29289  0.55849  1.0000
  H   H4104     1.0  0.97588  0.32270  0.75453  1.0000
  C   C5131     1.0  0.90857  0.25651  0.63266  1.0000
  C   C5132     1.0  0.91617  0.25929  0.52728  1.0000
  C   C5133     1.0  0.92163  0.25035  0.51082  1.0000
  C   C5134     1.0  0.91098  0.24478  0.49627  1.0000
  C   C5135     1.0  0.89482  0.24814  0.49780  1.0000
  C   C5136     1.0  0.88959  0.25747  0.51382  1.0000
  C   C5137     1.0  0.90011  0.26282  0.52859  1.0000
  H   H4105     1.0  0.93396  0.24757  0.50947  1.0000
  C   C5138     1.0  0.96774  0.02095  0.60686  1.0000
  H   H4106     1.0  0.87732  0.26035  0.51506  1.0000
  H   H4107     1.0  0.89569  0.26973  0.54114  1.0000
  C   C5139     1.0  0.91411  0.06292  0.91981  1.0000
  C   C5140     1.0  0.90614  0.04808  0.93770  1.0000
  C   C5141     1.0  0.91584  0.04140  0.95204  1.0000
  H   H4108     1.0  0.90670  0.06819  0.90867  1.0000
  C   C5142     1.0  0.81086  0.03900  0.96292  1.0000
  H   H4109     1.0  0.95687  0.20796  0.52953  1.0000
  C   C5143     1.0  0.91008  0.13900  0.51309  1.0000
  C   C5144     1.0  0.92383  0.01871  0.79933  1.0000
  H   H4110     1.0  0.78372  0.23084  0.88870  1.0000
  C   C5145     1.0  0.84728  0.48341  0.51738  1.0000
  H   H4111     1.0  0.87291  0.12319  0.55402  1.0000
  C   C5146     1.0  0.91183  0.15672  0.51121  1.0000
  C   C5147     1.0  0.92802  0.00466  0.68442  1.0000
  H   H4112     1.0  0.78565  0.28558  0.54059  1.0000
  H   H4113     1.0  0.97826  0.03733  0.57288  1.0000
  C   C5148     1.0  0.94118  0.06471  0.93106  1.0000
  H   H4114     1.0  0.84930  0.42838  0.53539  1.0000
  H   H4115     1.0  0.84095  0.47057  0.52805  1.0000
  C   C5149     1.0  0.96027  0.12099  0.57184  1.0000
  H   H4116     1.0  0.94277  0.18108  0.51909  1.0000
  H   H4117     1.0  0.93751  0.08262  0.90267  1.0000
  H   H4118     1.0  0.80669  0.43416  0.56462  1.0000
  H   H4119     1.0  0.95463  0.06039  0.80677  1.0000
  C   C5150     1.0  0.96612  0.17507  0.50509  1.0000
  C   C5151     1.0  0.95651  0.18514  0.51556  1.0000
  H   H4120     1.0  0.87378  0.46720  0.51269  1.0000
  S   S701      1.0  0.88271  0.41971  0.94636  1.0000
  C   C5152     1.0  0.98112  0.03135  0.58865  1.0000
  H   H4121     1.0  0.91421  0.00237  0.77781  1.0000
  C   C5153     1.0  0.95082  0.05197  0.53592  1.0000
  C   C5154     1.0  0.95266  0.04822  0.51408  1.0000
  C   C5155     1.0  0.95520  0.03220  0.51111  1.0000
  C   C5156     1.0  0.95577  0.01970  0.53004  1.0000
  C   C5157     1.0  0.95276  0.02291  0.55217  1.0000
  C   C5158     1.0  0.95025  0.03904  0.55512  1.0000
  H   H4122     1.0  0.80711  0.22112  0.65281  1.0000
  C   C5159     1.0  0.82424  0.26044  0.66239  1.0000
  C   C5160     1.0  0.86524  0.45459  0.48651  1.0000
  H   H4123     1.0  0.92893  0.17815  0.92067  1.0000
  C   C5161     1.0  0.96089  0.36880  0.91416  1.0000
  H   H4124     1.0  0.80810  0.07028  0.93328  1.0000
  H   H4125     1.0  0.93166  0.02750  0.90054  1.0000
  S   S702      1.0  0.84577  0.99766  0.95785  1.0000
  H   H4126     1.0  0.92939  0.43467  0.93259  1.0000
  C   C5162     1.0  0.88957  0.99745  0.89283  1.0000
  C   C5163     1.0  0.96866  0.45427  0.47603  1.0000
  H   H4127     1.0  0.92571  0.11488  0.54805  1.0000
  H   H4128     1.0  0.91961  0.25450  0.63892  1.0000
  S   S703      1.0  0.92067  0.46743  0.84775  1.0000
  C   C5164     1.0  0.96227  0.06460  0.61220  1.0000
  C   C5165     1.0  0.93164  0.46197  0.92227  1.0000
  H   H4129     1.0  0.86634  0.43459  0.86361  1.0000
  P   P171      1.0  0.80060  0.38958  0.59662  1.0000
  S   S704      1.0  0.88152  0.24005  0.47983  1.0000
  H   H4130     1.0  0.82788  0.45088  0.58226  1.0000
  C   C5166     1.0  0.85022  0.39735  0.84766  1.0000
  C   C5167     1.0  0.79070  0.45180  0.56576  1.0000
  H   H4131     1.0  0.92977  0.14595  0.54800  1.0000
  H   H4132     1.0  0.90399  0.18242  0.47344  1.0000
  S   S705      1.0  0.95513  0.15599  0.49771  1.0000
  H   H4133     1.0  0.78480  0.23185  0.58569  1.0000
  H   H4134     1.0  0.78890  0.46088  0.50799  1.0000
  H   H4135     1.0  0.89726  0.48287  0.76819  1.0000
  C   C5168     1.0  0.84843  0.44888  0.82960  1.0000
  C   C5169     1.0  0.85476  0.46556  0.81521  1.0000
  P   P172      1.0  0.85532  0.43092  0.82108  1.0000
  C   C5170     1.0  0.85527  0.41521  0.84646  1.0000
  C   C5171     1.0  0.86153  0.42090  0.86465  1.0000
  C   C5172     1.0  0.92424  0.99674  0.70796  1.0000
  C   C5173     1.0  0.93355  0.47761  0.92917  1.0000
  C   C5174     1.0  0.87724  0.43771  0.80484  1.0000
  C   C5175     1.0  0.88931  0.45022  0.81074  1.0000
  C   C5176     1.0  0.90631  0.45527  0.79827  1.0000
  C   C5177     1.0  0.91146  0.44768  0.78016  1.0000
  C   C5178     1.0  0.89963  0.43488  0.77460  1.0000
  C   C5179     1.0  0.88261  0.42986  0.78696  1.0000
  H   H4136     1.0  0.78970  0.07692  0.87110  1.0000
  C   C5180     1.0  0.96450  0.20050  0.52138  1.0000
  H   H4137     1.0  0.86428  0.46796  0.79930  1.0000
  H   H4138     1.0  0.85537  0.44162  0.77203  1.0000
  C   C5181     1.0  0.85370  0.48590  0.49347  1.0000
  H   H4139     1.0  0.79274  0.21967  0.84961  1.0000
  H   H4140     1.0  0.88566  0.45622  0.82481  1.0000
  H   H4141     1.0  0.91549  0.46524  0.80253  1.0000
  H   H4142     1.0  0.92460  0.45182  0.77036  1.0000
  H   H4143     1.0  0.90358  0.42906  0.76045  1.0000
  H   H4144     1.0  0.87365  0.41995  0.78239  1.0000
  H   H4145     1.0  0.97595  0.21016  0.57171  1.0000
  H   H4146     1.0  0.82167  0.26870  0.67411  1.0000
  H   H4147     1.0  0.92507  0.20888  0.77850  1.0000
  H   H4148     1.0  0.80878  0.40863  0.76677  1.0000
  H   H4149     1.0  0.86648  0.28684  0.53799  1.0000
  C   C5182     1.0  0.88747  0.48382  0.75868  1.0000
  C   C5183     1.0  0.94270  0.03030  0.88630  1.0000
  C   C5184     1.0  0.94230  0.02173  0.86812  1.0000
  C   C5185     1.0  0.90949  0.26007  0.60893  1.0000
  C   C5186     1.0  0.82545  0.41047  0.81422  1.0000
  C   C5187     1.0  0.94931  0.30983  0.75974  1.0000
  H   H4150     1.0  0.90130  0.20637  0.96024  1.0000
  C   C5188     1.0  0.79162  0.25658  0.59470  1.0000
  C   C5189     1.0  0.85530  0.30179  0.51485  1.0000
  C   C5190     1.0  0.95704  0.02532  0.85037  1.0000
  C   C5191     1.0  0.97167  0.03789  0.85021  1.0000
  H   H4151     1.0  0.96678  0.06223  0.59534  1.0000
  C   C5192     1.0  0.95730  0.04298  0.88592  1.0000
  H   H4152     1.0  0.96122  0.12209  0.61976  1.0000
  C   C5193     1.0  0.85324  0.46696  0.94227  1.0000
  H   H4153     1.0  0.83423  0.42987  0.49695  1.0000
  H   H4154     1.0  0.95717  0.01868  0.83640  1.0000
  H   H4155     1.0  0.79669  0.18345  0.91269  1.0000
  H   H4156     1.0  0.95217  0.05765  0.49943  1.0000
  C   C5194     1.0  0.85784  0.31240  0.49292  1.0000
  H   H4157     1.0  0.88816  0.04542  0.88654  1.0000
  C   C5195     1.0  0.85655  0.39117  0.88549  1.0000
  H   H4158     1.0  0.83268  0.23060  0.62063  1.0000
  H   H4159     1.0  0.96666  0.48796  0.96375  1.0000
  H   H4160     1.0  0.91468  0.03855  0.86960  1.0000
  C   C5196     1.0  0.94664  0.01930  0.71355  1.0000
  C   C5197     1.0  0.78501  0.34842  0.67677  1.0000
  S   S706      1.0  0.96590  0.03854  0.77801  1.0000
  C   C5198     1.0  0.94684  0.11244  0.56355  1.0000
  H   H4161     1.0  0.84286  0.29800  0.52655  1.0000
  H   H4162     1.0  0.79332  0.27749  0.84078  1.0000
  H   H4163     1.0  0.95744  0.04990  0.89960  1.0000
  C   C5199     1.0  0.80056  0.47679  0.58128  1.0000
  H   H4164     1.0  0.93276  0.03173  0.82435  1.0000
  C   C5200     1.0  0.80414  0.36840  0.60567  1.0000
  C   C5201     1.0  0.92631  0.01948  0.82145  1.0000
  C   C5202     1.0  0.95066  0.06032  0.71496  1.0000
  C   C5203     1.0  0.98158  0.06783  0.70658  1.0000
  C   C5204     1.0  0.88339  0.28962  0.71669  1.0000
  C   C5205     1.0  0.87351  0.28536  0.73934  1.0000
  C   C5206     1.0  0.87990  0.27816  0.75759  1.0000
  C   C5207     1.0  0.89612  0.27519  0.75320  1.0000
  C   C5208     1.0  0.90613  0.27929  0.73055  1.0000
  C   C5209     1.0  0.89964  0.28663  0.71227  1.0000
  P   P173      1.0  0.92709  0.27518  0.72544  1.0000
  C   C5210     1.0  0.94231  0.29116  0.73377  1.0000
  C   C5211     1.0  0.92629  0.25409  0.74226  1.0000
  C   C5212     1.0  0.94132  0.25042  0.74707  1.0000
  C   C5213     1.0  0.94085  0.23416  0.76006  1.0000
  C   C5214     1.0  0.92541  0.22141  0.76826  1.0000
  C   C5215     1.0  0.91045  0.22481  0.76311  1.0000
  C   C5216     1.0  0.91089  0.24102  0.74994  1.0000
  C   C5217     1.0  0.93723  0.29835  0.75250  1.0000
  H   H4165     1.0  0.82408  0.04420  0.92690  1.0000
  C   C5218     1.0  0.96650  0.31426  0.74837  1.0000
  C   C5219     1.0  0.97165  0.30728  0.72965  1.0000
  C   C5220     1.0  0.95969  0.29567  0.72247  1.0000
  C   C5221     1.0  0.93484  0.27584  0.69524  1.0000
  C   C5222     1.0  0.94074  0.29182  0.67899  1.0000
  C   C5223     1.0  0.94771  0.29253  0.65582  1.0000
  C   C5224     1.0  0.94890  0.27733  0.64875  1.0000
  C   C5225     1.0  0.94305  0.26141  0.66481  1.0000
  C   C5226     1.0  0.93597  0.26061  0.68793  1.0000
  H   H4166     1.0  0.87838  0.29521  0.70256  1.0000
  H   H4167     1.0  0.86086  0.28757  0.74279  1.0000
  H   H4168     1.0  0.87224  0.27475  0.77520  1.0000
  H   H4169     1.0  0.90081  0.26947  0.76750  1.0000
  H   H4170     1.0  0.90695  0.28994  0.69459  1.0000
  H   H4171     1.0  0.95343  0.26008  0.74080  1.0000
  H   H4172     1.0  0.95251  0.23148  0.76378  1.0000
  C   C5227     1.0  0.81404  0.40506  0.80082  1.0000
  H   H4173     1.0  0.89919  0.24329  0.74594  1.0000
  H   H4174     1.0  0.92411  0.29472  0.76212  1.0000
  H   H4175     1.0  0.91638  0.18317  0.95861  1.0000
  H   H4176     1.0  0.95391  0.02459  0.72507  1.0000
  H   H4177     1.0  0.92119  0.99866  0.67299  1.0000
  H   H4178     1.0  0.96419  0.28989  0.70853  1.0000
  H   H4179     1.0  0.94024  0.30374  0.68437  1.0000
  H   H4180     1.0  0.95253  0.30489  0.64342  1.0000
  H   H4181     1.0  0.95472  0.27785  0.63094  1.0000
  H   H4182     1.0  0.94441  0.24968  0.65940  1.0000
  H   H4183     1.0  0.93181  0.24812  0.70002  1.0000
  Fe  Fe349     1.0  0.96201  0.13235  0.48602  1.0000
  H   H4184     1.0  0.85176  0.45341  0.88413  1.0000
  H   H4185     1.0  0.98090  0.18493  0.55721  1.0000
  H   H4186     1.0  0.88866  0.48553  0.93229  1.0000
  C   C5228     1.0  0.92645  0.04853  0.46877  1.0000
  C   C5229     1.0  0.85441  0.47456  0.90110  1.0000
  H   H4187     1.0  0.92984  0.01321  0.94335  1.0000
  S   S707      1.0  0.96890  0.08926  0.47190  1.0000
  C   C5230     1.0  0.85244  0.43059  0.56938  1.0000
  C   C5231     1.0  0.85187  0.18692  0.54436  1.0000
  C   C5232     1.0  0.84697  0.19245  0.52391  1.0000
  C   C5233     1.0  0.85883  0.19677  0.50272  1.0000
  C   C5234     1.0  0.87549  0.19530  0.50186  1.0000
  C   C5235     1.0  0.88045  0.18938  0.52225  1.0000
  C   C5236     1.0  0.86854  0.18547  0.54357  1.0000
  P   P174      1.0  0.90136  0.18558  0.52144  1.0000
  C   C5237     1.0  0.82536  0.04332  0.94456  1.0000
  C   C5238     1.0  0.90881  0.19284  0.54519  1.0000
  C   C5239     1.0  0.90692  0.20877  0.54959  1.0000
  C   C5240     1.0  0.91349  0.21504  0.56708  1.0000
  C   C5241     1.0  0.92197  0.20542  0.58032  1.0000
  C   C5242     1.0  0.92397  0.18958  0.57598  1.0000
  C   C5243     1.0  0.91738  0.18327  0.55850  1.0000
  H   H4188     1.0  0.80222  0.39519  0.80880  1.0000
  C   C5244     1.0  0.97349  0.99346  0.88950  1.0000
  H   H4189     1.0  0.80446  0.41347  0.51394  1.0000
  H   H4190     1.0  0.94913  0.43297  0.49929  1.0000
  H   H4191     1.0  0.92639  0.05901  0.47757  1.0000
  C   C5245     1.0  0.89941  0.16259  0.52448  1.0000
  C   C5246     1.0  0.88545  0.15032  0.54014  1.0000
  H   H4192     1.0  0.98287  0.04086  0.83616  1.0000
  S   S708      1.0  0.79504  0.25787  0.71877  1.0000
  C   C5247     1.0  0.79693  0.21761  0.83251  1.0000
  H   H4193     1.0  0.93096  0.99758  0.74057  1.0000
  H   H4194     1.0  0.84273  0.18385  0.56082  1.0000
  H   H4195     1.0  0.83410  0.19373  0.52448  1.0000
  S   S709      1.0  0.95890  0.99337  0.76388  1.0000
  H   H4196     1.0  0.85264  0.48720  0.72368  1.0000
  H   H4197     1.0  0.87210  0.18116  0.55960  1.0000
  H   H4198     1.0  0.90077  0.21657  0.53906  1.0000
  H   H4199     1.0  0.91236  0.22757  0.56998  1.0000
  H   H4200     1.0  0.92724  0.21040  0.59369  1.0000
  H   H4201     1.0  0.93088  0.18233  0.58591  1.0000
  H   H4202     1.0  0.91929  0.17113  0.55511  1.0000
  C   C5248     1.0  0.97728  0.05456  0.78962  1.0000
  H   H4203     1.0  0.95828  0.01076  0.92532  1.0000
  H   H4204     1.0  0.82394  0.47752  0.59299  1.0000
  C   C5249     1.0  0.87395  0.01876  0.89947  1.0000
  H   H4205     1.0  0.78355  0.25208  0.61199  1.0000
  H   H4206     1.0  0.87575  0.15432  0.55081  1.0000
  H   H4207     1.0  0.82541  0.47923  0.95510  1.0000
  Fe  Fe350     1.0  0.89568  0.39896  0.95789  1.0000
  C   C5250     1.0  0.86722  0.44168  0.47437  1.0000
  C   C5251     1.0  0.78986  0.06878  0.88735  1.0000
  C   C5252     1.0  0.79242  0.20823  0.89947  1.0000
  H   H4208     1.0  0.95467  0.01865  0.60495  1.0000
  C   C5253     1.0  0.93091  0.44681  0.93799  1.0000
  H   H4209     1.0  0.89609  0.26462  0.58221  1.0000
  H   H4210     1.0  0.96329  0.22147  0.80278  1.0000
  Fe  Fe351     1.0  0.78404  0.28257  0.64114  1.0000
  C   C5254     1.0  0.95289  0.22235  0.81603  1.0000
  H   H4211     1.0  0.80796  0.08859  0.89601  1.0000
  Fe  Fe352     1.0  0.97893  0.09778  0.89865  1.0000
  C   C5255     1.0  0.81463  0.47063  0.58523  1.0000
  C   C5256     1.0  0.96127  0.05964  0.65350  1.0000
  S   S710      1.0  0.97471  0.24748  0.62673  1.0000
  C   C5257     1.0  0.89697  0.48361  0.54067  1.0000
  Fe  Fe353     1.0  0.90727  0.36724  0.94853  1.0000
  C   C5258     1.0  0.88729  0.43378  0.49627  1.0000
  C   C5259     1.0  0.82318  0.35039  0.61450  1.0000
  H   H4212     1.0  0.96169  0.99568  0.88580  1.0000
  C   C5260     1.0  0.87208  0.48245  0.58042  1.0000
  C   C5261     1.0  0.83873  0.26599  0.64412  1.0000
  C   C5262     1.0  0.82009  0.36675  0.60943  1.0000
  P   P175      1.0  0.78974  0.03455  0.95733  1.0000
  C   C5263     1.0  0.97748  0.26603  0.85951  1.0000
  C   C5264     1.0  0.82456  0.43688  0.49914  1.0000
  C   C5265     1.0  0.90361  0.02807  0.87877  1.0000
  Fe  Fe354     1.0  0.92988  0.39493  0.96775  1.0000
  C   C5266     1.0  0.91567  0.00304  0.79507  1.0000
  C   C5267     1.0  0.93238  0.44728  0.96056  1.0000
  H   H4213     1.0  0.89588  0.42586  0.50000  1.0000
  H   H4214     1.0  0.97042  0.08384  0.82211  1.0000
  C   C5268     1.0  0.88380  0.13258  0.54209  1.0000
  C   C5269     1.0  0.98116  0.48300  0.89015  1.0000
  C   C5270     1.0  0.81276  0.21401  0.82671  1.0000
  H   H4215     1.0  0.95369  0.29159  0.48628  1.0000
  C   C5271     1.0  0.79235  0.24516  0.57978  1.0000
  C   C5272     1.0  0.84197  0.25535  0.62881  1.0000
  H   H4216     1.0  0.91524  0.23779  0.48373  1.0000
  H   H4217     1.0  0.96962  0.45276  0.94129  1.0000
  H   H4218     1.0  0.85721  0.38189  0.90046  1.0000
  C   C5273     1.0  0.81037  0.33553  0.61606  1.0000
  C   C5274     1.0  0.94427  0.07724  0.63654  1.0000
  C   C5275     1.0  0.97406  0.36239  0.90397  1.0000
  H   H4219     1.0  0.93757  0.19673  0.81847  1.0000
  H   H4220     1.0  0.97656  0.02888  0.96631  1.0000
  H   H4221     1.0  0.84023  0.26211  0.57086  1.0000
  C   C5276     1.0  0.94945  0.06966  0.65588  1.0000
  C   C5277     1.0  0.91652  0.19741  0.49463  1.0000
  C   C5278     1.0  0.84961  0.44935  0.94166  1.0000
  C   C5279     1.0  0.95024  0.02759  0.69000  1.0000
  H   H4222     1.0  0.97534  0.19532  0.86302  1.0000
  H   H4223     1.0  0.92867  0.03021  0.78538  1.0000
  C   C5280     1.0  0.94590  0.30034  0.49007  1.0000
  C   C5281     1.0  0.87457  0.45708  0.50343  1.0000
  C   C5282     1.0  0.93570  0.12137  0.55529  1.0000
  H   H4224     1.0  0.81268  0.32282  0.62027  1.0000
  H   H4225     1.0  0.86240  0.02188  0.90709  1.0000
  C   C5283     1.0  0.98233  0.20619  0.51652  1.0000
  C   C5284     1.0  0.82982  0.41224  0.60133  1.0000
  H   H4226     1.0  0.94537  0.09903  0.56271  1.0000
  H   H4227     1.0  0.89167  0.32167  0.55872  1.0000
  C   C5285     1.0  0.95402  0.23739  0.82435  1.0000
  H   H4228     1.0  0.85671  0.48438  0.88528  1.0000
  H   H4229     1.0  0.93500  0.08478  0.63852  1.0000
  C   C5286     1.0  0.86206  0.40891  0.88413  1.0000
  C   C5287     1.0  0.87386  0.31721  0.47762  1.0000
  H   H4230     1.0  0.80845  0.00795  0.95113  1.0000
  H   H4231     1.0  0.94398  0.07145  0.67265  1.0000
  H   H4232     1.0  0.84685  0.43095  0.92023  1.0000
  H   H4233     1.0  0.94361  0.02590  0.65718  1.0000
  C   C5288     1.0  0.79002  0.04776  0.92967  1.0000
  C   C5289     1.0  0.81292  0.24424  0.66557  1.0000
  H   H4234     1.0  0.93082  0.46158  0.90467  1.0000
  H   H4235     1.0  0.97614  0.04890  0.62924  1.0000
  C   C5290     1.0  0.89515  0.26225  0.60069  1.0000
  C   C5291     1.0  0.97119  0.01324  0.62746  1.0000
  H   H4236     1.0  0.81874  0.47762  0.49108  1.0000
  C   C5292     1.0  0.97463  0.12364  0.61960  1.0000
  C   C5293     1.0  0.78729  0.39494  0.62018  1.0000
  S   S711      1.0  0.79098  0.46749  0.68978  1.0000
  C   C5294     1.0  0.89219  0.31950  0.79045  1.0000
  C   C5295     1.0  0.90857  0.32240  0.79452  1.0000
  C   C5296     1.0  0.91502  0.33675  0.80299  1.0000
  C   C5297     1.0  0.90494  0.34802  0.80786  1.0000
  C   C5298     1.0  0.88812  0.34476  0.80481  1.0000
  C   C5299     1.0  0.88201  0.33064  0.79548  1.0000
  P   P176      1.0  0.87460  0.35870  0.81218  1.0000
  C   C5300     1.0  0.87391  0.37334  0.78618  1.0000
  C   C5301     1.0  0.85328  0.34497  0.82555  1.0000
  C   C5302     1.0  0.84242  0.33918  0.81151  1.0000
  C   C5303     1.0  0.82630  0.32783  0.82141  1.0000
  C   C5304     1.0  0.82081  0.32214  0.84540  1.0000
  C   C5305     1.0  0.83137  0.32797  0.85952  1.0000
  C   C5306     1.0  0.84756  0.33924  0.84971  1.0000
  C   C5307     1.0  0.88785  0.37867  0.76697  1.0000
  C   C5308     1.0  0.88742  0.39040  0.74713  1.0000
  C   C5309     1.0  0.87309  0.39685  0.74634  1.0000
  C   C5310     1.0  0.85921  0.39164  0.76543  1.0000
  C   C5311     1.0  0.85968  0.38010  0.78538  1.0000
  C   C5312     1.0  0.88319  0.37125  0.83133  1.0000
  C   C5313     1.0  0.88731  0.36302  0.85134  1.0000
  C   C5314     1.0  0.89445  0.37278  0.86566  1.0000
  C   C5315     1.0  0.89776  0.39081  0.86005  1.0000
  C   C5316     1.0  0.89398  0.39915  0.84004  1.0000
  C   C5317     1.0  0.88675  0.38944  0.82572  1.0000
  H   H4237     1.0  0.88717  0.30832  0.78396  1.0000
  H   H4238     1.0  0.91616  0.31342  0.79130  1.0000
  H   H4239     1.0  0.92777  0.33901  0.80607  1.0000
  H   H4240     1.0  0.91026  0.35908  0.81429  1.0000
  H   H4241     1.0  0.86926  0.32788  0.79252  1.0000
  H   H4242     1.0  0.84653  0.34302  0.79283  1.0000
  H   H4243     1.0  0.81825  0.32301  0.81042  1.0000
  H   H4244     1.0  0.80853  0.31291  0.85302  1.0000
  H   H4245     1.0  0.82726  0.32320  0.87814  1.0000
  H   H4246     1.0  0.85556  0.34292  0.86119  1.0000
  H   H4247     1.0  0.89905  0.37381  0.76728  1.0000
  H   H4248     1.0  0.89815  0.39444  0.73227  1.0000
  H   H4249     1.0  0.87271  0.40588  0.73092  1.0000
  H   H4250     1.0  0.84810  0.39661  0.76470  1.0000
  H   H4251     1.0  0.84888  0.37640  0.80009  1.0000
  H   H4252     1.0  0.88521  0.34906  0.85579  1.0000
  H   H4253     1.0  0.89758  0.36638  0.88108  1.0000
  H   H4254     1.0  0.90327  0.39830  0.87124  1.0000
  H   H4255     1.0  0.89659  0.41316  0.83570  1.0000
  H   H4256     1.0  0.88401  0.39624  0.81034  1.0000
  C   C5318     1.0  0.85845  0.20588  0.88502  1.0000
  C   C5319     1.0  0.85613  0.20892  0.86246  1.0000
  C   C5320     1.0  0.87025  0.21586  0.84382  1.0000
  C   C5321     1.0  0.88672  0.21991  0.84771  1.0000
  C   C5322     1.0  0.88919  0.21688  0.87033  1.0000
  C   C5323     1.0  0.87489  0.20986  0.88899  1.0000
  P   P177      1.0  0.91010  0.22492  0.87538  1.0000
  C   C5324     1.0  0.91209  0.24658  0.87999  1.0000
  C   C5325     1.0  0.91224  0.21156  0.90162  1.0000
  C   C5326     1.0  0.90531  0.21438  0.92322  1.0000
  C   C5327     1.0  0.79006  0.41211  0.62273  1.0000
  C   C5328     1.0  0.81603  0.23359  0.65043  1.0000
  C   C5329     1.0  0.96569  0.07611  0.73870  1.0000
  C   C5330     1.0  0.92085  0.19845  0.90090  1.0000
  C   C5331     1.0  0.92570  0.25435  0.88881  1.0000
  C   C5332     1.0  0.92681  0.27068  0.89369  1.0000
  C   C5333     1.0  0.91418  0.27923  0.89021  1.0000
  C   C5334     1.0  0.90054  0.27152  0.88165  1.0000
  C   C5335     1.0  0.89956  0.25535  0.87632  1.0000
  C   C5336     1.0  0.92642  0.22440  0.85118  1.0000
  C   C5337     1.0  0.94080  0.23848  0.84172  1.0000
  H   H4257     1.0  0.96084  0.00502  0.64143  1.0000
  H   H4258     1.0  0.82960  0.43303  0.86007  1.0000
  S   S712      1.0  0.97102  0.99557  0.81186  1.0000
  C   C5338     1.0  0.92512  0.20951  0.84219  1.0000
  H   H4259     1.0  0.84737  0.20098  0.89943  1.0000
  H   H4260     1.0  0.84332  0.20633  0.85956  1.0000
  H   H4261     1.0  0.86842  0.21890  0.82638  1.0000
  H   H4262     1.0  0.89739  0.22619  0.83309  1.0000
  H   H4263     1.0  0.87626  0.20792  0.90664  1.0000
  H   H4264     1.0  0.89861  0.22440  0.92429  1.0000
  S   S713      1.0  0.97846  0.11767  0.50276  1.0000
  H   H4265     1.0  0.84825  0.43938  0.95696  1.0000
  H   H4266     1.0  0.92130  0.26096  0.59687  1.0000
  H   H4267     1.0  0.92648  0.19592  0.88472  1.0000
  H   H4268     1.0  0.93539  0.24772  0.89201  1.0000
  H   H4269     1.0  0.93737  0.27668  0.90036  1.0000
  H   H4270     1.0  0.91490  0.29182  0.89418  1.0000
  H   H4271     1.0  0.89073  0.27813  0.87895  1.0000
  H   H4272     1.0  0.88901  0.24982  0.86932  1.0000
  H   H4273     1.0  0.94184  0.25042  0.84741  1.0000
  C   C5339     1.0  0.85513  0.47947  0.92196  1.0000
  H   H4274     1.0  0.90983  0.03008  0.96600  1.0000
  C   C5340     1.0  0.84378  0.42394  0.55378  1.0000
  H   H4275     1.0  0.91404  0.19854  0.84905  1.0000
  C   C5341     1.0  0.91529  0.19113  0.94276  1.0000
  C   C5342     1.0  0.95041  0.06840  0.73352  1.0000
  C   C5343     1.0  0.81689  0.45538  0.57910  1.0000
  H   H4276     1.0  0.95414  0.30322  0.52129  1.0000
  H   H4277     1.0  0.93524  0.32193  0.53132  1.0000
  H   H4278     1.0  0.95744  0.48828  0.85971  1.0000
  C   C5344     1.0  0.96470  0.38316  0.92372  1.0000
  C   C5345     1.0  0.84879  0.44447  0.92078  1.0000
  C   C5346     1.0  0.87445  0.00149  0.90175  1.0000
  H   H4279     1.0  0.86458  0.44026  0.56308  1.0000
  H   H4280     1.0  0.84632  0.39261  0.83334  1.0000
  H   H4281     1.0  0.95327  0.16125  0.56243  1.0000
  H   H4282     1.0  0.93837  0.06821  0.74445  1.0000
  C   C5347     1.0  0.81869  0.21173  0.80460  1.0000
  C   C5348     1.0  0.80864  0.21278  0.78838  1.0000
  Fe  Fe355     1.0  0.97614  0.25633  0.58785  1.0000
  C   C5349     1.0  0.84548  0.42470  0.59316  1.0000
  C   C5350     1.0  0.95135  0.14750  0.56363  1.0000
  Fe  Fe356     1.0  0.85568  0.24511  0.47615  1.0000
  C   C5351     1.0  0.79885  0.45416  0.50553  1.0000
  S   S714      1.0  0.85584  0.48218  0.60425  1.0000
  H   H4283     1.0  0.96952  0.10404  0.65108  1.0000
  C   C5352     1.0  0.88850  0.03203  0.88788  1.0000
  H   H4284     1.0  0.97117  0.15548  0.62745  1.0000
  C   C5353     1.0  0.82915  0.45976  0.85516  1.0000
  H   H4285     1.0  0.95721  0.02974  0.49398  1.0000
  C   C5354     1.0  0.81767  0.41265  0.77717  1.0000
  H   H4286     1.0  0.93866  0.05385  0.71178  1.0000
  H   H4287     1.0  0.94062  0.04462  0.96016  1.0000
  H   H4288     1.0  0.89848  0.21490  0.76939  1.0000
  P   P178      1.0  0.92337  0.00561  0.86822  1.0000
  H   H4289     1.0  0.83112  0.20929  0.80004  1.0000
  H   H4290     1.0  0.81328  0.21122  0.77113  1.0000
  H   H4291     1.0  0.79145  0.25452  0.81914  1.0000
  H   H4292     1.0  0.92716  0.43624  0.47680  1.0000
  H   H4293     1.0  0.91578  0.32895  0.50649  1.0000
  C   C5355     1.0  0.91470  0.19274  0.47375  1.0000
  C   C5356     1.0  0.90680  0.20418  0.94367  1.0000
  C   C5357     1.0  0.92234  0.18830  0.92139  1.0000
  H   H4294     1.0  0.85217  0.42978  0.60538  1.0000
  C   C5358     1.0  0.93792  0.13886  0.55543  1.0000
  C   C5359     1.0  0.88469  0.30038  0.50607  1.0000
  C   C5360     1.0  0.79476  0.43610  0.51199  1.0000
  C   C5361     1.0  0.85066  0.38540  0.86725  1.0000
  H   H4295     1.0  0.97599  0.23676  0.67443  1.0000
  P   P179      1.0  0.85684  0.47363  0.96828  1.0000
  P   P180      1.0  0.96635  0.04795  0.67877  1.0000
  P   P181      1.0  0.86087  0.26260  0.60543  1.0000
  C   C5362     1.0  0.87970  0.26088  0.61617  1.0000
  C   C5363     1.0  0.85836  0.24974  0.58423  1.0000
  C   C5364     1.0  0.86688  0.23664  0.58255  1.0000
  C   C5365     1.0  0.86541  0.22742  0.56527  1.0000
  C   C5366     1.0  0.85509  0.23088  0.55002  1.0000
  C   C5367     1.0  0.84596  0.24325  0.55236  1.0000
  C   C5368     1.0  0.84752  0.25264  0.56938  1.0000
  C   C5369     1.0  0.87897  0.25747  0.64005  1.0000
  C   C5370     1.0  0.89337  0.25533  0.64822  1.0000
  C   C5371     1.0  0.80762  0.42747  0.50890  1.0000
  C   C5372     1.0  0.96625  0.05995  0.70129  1.0000
  H   H4296     1.0  0.96861  0.20840  0.61392  1.0000
  C   C5373     1.0  0.86251  0.28471  0.59117  1.0000
  C   C5374     1.0  0.87841  0.29610  0.57938  1.0000
  C   C5375     1.0  0.87939  0.31299  0.56785  1.0000
  C   C5376     1.0  0.86455  0.31864  0.56802  1.0000
  C   C5377     1.0  0.84870  0.30741  0.57968  1.0000
  C   C5378     1.0  0.84767  0.29051  0.59106  1.0000
  H   H4297     1.0  0.98094  0.01902  0.69486  1.0000
  H   H4298     1.0  0.96512  0.24833  0.81726  1.0000
  C   C5379     1.0  0.85150  0.45709  0.90046  1.0000
  C   C5380     1.0  0.93839  0.20844  0.82485  1.0000
  C   C5381     1.0  0.95230  0.44295  0.48350  1.0000
  H   H4299     1.0  0.87475  0.23354  0.59435  1.0000
  H   H4300     1.0  0.87243  0.21776  0.56348  1.0000
  H   H4301     1.0  0.85433  0.22421  0.53612  1.0000
  H   H4302     1.0  0.83771  0.24565  0.54083  1.0000
  C   C5382     1.0  0.98125  0.07583  0.72524  1.0000
  H   H4303     1.0  0.86729  0.25619  0.65249  1.0000
  H   H4304     1.0  0.89270  0.25257  0.66665  1.0000
  H   H4305     1.0  0.82465  0.40772  0.61981  1.0000
  C   C5383     1.0  0.94093  0.02005  0.67547  1.0000
  C   C5384     1.0  0.97469  0.19815  0.58388  1.0000
  H   H4306     1.0  0.89006  0.29205  0.57883  1.0000
  C   C5385     1.0  0.96256  0.13859  0.57213  1.0000
  H   H4307     1.0  0.86528  0.33170  0.55910  1.0000
  H   H4308     1.0  0.83711  0.31170  0.57993  1.0000
  H   H4309     1.0  0.83518  0.28198  0.59965  1.0000
  C   C5386     1.0  0.93542  0.31737  0.51553  1.0000
  C   C5387     1.0  0.94613  0.30688  0.50987  1.0000
  C   C5388     1.0  0.79440  0.33701  0.61274  1.0000
  C   C5389     1.0  0.90437  0.01074  0.88171  1.0000
  C   C5390     1.0  0.93991  0.44479  0.47090  1.0000
  C   C5391     1.0  0.92450  0.32139  0.50135  1.0000
  C   C5392     1.0  0.86865  0.29559  0.52132  1.0000
  C   C5393     1.0  0.80014  0.07535  0.90138  1.0000
  H   H4310     1.0  0.92297  0.16571  0.49931  1.0000
  C   C5394     1.0  0.93360  0.00400  0.72247  1.0000
  C   C5395     1.0  0.89608  0.12692  0.52848  1.0000
  S   S715      1.0  0.96149  0.00081  0.52520  1.0000
  S   S716      1.0  0.81259  0.25552  0.47066  1.0000
  H   H4311     1.0  0.97429  0.48313  0.49306  1.0000
  S   S717      1.0  0.91243  0.48362  0.51607  1.0000
  H   H4312     1.0  0.81907  0.45749  0.87047  1.0000
  C   C5396     1.0  0.97164  0.04703  0.86766  1.0000
  S   S718      1.0  0.97843  0.26943  0.52144  1.0000
  H   H4313     1.0  0.86700  0.41336  0.89806  1.0000
  C   C5397     1.0  0.93499  0.30428  0.47586  1.0000
  C   C5398     1.0  0.78719  0.19063  0.91115  1.0000
  C   C5399     1.0  0.79260  0.21597  0.79431  1.0000
  S   S719      1.0  0.96916  0.28001  0.57125  1.0000
  C   C5400     1.0  0.83054  0.23906  0.63216  1.0000
  S   S720      1.0  0.97248  0.11022  0.86598  1.0000
  H   H4314     1.0  0.93395  0.48928  0.91693  1.0000
  H   H4315     1.0  0.97161  0.43325  0.91445  1.0000
  Fe  Fe357     1.0  0.97415  0.01374  0.77802  1.0000
  H   H4316     1.0  0.97549  0.48413  0.92612  1.0000
  H   H4317     1.0  0.96517  0.26812  0.85789  1.0000
  H   H4318     1.0  0.80169  0.24002  0.67977  1.0000
  C   C5401     1.0  0.83601  0.47648  0.84115  1.0000
  C   C5402     1.0  0.84869  0.47932  0.82108  1.0000
  H   H4319     1.0  0.87988  0.42162  0.46951  1.0000
  C   C5403     1.0  0.96754  0.05709  0.63147  1.0000
  H   H4320     1.0  0.83135  0.48720  0.84561  1.0000
  C   C5404     1.0  0.95065  0.00109  0.94051  1.0000
  H   H4321     1.0  0.83013  0.37799  0.60880  1.0000
  H   H4322     1.0  0.97809  0.45288  0.48611  1.0000
  C   C5405     1.0  0.96842  0.06371  0.80293  1.0000
  H   H4323     1.0  0.94551  0.31479  0.77478  1.0000
  C   C5406     1.0  0.79495  0.00215  0.95362  1.0000
  C   C5407     1.0  0.97456  0.44713  0.90765  1.0000
  H   H4324     1.0  0.94627  0.08007  0.59985  1.0000
  C   C5408     1.0  0.82090  0.40566  0.58580  1.0000
  H   H4325     1.0  0.89277  0.44874  0.52124  1.0000
  C   C5409     1.0  0.88754  0.31153  0.48425  1.0000
  C   C5410     1.0  0.82811  0.41147  0.56192  1.0000
  H   H4326     1.0  0.98263  0.05739  0.86697  1.0000
  C   C5411     1.0  0.97652  0.16829  0.59111  1.0000
  C   C5412     1.0  0.97927  0.11339  0.63738  1.0000
  Fe  Fe358     1.0  0.86988  0.01231  0.96544  1.0000
  H   H4327     1.0  0.97104  0.35122  0.89660  1.0000
  C   C5413     1.0  0.96920  0.18163  0.62321  1.0000
  H   H4328     1.0  0.83539  0.34919  0.61782  1.0000
  C   C5414     1.0  0.78906  0.38866  0.57395  1.0000
  P   P182      1.0  0.98117  0.15017  0.58001  1.0000
  H   H4329     1.0  0.96900  0.23821  0.86597  1.0000
  H   H4330     1.0  0.79074  0.39039  0.68266  1.0000
  C   C5415     1.0  0.84169  0.04608  0.94896  1.0000
  H   H4331     1.0  0.80080  0.42217  0.61187  1.0000
  C   C5416     1.0  0.79128  0.35334  0.60751  1.0000
  C   C5417     1.0  0.94314  0.21864  0.47402  1.0000
  H   H4332     1.0  0.85287  0.04920  0.93485  1.0000
  H   H4333     1.0  0.89476  0.11319  0.52978  1.0000
  C   C5418     1.0  0.80498  0.44600  0.56925  1.0000
  C   C5419     1.0  0.93510  0.47818  0.95171  1.0000
  C   C5420     1.0  0.97056  0.19712  0.60763  1.0000
  C   C5421     1.0  0.80022  0.06491  0.92247  1.0000
  S   S721      1.0  0.97969  0.16072  0.86935  1.0000
  C   C5422     1.0  0.97670  0.47598  0.91409  1.0000
  H   H4334     1.0  0.88438  0.19914  0.48522  1.0000
  H   H4335     1.0  0.96132  0.34957  0.49526  1.0000
  C   C5423     1.0  0.96369  0.35746  0.47792  1.0000
  C   C5424     1.0  0.97215  0.16724  0.61503  1.0000
  H   H4336     1.0  0.93295  0.21421  0.51028  1.0000
  P   P183      1.0  0.85066  0.46756  0.48026  1.0000
  H   H4337     1.0  0.96607  0.18088  0.64165  1.0000
  C   C5425     1.0  0.98164  0.25059  0.66918  1.0000
  C   C5426     1.0  0.79275  0.37898  0.55754  1.0000
  C   C5427     1.0  0.97345  0.45814  0.92278  1.0000
  C   C5428     1.0  0.97733  0.07701  0.81161  1.0000
  H   H4338     1.0  0.92693  0.35188  0.47217  1.0000
  C   C5429     1.0  0.86234  0.48616  0.73335  1.0000
  H   H4339     1.0  0.85376  0.49215  0.80981  1.0000
  C   C5430     1.0  0.97966  0.24926  0.86397  1.0000
  C   C5431     1.0  0.97924  0.45398  0.88379  1.0000
  H   H4340     1.0  0.79407  0.29024  0.73318  1.0000
  C   C5432     1.0  0.97758  0.18381  0.57567  1.0000
  C   C5433     1.0  0.98164  0.39113  0.92320  1.0000
  C   C5434     1.0  0.93441  0.46296  0.96771  1.0000
  H   H4341     1.0  0.96921  0.11401  0.57714  1.0000
  H   H4342     1.0  0.78631  0.37015  0.52794  1.0000
  H   H4343     1.0  0.97981  0.44539  0.87208  1.0000
  H   H4344     1.0  0.88892  0.46302  0.96390  1.0000
  C   C5435     1.0  0.96383  0.37496  0.47460  1.0000
  H   H4345     1.0  0.78511  0.21681  0.78139  1.0000
  H   H4346     1.0  0.98306  0.01950  0.89256  1.0000
  C   C5436     1.0  0.91114  0.03664  0.46980  1.0000
  C   C5437     1.0  0.98279  0.47186  0.87505  1.0000
  H   H4347     1.0  0.78439  0.32541  0.61447  1.0000
  H   H4348     1.0  0.95168  0.49289  0.82084  1.0000
  S   S722      1.0  0.98325  0.26169  0.76435  1.0000
  C   C5438     1.0  0.98303  0.25937  0.64625  1.0000
  C   C5439     1.0  0.78362  0.37793  0.54027  1.0000
  H   H4349     1.0  0.85785  0.49312  0.92200  1.0000
  S   S723      1.0  0.83395  0.96519  0.43484  1.0000
  S   S724      1.0  0.95239  0.87257  0.39493  1.0000
  H   H4350     1.0  0.84258  0.56051  0.41929  1.0000
  C   C5440     1.0  0.85860  0.64373  0.36078  1.0000
  C   C5441     1.0  0.79757  0.91760  0.39353  1.0000
  C   C5442     1.0  0.78945  0.98659  0.02096  1.0000
  S   S725      1.0  0.84349  0.56929  0.97443  1.0000
  C   C5443     1.0  0.88814  0.94703  0.99561  1.0000
  H   H4351     1.0  0.94879  0.90167  0.20133  1.0000
  S   S726      1.0  0.84387  0.96639  0.00245  1.0000
  H   H4352     1.0  0.82283  0.96430  0.12939  1.0000
  H   H4353     1.0  0.79376  0.96822  0.13900  1.0000
  H   H4354     1.0  0.85612  0.90588  0.98426  1.0000
  H   H4355     1.0  0.83377  0.93724  0.37872  1.0000
  Fe  Fe359     1.0  0.86198  0.60786  0.30662  1.0000
  S   S727      1.0  0.86358  0.58171  0.30039  1.0000
  S   S728      1.0  0.88352  0.63240  0.28771  1.0000
  Fe  Fe360     1.0  0.82407  0.59309  0.33348  1.0000
  S   S729      1.0  0.82338  0.56610  0.32899  1.0000
  S   S730      1.0  0.80030  0.60180  0.34721  1.0000
  Fe  Fe361     1.0  0.84932  0.57132  0.33758  1.0000
  S   S731      1.0  0.85576  0.54867  0.35906  1.0000
  Fe  Fe362     1.0  0.83759  0.57844  0.29217  1.0000
  S   S732      1.0  0.83377  0.56987  0.25875  1.0000
  S   S733      1.0  0.84917  0.59766  0.34460  1.0000
  S   S734      1.0  0.83687  0.60532  0.29593  1.0000
  Fe  Fe363     1.0  0.84549  0.57146  0.01055  1.0000
  S   S735      1.0  0.83692  0.59600  0.00815  1.0000
  S   S736      1.0  0.83766  0.54749  0.04003  1.0000
  H   H4356     1.0  0.89897  0.54362  0.33573  1.0000
  S   S737      1.0  0.87346  0.58525  0.00046  1.0000
  C   C5444     1.0  0.84856  0.91391  0.43531  1.0000
  C   C5445     1.0  0.96163  0.66372  0.22976  1.0000
  H   H4357     1.0  0.87029  0.68416  0.41067  1.0000
  H   H4358     1.0  0.78837  0.93115  0.43157  1.0000
  H   H4359     1.0  0.98126  0.80451  0.29274  1.0000
  C   C5446     1.0  0.90961  0.86324  0.44506  1.0000
  Fe  Fe364     1.0  0.96740  0.70292  0.29411  1.0000
  S   S738      1.0  0.94632  0.67903  0.31631  1.0000
  S   S739      1.0  0.96525  0.72597  0.26857  1.0000
  Fe  Fe365     1.0  0.97543  0.71804  0.04822  1.0000
  C   C5447     1.0  0.78492  0.59452  0.37403  1.0000
  C   C5448     1.0  0.89060  0.94763  0.97201  1.0000
  Fe  Fe366     1.0  0.96422  0.69908  0.09893  1.0000
  S   S740      1.0  0.96804  0.67411  0.09084  1.0000
  S   S741      1.0  0.95340  0.70085  0.13582  1.0000
  Fe  Fe367     1.0  0.95514  0.67961  0.06145  1.0000
  S   S742      1.0  0.93895  0.65507  0.05450  1.0000
  S   S743      1.0  0.94949  0.70370  0.07114  1.0000
  Fe  Fe368     1.0  0.91226  0.53039  0.44581  1.0000
  S   S744      1.0  0.93489  0.53100  0.41872  1.0000
  S   S745      1.0  0.89671  0.54981  0.43848  1.0000
  C   C5449     1.0  0.82340  0.74284  0.42999  1.0000
  H   H4360     1.0  0.93631  0.62768  0.39227  1.0000
  H   H4361     1.0  0.82748  0.89436  0.97856  1.0000
  C   C5450     1.0  0.90412  0.69500  0.97586  1.0000
  H   H4362     1.0  0.86181  0.92520  0.39973  1.0000
  C   C5451     1.0  0.78711  0.90342  0.38823  1.0000
  C   C5452     1.0  0.84978  0.60337  0.41948  1.0000
  Fe  Fe369     1.0  0.86498  0.60982  0.99569  1.0000
  C   C5453     1.0  0.96661  0.71258  0.19409  1.0000
  C   C5454     1.0  0.95733  0.70758  0.17789  1.0000
  C   C5455     1.0  0.96571  0.70790  0.15527  1.0000
  H   H4363     1.0  0.90738  0.91803  0.04325  1.0000
  C   C5456     1.0  0.81489  0.49439  0.23713  1.0000
  H   H4364     1.0  0.94357  0.70323  0.18308  1.0000
  H   H4365     1.0  0.88874  0.66436  0.02461  1.0000
  C   C5457     1.0  0.81385  0.85666  0.45701  1.0000
  C   C5458     1.0  0.82006  0.54421  0.06332  1.0000
  C   C5459     1.0  0.81661  0.52984  0.08191  1.0000
  C   C5460     1.0  0.80254  0.52657  0.10063  1.0000
  H   H4366     1.0  0.90281  0.57363  0.31379  1.0000
  C   C5461     1.0  0.80925  0.55527  0.06341  1.0000
  H   H4367     1.0  0.82485  0.52116  0.08181  1.0000
  H   H4368     1.0  0.80001  0.51546  0.11489  1.0000
  H   H4369     1.0  0.95997  0.71210  0.21148  1.0000
  C   C5462     1.0  0.89319  0.63966  0.02128  1.0000
  C   C5463     1.0  0.89684  0.65575  0.02747  1.0000
  C   C5464     1.0  0.91096  0.66088  0.03716  1.0000
  C   C5465     1.0  0.92142  0.64979  0.04129  1.0000
  C   C5466     1.0  0.91763  0.63361  0.03541  1.0000
  C   C5467     1.0  0.90371  0.62861  0.02532  1.0000
  H   H4370     1.0  0.91360  0.67325  0.04179  1.0000
  H   H4371     1.0  0.92558  0.62487  0.03860  1.0000
  H   H4372     1.0  0.90112  0.61622  0.02068  1.0000
  C   C5468     1.0  0.86803  0.54970  0.38014  1.0000
  C   C5469     1.0  0.87407  0.56508  0.38673  1.0000
  C   C5470     1.0  0.88301  0.56501  0.40452  1.0000
  C   C5471     1.0  0.88631  0.54967  0.41539  1.0000
  C   C5472     1.0  0.88064  0.53439  0.40837  1.0000
  C   C5473     1.0  0.87143  0.53443  0.39093  1.0000
  H   H4373     1.0  0.87148  0.57688  0.37850  1.0000
  H   H4374     1.0  0.88741  0.57687  0.40984  1.0000
  H   H4375     1.0  0.88310  0.52250  0.41660  1.0000
  H   H4376     1.0  0.86690  0.52257  0.38571  1.0000
  Fe  Fe370     1.0  0.98227  0.98955  0.10934  1.0000
  H   H4377     1.0  0.92050  0.87943  0.41080  1.0000
  C   C5474     1.0  0.81096  0.52686  0.00810  1.0000
  Fe  Fe371     1.0  0.83688  0.59486  0.97094  1.0000
  C   C5475     1.0  0.79349  0.58331  0.01114  1.0000
  C   C5476     1.0  0.81678  0.55438  0.25353  1.0000
  C   C5477     1.0  0.81788  0.55133  0.23114  1.0000
  C   C5478     1.0  0.80468  0.53928  0.22614  1.0000
  P   P184      1.0  0.95601  0.95903  0.98470  1.0000
  C   C5479     1.0  0.79019  0.53008  0.24351  1.0000
  C   C5480     1.0  0.80229  0.54517  0.27090  1.0000
  H   H4378     1.0  0.82900  0.55838  0.21755  1.0000
  H   H4379     1.0  0.80566  0.53717  0.20885  1.0000
  H   H4380     1.0  0.80126  0.54728  0.28821  1.0000
  C   C5481     1.0  0.90112  0.64490  0.29595  1.0000
  C   C5482     1.0  0.91164  0.66010  0.28028  1.0000
  C   C5483     1.0  0.92559  0.67054  0.28608  1.0000
  C   C5484     1.0  0.92907  0.66611  0.30788  1.0000
  C   C5485     1.0  0.91842  0.65100  0.32368  1.0000
  C   C5486     1.0  0.90469  0.64036  0.31768  1.0000
  H   H4381     1.0  0.90901  0.66390  0.26349  1.0000
  H   H4382     1.0  0.93354  0.68213  0.27373  1.0000
  H   H4383     1.0  0.92072  0.64757  0.34074  1.0000
  H   H4384     1.0  0.89667  0.62881  0.32993  1.0000
  H   H4385     1.0  0.97900  0.75861  0.41351  1.0000
  C   C5487     1.0  0.81831  0.94968  0.35926  1.0000
  H   H4386     1.0  0.86814  0.64469  0.37093  1.0000
  C   C5488     1.0  0.81895  0.96171  0.33897  1.0000
  H   H4387     1.0  0.79253  0.96727  0.00168  1.0000
  C   C5489     1.0  0.97607  0.69377  0.36953  1.0000
  C   C5490     1.0  0.80183  0.57459  0.18813  1.0000
  H   H4388     1.0  0.78978  0.98074  0.31501  1.0000
  C   C5491     1.0  0.97840  0.64759  0.02030  1.0000
  H   H4389     1.0  0.83525  0.49469  0.14353  1.0000
  C   C5492     1.0  0.90785  0.49801  0.00561  1.0000
  C   C5493     1.0  0.79241  0.97317  0.43365  1.0000
  H   H4390     1.0  0.91614  0.64396  0.40631  1.0000
  H   H4391     1.0  0.79798  0.87044  0.42060  1.0000
  Fe  Fe372     1.0  0.83507  0.99093  0.99650  1.0000
  H   H4392     1.0  0.88712  0.63821  0.39871  1.0000
  H   H4393     1.0  0.89641  0.50047  0.00085  1.0000
  C   C5494     1.0  0.83893  0.91672  0.45514  1.0000
  S   S746      1.0  0.97276  0.98513  0.14844  1.0000
  H   H4394     1.0  0.91267  0.99019  0.30721  1.0000
  H   H4395     1.0  0.88469  0.53362  0.97139  1.0000
  H   H4396     1.0  0.83826  0.74052  0.45570  1.0000
  H   H4397     1.0  0.81170  0.56628  0.04906  1.0000
  H   H4398     1.0  0.96034  0.57470  0.44191  1.0000
  H   H4399     1.0  0.97146  0.62811  0.41405  1.0000
  C   C5495     1.0  0.93962  0.85200  0.43936  1.0000
  C   C5496     1.0  0.93727  0.86421  0.42150  1.0000
  C   C5497     1.0  0.92236  0.86997  0.42456  1.0000
  H   H4400     1.0  0.89343  0.70063  0.97923  1.0000
  H   H4401     1.0  0.95110  0.84753  0.43712  1.0000
  C   C5498     1.0  0.79619  0.95259  0.40137  1.0000
  C   C5499     1.0  0.91761  0.72571  0.05571  1.0000
  C   C5500     1.0  0.84047  0.94595  0.43462  1.0000
  C   C5501     1.0  0.85053  0.94339  0.41490  1.0000
  C   C5502     1.0  0.85433  0.92728  0.41513  1.0000
  H   H4402     1.0  0.85510  0.95372  0.39940  1.0000
  H   H4403     1.0  0.87527  0.92057  0.45891  1.0000
  H   H4404     1.0  0.79233  0.92855  0.33820  1.0000
  H   H4405     1.0  0.98234  0.82797  0.05502  1.0000
  S   S747      1.0  0.78964  0.50788  0.17344  1.0000
  H   H4406     1.0  0.89245  0.77127  0.97067  1.0000
  P   P185      1.0  0.92489  0.72663  0.97776  1.0000
  H   H4407     1.0  0.80578  0.60329  0.43652  1.0000
  C   C5503     1.0  0.78874  0.64200  0.41221  1.0000
  C   C5504     1.0  0.80127  0.61422  0.42956  1.0000
  H   H4408     1.0  0.97412  0.94469  0.05857  1.0000
  H   H4409     1.0  0.91187  0.51926  0.02246  1.0000
  S   S748      1.0  0.95337  0.85579  0.99785  1.0000
  C   C5505     1.0  0.79700  0.98078  0.41000  1.0000
  C   C5506     1.0  0.95541  0.92539  0.98041  1.0000
  H   H4410     1.0  0.90341  0.69913  0.06132  1.0000
  H   H4411     1.0  0.93050  0.88551  0.01563  1.0000
  H   H4412     1.0  0.80168  0.56732  0.98911  1.0000
  C   C5507     1.0  0.96853  0.79367  0.02377  1.0000
  C   C5508     1.0  0.95231  0.90750  0.28423  1.0000
  C   C5509     1.0  0.96277  0.94919  0.26267  1.0000
  C   C5510     1.0  0.95960  0.94923  0.28629  1.0000
  C   C5511     1.0  0.94890  0.95882  0.29516  1.0000
  C   C5512     1.0  0.94145  0.96860  0.28049  1.0000
  C   C5513     1.0  0.94487  0.96897  0.25686  1.0000
  C   C5514     1.0  0.95544  0.95926  0.24796  1.0000
  H   H4413     1.0  0.98109  0.61091  0.29770  1.0000
  H   H4414     1.0  0.79374  0.57252  0.38715  1.0000
  S   S749      1.0  0.97997  0.69433  0.03634  1.0000
  P   P186      1.0  0.79811  0.93965  0.38011  1.0000
  H   H4415     1.0  0.95864  0.65811  0.00916  1.0000
  P   P187      1.0  0.83441  0.62914  0.40250  1.0000
  H   H4416     1.0  0.88458  0.90431  0.01568  1.0000
  S   S750      1.0  0.87559  0.63423  0.00821  1.0000
  H   H4417     1.0  0.92335  0.96828  0.99673  1.0000
  C   C5515     1.0  0.92409  0.98191  0.05600  1.0000
  C   C5516     1.0  0.94403  0.97372  0.36156  1.0000
  C   C5517     1.0  0.95551  0.58018  0.42750  1.0000
  S   S751      1.0  0.84096  0.99098  0.36938  1.0000
  H   H4418     1.0  0.93419  0.88654  0.31012  1.0000
  H   H4419     1.0  0.94250  0.91305  0.27871  1.0000
  H   H4420     1.0  0.96533  0.94179  0.29791  1.0000
  C   C5518     1.0  0.97898  0.79216  0.00364  1.0000
  H   H4421     1.0  0.83568  0.52230  0.00822  1.0000
  H   H4422     1.0  0.93233  0.75229  0.04482  1.0000
  C   C5519     1.0  0.78350  0.98114  0.25515  1.0000
  C   C5520     1.0  0.84295  0.52064  0.12203  1.0000
  C   C5521     1.0  0.83682  0.50835  0.14307  1.0000
  C   C5522     1.0  0.83225  0.51363  0.16353  1.0000
  C   C5523     1.0  0.83344  0.53114  0.16293  1.0000
  C   C5524     1.0  0.83953  0.54359  0.14185  1.0000
  C   C5525     1.0  0.84431  0.53819  0.12136  1.0000
  P   P188      1.0  0.83997  0.56602  0.14123  1.0000
  C   C5526     1.0  0.85645  0.57620  0.15423  1.0000
  C   C5527     1.0  0.84385  0.57795  0.11155  1.0000
  C   C5528     1.0  0.86070  0.58458  0.09824  1.0000
  C   C5529     1.0  0.86397  0.59409  0.07542  1.0000
  C   C5530     1.0  0.85045  0.59684  0.06558  1.0000
  C   C5531     1.0  0.83364  0.58996  0.07848  1.0000
  C   C5532     1.0  0.83031  0.58053  0.10136  1.0000
  C   C5533     1.0  0.86263  0.56638  0.17082  1.0000
  C   C5534     1.0  0.87489  0.57457  0.18129  1.0000
  C   C5535     1.0  0.88117  0.59258  0.17520  1.0000
  C   C5536     1.0  0.87504  0.60246  0.15882  1.0000
  C   C5537     1.0  0.86265  0.59434  0.14850  1.0000
  C   C5538     1.0  0.81929  0.56596  0.15759  1.0000
  C   C5539     1.0  0.81785  0.57572  0.17449  1.0000
  P   P189      1.0  0.97543  0.93551  0.25200  1.0000
  H   H4423     1.0  0.82318  0.59186  0.07064  1.0000
  C   C5540     1.0  0.83471  0.93257  0.45468  1.0000
  C   C5541     1.0  0.80446  0.55521  0.15450  1.0000
  S   S752      1.0  0.97670  0.54741  0.43349  1.0000
  H   H4424     1.0  0.82922  0.53491  0.17886  1.0000
  H   H4425     1.0  0.84864  0.54735  0.10473  1.0000
  H   H4426     1.0  0.87135  0.58244  0.10549  1.0000
  H   H4427     1.0  0.87697  0.59936  0.06525  1.0000
  H   H4428     1.0  0.85305  0.60425  0.04790  1.0000
  H   H4429     1.0  0.86715  0.50505  0.46172  1.0000
  H   H4430     1.0  0.81717  0.57527  0.11084  1.0000
  H   H4431     1.0  0.85798  0.55245  0.17593  1.0000
  H   H4432     1.0  0.87944  0.56695  0.19431  1.0000
  H   H4433     1.0  0.89068  0.59889  0.18331  1.0000
  H   H4434     1.0  0.87983  0.61644  0.15423  1.0000
  H   H4435     1.0  0.85781  0.60225  0.13616  1.0000
  H   H4436     1.0  0.82901  0.58388  0.17765  1.0000
  H   H4437     1.0  0.91867  0.90424  0.98945  1.0000
  H   H4438     1.0  0.79162  0.98122  0.44605  1.0000
  C   C5542     1.0  0.80066  0.97172  0.12110  1.0000
  H   H4439     1.0  0.80522  0.54743  0.14174  1.0000
  H   H4440     1.0  0.88747  0.95860  0.00177  1.0000
  C   C5543     1.0  0.96265  0.77939  0.04287  1.0000
  H   H4441     1.0  0.89798  0.86744  0.44690  1.0000
  S   S753      1.0  0.88095  0.98954  0.96944  1.0000
  H   H4442     1.0  0.94660  0.95880  0.31340  1.0000
  C   C5544     1.0  0.97055  0.65480  0.00374  1.0000
  C   C5545     1.0  0.79268  0.73457  0.44455  1.0000
  H   H4443     1.0  0.93957  0.82473  0.97376  1.0000
  H   H4444     1.0  0.80794  0.52553  0.02659  1.0000
  C   C5546     1.0  0.97850  0.94487  0.20450  1.0000
  C   C5547     1.0  0.97628  0.63496  0.30341  1.0000
  C   C5548     1.0  0.81718  0.96947  0.11574  1.0000
  C   C5549     1.0  0.86389  0.64901  0.33668  1.0000
  H   H4445     1.0  0.83921  0.97207  0.08849  1.0000
  C   C5550     1.0  0.97769  0.76230  0.02188  1.0000
  H   H4446     1.0  0.91683  0.85405  0.02868  1.0000
  C   C5551     1.0  0.81222  0.62841  0.41263  1.0000
  C   C5552     1.0  0.89694  0.85503  0.01008  1.0000
  C   C5553     1.0  0.82553  0.73878  0.45259  1.0000
  C   C5554     1.0  0.97346  0.61696  0.30858  1.0000
  H   H4447     1.0  0.82720  0.50405  0.17978  1.0000
  C   C5555     1.0  0.91656  0.50859  0.01780  1.0000
  C   C5556     1.0  0.92921  0.74110  0.01567  1.0000
  H   H4448     1.0  0.89818  0.59987  0.36262  1.0000
  C   C5557     1.0  0.79093  0.94495  0.42520  1.0000
  C   C5558     1.0  0.79508  0.55193  0.08206  1.0000
  H   H4449     1.0  0.87730  0.65429  0.32845  1.0000
  C   C5559     1.0  0.92686  0.74081  0.03926  1.0000
  H   H4450     1.0  0.85839  0.61316  0.42474  1.0000
  Fe  Fe373     1.0  0.97737  0.86541  0.38607  1.0000
  C   C5560     1.0  0.80452  0.84155  0.45268  1.0000
  S   S754      1.0  0.94315  0.50179  0.45654  1.0000
  Fe  Fe374     1.0  0.97193  0.83924  0.00029  1.0000
  C   C5561     1.0  0.87293  0.50721  0.97099  1.0000
  C   C5562     1.0  0.80787  0.89750  0.41901  1.0000
  C   C5563     1.0  0.89782  0.88343  0.98783  1.0000
  H   H4451     1.0  0.82126  0.56792  0.39792  1.0000
  C   C5564     1.0  0.94772  0.99107  0.34992  1.0000
  C   C5565     1.0  0.83359  0.94613  0.36328  1.0000
  H   H4452     1.0  0.81568  0.92505  0.41417  1.0000
  H   H4453     1.0  0.96547  0.96294  0.45291  1.0000
  C   C5566     1.0  0.82709  0.59463  0.40027  1.0000
  C   C5567     1.0  0.97725  0.89309  0.29945  1.0000
  C   C5568     1.0  0.91047  0.71092  0.04857  1.0000
  H   H4454     1.0  0.96262  0.75289  0.05672  1.0000
  C   C5569     1.0  0.96274  0.66902  0.20607  1.0000
  H   H4455     1.0  0.85490  0.66564  0.38916  1.0000
  C   C5570     1.0  0.94464  0.73962  0.10686  1.0000
  C   C5571     1.0  0.93161  0.74778  0.11183  1.0000
  C   C5572     1.0  0.93548  0.76444  0.11581  1.0000
  C   C5573     1.0  0.95239  0.77297  0.11464  1.0000
  H   H4456     1.0  0.86225  0.50623  0.98491  1.0000
  C   C5574     1.0  0.96158  0.74819  0.10544  1.0000
  C   C5575     1.0  0.82895  0.57774  0.40441  1.0000
  C   C5576     1.0  0.82643  0.97383  0.09274  1.0000
  C   C5577     1.0  0.79472  0.73057  0.46733  1.0000
  H   H4457     1.0  0.97518  0.67393  0.35019  1.0000
  C   C5578     1.0  0.83463  0.64009  0.33356  1.0000
  C   C5579     1.0  0.79952  0.53085  0.99467  1.0000
  C   C5580     1.0  0.91252  0.71123  0.02500  1.0000
  C   C5581     1.0  0.78910  0.53313  0.26588  1.0000
  C   C5582     1.0  0.84571  0.64308  0.41793  1.0000
  H   H4458     1.0  0.81608  0.89525  0.43074  1.0000
  H   H4459     1.0  0.97049  0.97674  0.41118  1.0000
  C   C5583     1.0  0.96073  0.98536  0.46431  1.0000
  C   C5584     1.0  0.92197  0.72632  0.00830  1.0000
  C   C5585     1.0  0.78927  0.95524  0.44125  1.0000
  C   C5586     1.0  0.96965  0.91547  0.27392  1.0000
  H   H4460     1.0  0.90681  0.69960  0.02000  1.0000
  H   H4461     1.0  0.95779  0.73193  0.99163  1.0000
  C   C5587     1.0  0.98210  0.90820  0.28185  1.0000
  H   H4462     1.0  0.89910  0.96404  0.06887  1.0000
  H   H4463     1.0  0.94160  0.72646  0.10464  1.0000
  H   H4464     1.0  0.91850  0.74104  0.11310  1.0000
  H   H4465     1.0  0.92536  0.77065  0.12014  1.0000
  C   C5588     1.0  0.79164  0.53754  0.10064  1.0000
  H   H4466     1.0  0.95639  0.87387  0.32375  1.0000
  Fe  Fe375     1.0  0.98289  0.74244  0.28570  1.0000
  H   H4467     1.0  0.94818  0.96455  0.35237  1.0000
  C   C5589     1.0  0.80775  0.91443  0.40931  1.0000
  H   H4468     1.0  0.95692  0.92043  0.04620  1.0000
  C   C5590     1.0  0.97121  0.93174  0.22477  1.0000
  Fe  Fe376     1.0  0.84481  0.98903  0.40543  1.0000
  H   H4469     1.0  0.86119  0.58321  0.43247  1.0000
  Fe  Fe377     1.0  0.92728  0.50199  0.43013  1.0000
  C   C5591     1.0  0.96761  0.98396  0.42412  1.0000
  C   C5592     1.0  0.94754  0.89250  0.30203  1.0000
  C   C5593     1.0  0.88972  0.91708  0.97940  1.0000
  H   H4470     1.0  0.97255  0.64549  0.03854  1.0000
  C   C5594     1.0  0.90638  0.75172  0.97396  1.0000
  H   H4471     1.0  0.95510  0.78564  0.11855  1.0000
  C   C5595     1.0  0.80590  0.64245  0.40431  1.0000
  H   H4472     1.0  0.78484  0.96834  0.26182  1.0000
  C   C5596     1.0  0.85397  0.89490  0.97640  1.0000
  C   C5597     1.0  0.80699  0.74069  0.42598  1.0000
  H   H4473     1.0  0.83447  0.74770  0.41559  1.0000
  H   H4474     1.0  0.93935  0.97682  0.24540  1.0000
  S   S755      1.0  0.96554  0.89497  0.02291  1.0000
  C   C5598     1.0  0.85321  0.64776  0.45382  1.0000
  C   C5599     1.0  0.83144  0.52704  0.97375  1.0000
  H   H4475     1.0  0.78552  0.52641  0.05461  1.0000
  C   C5600     1.0  0.88671  0.91643  0.00326  1.0000
  H   H4476     1.0  0.97583  0.74919  0.15153  1.0000
  C   C5601     1.0  0.97835  0.94004  0.39048  1.0000
  H   H4477     1.0  0.96233  0.69170  0.37384  1.0000
  C   C5602     1.0  0.84102  0.57358  0.41638  1.0000
  C   C5603     1.0  0.83448  0.96996  0.32310  1.0000
  C   C5604     1.0  0.84958  0.96641  0.32738  1.0000
  C   C5605     1.0  0.84912  0.95453  0.34746  1.0000
  H   H4478     1.0  0.83487  0.97947  0.30778  1.0000
  H   H4479     1.0  0.86170  0.97321  0.31547  1.0000
  H   H4480     1.0  0.86093  0.95222  0.35109  1.0000
  C   C5606     1.0  0.78689  0.99068  0.32357  1.0000
  H   H4481     1.0  0.92968  0.57417  0.44755  1.0000
  C   C5607     1.0  0.78847  0.55426  0.16804  1.0000
  H   H4482     1.0  0.95294  0.88789  0.46621  1.0000
  C   C5608     1.0  0.96728  0.76381  0.04198  1.0000
  C   C5609     1.0  0.91247  0.89053  0.99518  1.0000
  C   C5610     1.0  0.82926  0.63520  0.35768  1.0000
  H   H4483     1.0  0.84631  0.51655  0.10610  1.0000
  C   C5611     1.0  0.86324  0.67095  0.41927  1.0000
  C   C5612     1.0  0.96064  0.60674  0.32760  1.0000
  S   S756      1.0  0.98267  0.96342  0.32680  1.0000
  C   C5613     1.0  0.78455  0.57992  0.39062  1.0000
  C   C5614     1.0  0.96483  0.97619  0.44760  1.0000
  H   H4484     1.0  0.88801  0.67033  0.97531  1.0000
  H   H4485     1.0  0.95475  0.90576  0.23874  1.0000
  H   H4486     1.0  0.91112  0.53840  0.37022  1.0000
  H   H4487     1.0  0.91609  0.72542  0.07398  1.0000
  C   C5615     1.0  0.95709  0.91372  0.20226  1.0000
  C   C5616     1.0  0.89007  0.86559  0.99544  1.0000
  C   C5617     1.0  0.96431  0.92690  0.18223  1.0000
  C   C5618     1.0  0.96640  0.58686  0.40555  1.0000
  H   H4488     1.0  0.78670  0.56047  0.08203  1.0000
  H   H4489     1.0  0.93673  0.75285  0.00327  1.0000
  C   C5619     1.0  0.78419  0.61390  0.43757  1.0000
  H   H4490     1.0  0.95438  0.78034  0.05842  1.0000
  H   H4491     1.0  0.97427  0.67804  0.19498  1.0000
  C   C5620     1.0  0.79769  0.88353  0.41329  1.0000
  H   H4492     1.0  0.85617  0.65053  0.30435  1.0000
  Fe  Fe378     1.0  0.94937  0.53077  0.44676  1.0000
  C   C5621     1.0  0.80459  0.53356  0.97046  1.0000
  H   H4493     1.0  0.93322  0.97606  0.28737  1.0000
  H   H4494     1.0  0.94584  0.63899  0.34652  1.0000
  H   H4495     1.0  0.91858  0.59844  0.32631  1.0000
  C   C5622     1.0  0.78716  0.56382  0.18497  1.0000
  H   H4496     1.0  0.96870  0.59834  0.36994  1.0000
  C   C5623     1.0  0.78720  0.88648  0.39806  1.0000
  C   C5624     1.0  0.97859  0.91243  0.03051  1.0000
  C   C5625     1.0  0.97587  0.92308  0.40290  1.0000
  C   C5626     1.0  0.92683  0.84527  0.45996  1.0000
  C   C5627     1.0  0.89878  0.93089  0.43282  1.0000
  C   C5628     1.0  0.91569  0.94117  0.42736  1.0000
  C   C5629     1.0  0.92202  0.94847  0.44443  1.0000
  P   P190      1.0  0.92936  0.94543  0.39878  1.0000
  C   C5630     1.0  0.94786  0.93739  0.40158  1.0000
  C   C5631     1.0  0.91829  0.93466  0.38006  1.0000
  C   C5632     1.0  0.92377  0.92155  0.37093  1.0000
  C   C5633     1.0  0.91522  0.91372  0.35604  1.0000
  C   C5634     1.0  0.90125  0.91898  0.35002  1.0000
  C   C5635     1.0  0.89587  0.93215  0.35878  1.0000
  C   C5636     1.0  0.90438  0.94002  0.37367  1.0000
  C   C5637     1.0  0.96443  0.94717  0.38972  1.0000
  H   H4497     1.0  0.82537  0.63800  0.32303  1.0000
  H   H4498     1.0  0.81583  0.62941  0.36540  1.0000
  H   H4499     1.0  0.97029  0.63860  0.37332  1.0000
  C   C5638     1.0  0.94554  0.92048  0.41447  1.0000
  C   C5639     1.0  0.93493  0.96821  0.38476  1.0000
  C   C5640     1.0  0.92911  0.98031  0.39589  1.0000
  S   S757      1.0  0.97127  0.97193  0.08750  1.0000
  C   C5641     1.0  0.91922  0.87997  0.00994  1.0000
  C   C5642     1.0  0.85151  0.58641  0.42377  1.0000
  H   H4500     1.0  0.97118  0.79863  0.07952  1.0000
  C   C5643     1.0  0.98200  0.98658  0.98710  1.0000
  H   H4501     1.0  0.81317  0.50730  0.23635  1.0000
  H   H4502     1.0  0.81080  0.83487  0.44116  1.0000
  H   H4503     1.0  0.89352  0.92467  0.42038  1.0000
  H   H4504     1.0  0.93503  0.95623  0.44063  1.0000
  H   H4505     1.0  0.93466  0.91732  0.37501  1.0000
  H   H4506     1.0  0.91946  0.90355  0.34922  1.0000
  H   H4507     1.0  0.89461  0.91285  0.33855  1.0000
  H   H4508     1.0  0.88509  0.93629  0.35408  1.0000
  H   H4509     1.0  0.90009  0.95026  0.38027  1.0000
  H   H4510     1.0  0.82727  0.86175  0.44862  1.0000
  C   C5644     1.0  0.84117  0.63719  0.37151  1.0000
  H   H4511     1.0  0.92946  0.97601  0.06943  1.0000
  H   H4512     1.0  0.81786  0.59775  0.39063  1.0000
  H   H4513     1.0  0.93285  0.91253  0.42332  1.0000
  H   H4514     1.0  0.92132  0.97643  0.41333  1.0000
  S   S758      1.0  0.90322  0.50124  0.45525  1.0000
  H   H4515     1.0  0.94840  0.79872  0.98982  1.0000
  C   C5645     1.0  0.97751  0.96912  0.98595  1.0000
  H   H4516     1.0  0.80269  0.59502  0.00074  1.0000
  C   C5646     1.0  0.91148  0.86222  0.01736  1.0000
  C   C5647     1.0  0.94494  0.80002  0.97326  1.0000
  Fe  Fe379     1.0  0.86789  0.98348  0.00705  1.0000
  C   C5648     1.0  0.89973  0.98300  0.03850  1.0000
  H   H4517     1.0  0.96673  0.96007  0.37924  1.0000
  C   C5649     1.0  0.96049  0.91612  0.22350  1.0000
  H   H4518     1.0  0.92594  0.56280  0.38383  1.0000
  H   H4519     1.0  0.95774  0.95967  0.22966  1.0000
  C   C5650     1.0  0.91145  0.94615  0.46628  1.0000
  C   C5651     1.0  0.83727  0.60750  0.40812  1.0000
  C   C5652     1.0  0.96002  0.88531  0.30967  1.0000
  H   H4520     1.0  0.94548  0.64892  0.26267  1.0000
  H   H4521     1.0  0.81418  0.65362  0.39148  1.0000
  Fe  Fe380     1.0  0.97452  0.87739  0.00097  1.0000
  C   C5653     1.0  0.88603  0.93142  0.01128  1.0000
  C   C5654     1.0  0.82681  0.52495  0.99768  1.0000
  H   H4522     1.0  0.96836  0.65669  0.31305  1.0000
  H   H4523     1.0  0.95744  0.89993  0.42364  1.0000
  S   S759      1.0  0.85267  0.89349  0.43516  1.0000
  H   H4524     1.0  0.79737  0.98786  0.06646  1.0000
  C   C5655     1.0  0.90096  0.67783  0.97369  1.0000
  H   H4525     1.0  0.87880  0.85971  0.99010  1.0000
  C   C5656     1.0  0.96564  0.76516  0.10871  1.0000
  C   C5657     1.0  0.79894  0.97057  0.39394  1.0000
  C   C5658     1.0  0.79285  0.56756  0.00462  1.0000
  C   C5659     1.0  0.98039  0.93677  0.04931  1.0000
  C   C5660     1.0  0.98331  0.68367  0.35626  1.0000
  H   H4526     1.0  0.98065  0.71513  0.38571  1.0000
  H   H4527     1.0  0.87831  0.61595  0.37682  1.0000
  H   H4528     1.0  0.97130  0.74131  0.10230  1.0000
  H   H4529     1.0  0.98273  0.94311  0.45502  1.0000
  H   H4530     1.0  0.80754  0.96502  0.33551  1.0000
  H   H4531     1.0  0.88356  0.93101  0.02965  1.0000
  H   H4532     1.0  0.97230  0.66863  0.23700  1.0000
  C   C5661     1.0  0.97068  0.92302  0.04226  1.0000
  H   H4533     1.0  0.80263  0.97674  0.37572  1.0000
  C   C5662     1.0  0.94338  0.94950  0.01381  1.0000
  C   C5663     1.0  0.92833  0.93628  0.01772  1.0000
  C   C5664     1.0  0.91884  0.92838  0.04027  1.0000
  C   C5665     1.0  0.92413  0.93386  0.05901  1.0000
  C   C5666     1.0  0.93890  0.94722  0.05522  1.0000
  C   C5667     1.0  0.94844  0.95516  0.03271  1.0000
  C   C5668     1.0  0.96000  0.73861  0.97366  1.0000
  C   C5669     1.0  0.91172  0.85075  0.46274  1.0000
  H   H4534     1.0  0.78379  0.65265  0.40535  1.0000
  H   H4535     1.0  0.80535  0.74386  0.40844  1.0000
  C   C5670     1.0  0.95947  0.91332  0.41485  1.0000
  H   H4536     1.0  0.89101  0.84125  0.01571  1.0000
  H   H4537     1.0  0.93805  0.51360  0.03347  1.0000
  H   H4538     1.0  0.95851  0.59278  0.33128  1.0000
  C   C5671     1.0  0.96630  0.64274  0.31729  1.0000
  H   H4539     1.0  0.95455  0.92234  0.99886  1.0000
  C   C5672     1.0  0.88831  0.92846  0.45478  1.0000
  H   H4540     1.0  0.96156  0.92515  0.16580  1.0000
  C   C5673     1.0  0.85194  0.64705  0.32306  1.0000
  H   H4541     1.0  0.97328  0.92735  0.34828  1.0000
  C   C5674     1.0  0.85466  0.66029  0.40702  1.0000
  H   H4542     1.0  0.92397  0.93207  0.00334  1.0000
  S   S760      1.0  0.87838  0.97382  0.03783  1.0000
  H   H4543     1.0  0.91675  0.92784  0.07649  1.0000
  H   H4544     1.0  0.94295  0.95156  0.06973  1.0000
  H   H4545     1.0  0.95972  0.96564  0.03027  1.0000
  C   C5675     1.0  0.80272  0.98273  0.08040  1.0000
  C   C5676     1.0  0.93761  0.63914  0.13781  1.0000
  C   C5677     1.0  0.92707  0.64373  0.12339  1.0000
  C   C5678     1.0  0.91277  0.64913  0.13220  1.0000
  C   C5679     1.0  0.90908  0.65014  0.15538  1.0000
  C   C5680     1.0  0.91992  0.64607  0.16979  1.0000
  C   C5681     1.0  0.93396  0.64012  0.16101  1.0000
  P   P191      1.0  0.91477  0.64670  0.19991  1.0000
  C   C5682     1.0  0.90491  0.66400  0.20379  1.0000
  C   C5683     1.0  0.90094  0.62571  0.21506  1.0000
  C   C5684     1.0  0.88322  0.62236  0.21709  1.0000
  C   C5685     1.0  0.87256  0.60600  0.22859  1.0000
  C   C5686     1.0  0.87951  0.59282  0.23773  1.0000
  C   C5687     1.0  0.89715  0.59593  0.23528  1.0000
  C   C5688     1.0  0.90787  0.61228  0.22383  1.0000
  C   C5689     1.0  0.89322  0.66254  0.22454  1.0000
  C   C5690     1.0  0.88659  0.67649  0.22827  1.0000
  C   C5691     1.0  0.89177  0.69206  0.21146  1.0000
  C   C5692     1.0  0.90365  0.69371  0.19095  1.0000
  C   C5693     1.0  0.91028  0.67977  0.18717  1.0000
  C   C5694     1.0  0.93357  0.65212  0.21116  1.0000
  C   C5695     1.0  0.94872  0.66342  0.19682  1.0000
  H   H4546     1.0  0.98047  0.95275  0.16787  1.0000
  C   C5696     1.0  0.93424  0.69647  0.97140  1.0000
  C   C5697     1.0  0.94654  0.65261  0.24419  1.0000
  C   C5698     1.0  0.93252  0.64690  0.23497  1.0000
  H   H4547     1.0  0.94871  0.63500  0.13089  1.0000
  H   H4548     1.0  0.93003  0.64316  0.10534  1.0000
  H   H4549     1.0  0.90464  0.65267  0.12093  1.0000
  H   H4550     1.0  0.89787  0.65422  0.16198  1.0000
  H   H4551     1.0  0.94217  0.63637  0.17199  1.0000
  H   H4552     1.0  0.87761  0.63237  0.20999  1.0000
  H   H4553     1.0  0.85883  0.60350  0.23067  1.0000
  H   H4554     1.0  0.87116  0.58022  0.24683  1.0000
  H   H4555     1.0  0.90248  0.58569  0.24249  1.0000
  H   H4556     1.0  0.92152  0.61445  0.22196  1.0000
  H   H4557     1.0  0.88953  0.65081  0.23814  1.0000
  H   H4558     1.0  0.87772  0.67528  0.24445  1.0000
  H   H4559     1.0  0.88682  0.70294  0.21453  1.0000
  H   H4560     1.0  0.90804  0.70590  0.17815  1.0000
  H   H4561     1.0  0.91994  0.68148  0.17153  1.0000
  H   H4562     1.0  0.94955  0.66845  0.17863  1.0000
  H   H4563     1.0  0.80085  0.58175  0.20159  1.0000
  C   C5699     1.0  0.90687  0.97526  0.05574  1.0000
  H   H4564     1.0  0.91840  0.58582  0.41479  1.0000
  H   H4565     1.0  0.92068  0.63895  0.24661  1.0000
  S   S761      1.0  0.96216  0.81287  0.02580  1.0000
  C   C5700     1.0  0.79328  0.97838  0.10342  1.0000
  C   C5701     1.0  0.93828  0.57997  0.43072  1.0000
  C   C5702     1.0  0.93192  0.58659  0.41206  1.0000
  C   C5703     1.0  0.94278  0.59350  0.38997  1.0000
  C   C5704     1.0  0.96008  0.59348  0.38679  1.0000
  P   P192      1.0  0.93388  0.60086  0.36594  1.0000
  C   C5705     1.0  0.92336  0.58256  0.35611  1.0000
  C   C5706     1.0  0.91895  0.61273  0.37600  1.0000
  C   C5707     1.0  0.90242  0.60945  0.37200  1.0000
  C   C5708     1.0  0.89098  0.61856  0.38023  1.0000
  C   C5709     1.0  0.89592  0.63103  0.39253  1.0000
  C   C5710     1.0  0.91228  0.63428  0.39679  1.0000
  C   C5711     1.0  0.92371  0.62510  0.38871  1.0000
  C   C5712     1.0  0.91711  0.58538  0.33598  1.0000
  C   C5713     1.0  0.90831  0.57138  0.32870  1.0000
  C   C5714     1.0  0.90617  0.55446  0.34101  1.0000
  C   C5715     1.0  0.91292  0.55152  0.36053  1.0000
  C   C5716     1.0  0.92135  0.56549  0.36822  1.0000
  C   C5717     1.0  0.95056  0.61446  0.34171  1.0000
  C   C5718     1.0  0.95347  0.63257  0.33634  1.0000
  C   C5719     1.0  0.97502  0.94244  0.18336  1.0000
  C   C5720     1.0  0.84464  0.63707  0.44159  1.0000
  C   C5721     1.0  0.93132  0.50541  0.02397  1.0000
  C   C5722     1.0  0.98062  0.76147  0.15577  1.0000
  H   H4566     1.0  0.91122  0.75584  0.98807  1.0000
  H   H4567     1.0  0.98127  0.88840  0.44467  1.0000
  C   C5723     1.0  0.86261  0.66466  0.44262  1.0000
  C   C5724     1.0  0.97810  0.65784  0.98025  1.0000
  S   S762      1.0  0.98331  0.71959  0.31270  1.0000
  H   H4568     1.0  0.91171  0.65641  0.96971  1.0000
  H   H4569     1.0  0.97559  0.74998  0.19226  1.0000
  H   H4570     1.0  0.82630  0.98381  0.05720  1.0000
  C   C5725     1.0  0.93102  0.97698  0.98070  1.0000
  C   C5726     1.0  0.98041  0.76185  0.17886  1.0000
  H   H4571     1.0  0.83714  0.62410  0.45060  1.0000
  H   H4572     1.0  0.83482  0.49810  0.25568  1.0000
  C   C5727     1.0  0.81918  0.98046  0.07509  1.0000
  C   C5728     1.0  0.78717  0.83507  0.46321  1.0000
  H   H4573     1.0  0.78608  0.94941  0.45959  1.0000
  C   C5729     1.0  0.98283  0.88039  0.46017  1.0000
  H   H4574     1.0  0.92247  0.84850  0.96873  1.0000
  C   C5730     1.0  0.83762  0.88840  0.97320  1.0000
  H   H4575     1.0  0.96424  0.98643  0.19620  1.0000
  C   C5731     1.0  0.92085  0.70457  0.97430  1.0000
  H   H4576     1.0  0.86926  0.67295  0.45209  1.0000
  H   H4577     1.0  0.95457  0.89920  0.97775  1.0000
  C   C5732     1.0  0.93097  0.67920  0.96957  1.0000
  S   S763      1.0  0.97982  0.76895  0.29174  1.0000
  C   C5733     1.0  0.91436  0.66993  0.97057  1.0000
  H   H4578     1.0  0.98333  0.85876  0.44456  1.0000
  H   H4579     1.0  0.94714  0.70330  0.97102  1.0000
  C   C5734     1.0  0.94715  0.97540  0.97065  1.0000
  C   C5735     1.0  0.92480  0.99041  0.97057  1.0000
  H   H4580     1.0  0.89207  0.83581  0.96897  1.0000
  H   H4581     1.0  0.97964  0.58646  0.40312  1.0000
  C   C5736     1.0  0.97790  0.99167  0.19013  1.0000
  H   H4582     1.0  0.91256  0.99172  0.97868  1.0000
  C   C5737     1.0  0.95645  0.94228  0.96870  1.0000
  P   P193      1.0  0.88907  0.89746  0.96927  1.0000
  C   C5738     1.0  0.98210  0.63666  0.37732  1.0000
  H   H4583     1.0  0.98292  0.52886  0.39164  1.0000
  H   H4584     1.0  0.98285  0.51319  0.43039  1.0000
  C   C5739     1.0  0.78352  0.97248  0.01177  1.0000
  C   C5740     1.0  0.98280  0.63085  0.40027  1.0000
  Fe  Fe381     1.0  0.86346  0.88301  0.51407  1.0000
  H   H4585     1.0  0.88841  0.73809  0.92307  1.0000
  S   S764      1.0  0.87016  0.90500  0.53165  1.0000
  Fe  Fe382     1.0  0.83650  0.84955  0.51428  1.0000
  H   H4586     1.0  0.79536  0.59771  0.85925  1.0000
  S   S765      1.0  0.81314  0.83020  0.54021  1.0000
  Fe  Fe383     1.0  0.87432  0.85530  0.49182  1.0000
  H   H4587     1.0  0.90356  0.97597  0.80984  1.0000
  Fe  Fe384     1.0  0.91962  0.50308  0.48124  1.0000
  C   C5741     1.0  0.93302  0.95817  0.88517  1.0000
  S   S766      1.0  0.86049  0.85479  0.52765  1.0000
  S   S767      1.0  0.83845  0.87810  0.50358  1.0000
  C   C5742     1.0  0.84641  0.79234  0.62554  1.0000
  Fe  Fe385     1.0  0.95100  0.94203  0.57488  1.0000
  S   S768      1.0  0.95147  0.86891  0.93060  1.0000
  S   S769      1.0  0.93850  0.91641  0.56755  1.0000
  Fe  Fe386     1.0  0.95584  0.96599  0.60836  1.0000
  S   S770      1.0  0.93917  0.96338  0.58256  1.0000
  S   S771      1.0  0.96574  0.94310  0.60277  1.0000
  Fe  Fe387     1.0  0.95777  0.97476  0.79683  1.0000
  S   S772      1.0  0.93277  0.95835  0.82050  1.0000
  S   S773      1.0  0.98183  0.96760  0.78346  1.0000
  S   S774      1.0  0.86292  0.95810  0.93795  1.0000
  C   C5743     1.0  0.81505  0.53127  0.56214  1.0000
  C   C5744     1.0  0.87386  0.49346  0.96007  1.0000
  Fe  Fe388     1.0  0.84289  0.87424  0.88877  1.0000
  S   S775      1.0  0.84463  0.86929  0.85279  1.0000
  S   S776      1.0  0.82804  0.89167  0.90436  1.0000
  Fe  Fe389     1.0  0.86239  0.84775  0.90305  1.0000
  S   S777      1.0  0.86530  0.84017  0.86886  1.0000
  S   S778      1.0  0.87302  0.83753  0.93343  1.0000
  Fe  Fe390     1.0  0.87176  0.86893  0.85420  1.0000
  S   S779      1.0  0.89575  0.88039  0.82577  1.0000
  Fe  Fe391     1.0  0.83783  0.84069  0.86976  1.0000
  S   S780      1.0  0.81726  0.81815  0.86397  1.0000
  S   S781      1.0  0.87048  0.87633  0.88834  1.0000
  S   S782      1.0  0.83440  0.84579  0.90578  1.0000
  C   C5745     1.0  0.88918  0.75560  0.94587  1.0000
  C   C5746     1.0  0.92626  0.91122  0.48507  1.0000
  S   S783      1.0  0.89202  0.57973  0.93876  1.0000
  C   C5747     1.0  0.82197  0.79916  0.64711  1.0000
  H   H4588     1.0  0.79483  0.86320  0.90434  1.0000
  H   H4589     1.0  0.85248  0.64297  0.47202  1.0000
  H   H4590     1.0  0.87760  0.96182  0.79169  1.0000
  H   H4591     1.0  0.96877  0.52800  0.94868  1.0000
  Fe  Fe392     1.0  0.89632  0.51905  0.85365  1.0000
  S   S784      1.0  0.90621  0.53747  0.81872  1.0000
  S   S785      1.0  0.87597  0.52150  0.88274  1.0000
  P   P194      1.0  0.78817  0.78549  0.64577  1.0000
  H   H4592     1.0  0.93636  0.97736  0.85410  1.0000
  Fe  Fe393     1.0  0.93164  0.53182  0.82103  1.0000
  S   S786      1.0  0.95779  0.55172  0.80816  1.0000
  Fe  Fe394     1.0  0.90018  0.51373  0.80393  1.0000
  S   S787      1.0  0.88445  0.51293  0.77618  1.0000
  S   S788      1.0  0.92194  0.51481  0.85702  1.0000
  C   C5748     1.0  0.83478  0.51202  0.62263  1.0000
  C   C5749     1.0  0.96040  0.90987  0.48137  1.0000
  H   H4593     1.0  0.84449  0.49544  0.54631  1.0000
  H   H4594     1.0  0.85683  0.94333  0.86491  1.0000
  C   C5750     1.0  0.93273  0.94307  0.74432  1.0000
  C   C5751     1.0  0.90437  0.73322  0.94681  1.0000
  C   C5752     1.0  0.86527  0.95919  0.71902  1.0000
  H   H4595     1.0  0.79215  0.61489  0.93004  1.0000
  H   H4596     1.0  0.80635  0.84842  0.87509  1.0000
  H   H4597     1.0  0.94123  0.67284  0.96784  1.0000
  H   H4598     1.0  0.81697  0.58514  0.87335  1.0000
  C   C5753     1.0  0.92852  0.95413  0.90933  1.0000
  C   C5754     1.0  0.93548  0.81644  0.94286  1.0000
  C   C5755     1.0  0.96895  0.55741  0.84780  1.0000
  H   H4599     1.0  0.96282  0.93189  0.49731  1.0000
  H   H4600     1.0  0.87436  0.86790  0.79267  1.0000
  H   H4601     1.0  0.95607  0.55078  0.85733  1.0000
  H   H4602     1.0  0.86969  0.96769  0.83049  1.0000
  C   C5756     1.0  0.93210  0.97408  0.87274  1.0000
  H   H4603     1.0  0.97023  0.54634  0.48301  1.0000
  C   C5757     1.0  0.78862  0.85856  0.48326  1.0000
  H   H4604     1.0  0.79034  0.78725  0.86953  1.0000
  H   H4605     1.0  0.79132  0.85325  0.75759  1.0000
  Fe  Fe395     1.0  0.91509  0.49337  0.83895  1.0000
  C   C5758     1.0  0.88736  0.56375  0.92294  1.0000
  C   C5759     1.0  0.90012  0.56249  0.90492  1.0000
  C   C5760     1.0  0.89678  0.54967  0.89232  1.0000
  C   C5761     1.0  0.88069  0.53791  0.89789  1.0000
  C   C5762     1.0  0.86801  0.53907  0.91605  1.0000
  C   C5763     1.0  0.87127  0.55208  0.92832  1.0000
  H   H4606     1.0  0.91259  0.57154  0.90060  1.0000
  H   H4607     1.0  0.90663  0.54890  0.87832  1.0000
  H   H4608     1.0  0.85565  0.52988  0.92072  1.0000
  H   H4609     1.0  0.86140  0.55309  0.94198  1.0000
  H   H4610     1.0  0.80801  0.53024  0.78035  1.0000
  H   H4611     1.0  0.80088  0.84134  0.58863  1.0000
  H   H4612     1.0  0.89520  0.91908  0.73851  1.0000
  C   C5764     1.0  0.80035  0.57543  0.93563  1.0000
  C   C5765     1.0  0.95837  0.97163  0.66454  1.0000
  H   H4613     1.0  0.88099  0.90949  0.92561  1.0000
  H   H4614     1.0  0.80833  0.56817  0.94304  1.0000
  H   H4615     1.0  0.85213  0.91304  0.86049  1.0000
  C   C5766     1.0  0.80593  0.80981  0.84379  1.0000
  C   C5767     1.0  0.80917  0.81836  0.82046  1.0000
  H   H4616     1.0  0.81692  0.80632  0.65898  1.0000
  C   C5768     1.0  0.88875  0.49690  0.54110  1.0000
  C   C5769     1.0  0.90052  0.51123  0.93413  1.0000
  H   H4617     1.0  0.81898  0.83041  0.81399  1.0000
  S   S789      1.0  0.92719  0.53231  0.47354  1.0000
  H   H4618     1.0  0.89256  0.93352  0.94557  1.0000
  C   C5770     1.0  0.85269  0.93930  0.92977  1.0000
  C   C5771     1.0  0.86264  0.93243  0.91425  1.0000
  C   C5772     1.0  0.85535  0.91757  0.90699  1.0000
  C   C5773     1.0  0.83785  0.90969  0.91454  1.0000
  C   C5774     1.0  0.82780  0.91672  0.92978  1.0000
  C   C5775     1.0  0.83520  0.93131  0.93763  1.0000
  H   H4619     1.0  0.87614  0.93860  0.90787  1.0000
  H   H4620     1.0  0.86325  0.91237  0.89525  1.0000
  H   H4621     1.0  0.81422  0.91080  0.93564  1.0000
  H   H4622     1.0  0.82735  0.93652  0.94945  1.0000
  C   C5776     1.0  0.92317  0.93656  0.82175  1.0000
  C   C5777     1.0  0.90677  0.92909  0.83590  1.0000
  C   C5778     1.0  0.89846  0.91180  0.83746  1.0000
  C   C5779     1.0  0.90638  0.90191  0.82460  1.0000
  C   C5780     1.0  0.92281  0.90936  0.81039  1.0000
  C   C5781     1.0  0.93130  0.92664  0.80914  1.0000
  H   H4623     1.0  0.90039  0.93675  0.84560  1.0000
  H   H4624     1.0  0.88580  0.90618  0.84837  1.0000
  H   H4625     1.0  0.92897  0.90177  0.80031  1.0000
  H   H4626     1.0  0.94397  0.93232  0.79819  1.0000
  C   C5782     1.0  0.95123  0.97350  0.68659  1.0000
  H   H4627     1.0  0.95760  0.90565  0.93538  1.0000
  C   C5783     1.0  0.80178  0.59244  0.93802  1.0000
  H   H4628     1.0  0.83449  0.50894  0.58825  1.0000
  C   C5784     1.0  0.92934  0.86088  0.93245  1.0000
  C   C5785     1.0  0.91795  0.85095  0.95304  1.0000
  C   C5786     1.0  0.90073  0.84378  0.95314  1.0000
  C   C5787     1.0  0.89465  0.84692  0.93290  1.0000
  C   C5788     1.0  0.90594  0.85727  0.91255  1.0000
  C   C5789     1.0  0.92318  0.86407  0.91234  1.0000
  C   C5790     1.0  0.78656  0.85704  0.89447  1.0000
  H   H4629     1.0  0.87134  0.96424  0.70081  1.0000
  H   H4630     1.0  0.90144  0.85983  0.89685  1.0000
  H   H4631     1.0  0.93178  0.87192  0.89644  1.0000
  C   C5791     1.0  0.90904  0.94605  0.77220  1.0000
  H   H4632     1.0  0.92377  0.89532  0.94774  1.0000
  C   C5792     1.0  0.81948  0.52285  0.51895  1.0000
  H   H4633     1.0  0.84088  0.77464  0.60375  1.0000
  H   H4634     1.0  0.91075  0.51300  0.91918  1.0000
  C   C5793     1.0  0.88572  0.52280  0.96351  1.0000
  C   C5794     1.0  0.79727  0.81292  0.53625  1.0000
  C   C5795     1.0  0.89351  0.74194  0.93722  1.0000
  H   H4635     1.0  0.95885  0.95869  0.93511  1.0000
  C   C5796     1.0  0.91064  0.73781  0.96559  1.0000
  S   S790      1.0  0.98207  0.84541  0.96172  1.0000
  Fe  Fe396     1.0  0.85626  0.97417  0.96419  1.0000
  H   H4636     1.0  0.80406  0.81972  0.49910  1.0000
  H   H4637     1.0  0.93766  0.97203  0.69154  1.0000
  H   H4638     1.0  0.78793  0.83468  0.85214  1.0000
  C   C5797     1.0  0.92037  0.91439  0.55555  1.0000
  C   C5798     1.0  0.91504  0.89975  0.54685  1.0000
  C   C5799     1.0  0.90004  0.89715  0.53852  1.0000
  C   C5800     1.0  0.89012  0.90903  0.53922  1.0000
  C   C5801     1.0  0.89568  0.92390  0.54736  1.0000
  C   C5802     1.0  0.91082  0.92665  0.55536  1.0000
  H   H4639     1.0  0.92245  0.89032  0.54680  1.0000
  H   H4640     1.0  0.89588  0.88571  0.53220  1.0000
  H   H4641     1.0  0.88806  0.93316  0.54794  1.0000
  H   H4642     1.0  0.91482  0.93797  0.56202  1.0000
  S   S791      1.0  0.94518  0.96887  0.64463  1.0000
  C   C5803     1.0  0.97307  0.55972  0.82375  1.0000
  H   H4643     1.0  0.84322  0.94093  0.78407  1.0000
  C   C5804     1.0  0.84197  0.81844  0.57524  1.0000
  C   C5805     1.0  0.84604  0.81041  0.55719  1.0000
  C   C5806     1.0  0.86310  0.81161  0.54755  1.0000
  C   C5807     1.0  0.87611  0.82120  0.55556  1.0000
  C   C5808     1.0  0.87217  0.83019  0.57278  1.0000
  C   C5809     1.0  0.85496  0.82803  0.58333  1.0000
  P   P195      1.0  0.88901  0.84294  0.58279  1.0000
  C   C5810     1.0  0.89178  0.82855  0.60742  1.0000
  C   C5811     1.0  0.90873  0.85069  0.56089  1.0000
  C   C5812     1.0  0.92451  0.85334  0.56721  1.0000
  C   C5813     1.0  0.93977  0.85991  0.55022  1.0000
  C   C5814     1.0  0.79521  0.81758  0.61457  1.0000
  C   C5815     1.0  0.92372  0.86140  0.52052  1.0000
  C   C5816     1.0  0.90848  0.85522  0.53744  1.0000
  C   C5817     1.0  0.88497  0.82958  0.63003  1.0000
  C   C5818     1.0  0.88680  0.81800  0.64901  1.0000
  C   C5819     1.0  0.89526  0.80520  0.64554  1.0000
  C   C5820     1.0  0.90184  0.80395  0.62307  1.0000
  C   C5821     1.0  0.90006  0.81554  0.60406  1.0000
  C   C5822     1.0  0.88471  0.86231  0.59045  1.0000
  C   C5823     1.0  0.87156  0.86897  0.58375  1.0000
  C   C5824     1.0  0.86886  0.88426  0.58935  1.0000
  C   C5825     1.0  0.87967  0.89338  0.60084  1.0000
  C   C5826     1.0  0.89309  0.88713  0.60697  1.0000
  C   C5827     1.0  0.89559  0.87165  0.60186  1.0000
  H   H4644     1.0  0.82873  0.81756  0.58246  1.0000
  H   H4645     1.0  0.83596  0.80358  0.55038  1.0000
  H   H4646     1.0  0.86632  0.80562  0.53330  1.0000
  H   H4647     1.0  0.88921  0.82195  0.54771  1.0000
  H   H4648     1.0  0.85154  0.83405  0.59745  1.0000
  H   H4649     1.0  0.92507  0.85063  0.58523  1.0000
  H   H4650     1.0  0.88962  0.98395  0.89467  1.0000
  H   H4651     1.0  0.84538  0.85691  0.94588  1.0000
  H   H4652     1.0  0.92333  0.86440  0.50245  1.0000
  H   H4653     1.0  0.89654  0.85407  0.53208  1.0000
  H   H4654     1.0  0.87821  0.83927  0.63307  1.0000
  H   H4655     1.0  0.80662  0.49681  0.53732  1.0000
  H   H4656     1.0  0.90666  0.97743  0.84911  1.0000
  H   H4657     1.0  0.90837  0.79402  0.62037  1.0000
  H   H4658     1.0  0.90514  0.81439  0.58671  1.0000
  H   H4659     1.0  0.86383  0.86295  0.57332  1.0000
  H   H4660     1.0  0.85905  0.88964  0.58346  1.0000
  H   H4661     1.0  0.87813  0.90571  0.60401  1.0000
  H   H4662     1.0  0.90200  0.89466  0.61482  1.0000
  H   H4663     1.0  0.90637  0.86730  0.60618  1.0000
  C   C5828     1.0  0.82046  0.53166  0.96010  1.0000
  C   C5829     1.0  0.78572  0.80134  0.55583  1.0000
  C   C5830     1.0  0.78959  0.98463  0.95352  1.0000
  C   C5831     1.0  0.81094  0.78787  0.63800  1.0000
  C   C5832     1.0  0.84770  0.86741  0.95459  1.0000
  S   S792      1.0  0.88863  0.49582  0.83889  1.0000
  H   H4664     1.0  0.97546  0.96086  0.84252  1.0000
  S   S793      1.0  0.86432  0.61061  0.95829  1.0000
  C   C5833     1.0  0.80880  0.50240  0.60967  1.0000
  C   C5834     1.0  0.86208  0.50268  0.48018  1.0000
  C   C5835     1.0  0.80731  0.50540  0.64924  1.0000
  C   C5836     1.0  0.82509  0.51070  0.64467  1.0000
  C   C5837     1.0  0.84988  0.96263  0.72819  1.0000
  H   H4665     1.0  0.87226  0.57502  0.78286  1.0000
  C   C5838     1.0  0.92553  0.98553  0.88429  1.0000
  C   C5839     1.0  0.80910  0.51401  0.56077  1.0000
  C   C5840     1.0  0.90955  0.98823  0.81311  1.0000
  C   C5841     1.0  0.95183  0.53111  0.92589  1.0000
  H   H4666     1.0  0.87017  0.57455  0.85194  1.0000
  Fe  Fe397     1.0  0.96497  0.86357  0.95982  1.0000
  S   S794      1.0  0.85033  0.84845  0.47893  1.0000
  H   H4667     1.0  0.97358  0.79250  0.84603  1.0000
  C   C5842     1.0  0.78486  0.86068  0.78991  1.0000
  C   C5843     1.0  0.95687  0.98747  0.95031  1.0000
  C   C5844     1.0  0.93720  0.76355  0.87918  1.0000
  H   H4668     1.0  0.86057  0.50867  0.74701  1.0000
  H   H4669     1.0  0.92053  0.96332  0.93966  1.0000
  C   C5845     1.0  0.84925  0.49748  0.52780  1.0000
  H   H4670     1.0  0.95106  0.86883  0.51364  1.0000
  C   C5846     1.0  0.87651  0.49638  0.56098  1.0000
  C   C5847     1.0  0.79303  0.79409  0.85162  1.0000
  H   H4671     1.0  0.79461  0.49765  0.92957  1.0000
  C   C5848     1.0  0.82565  0.53992  0.52051  1.0000
  H   H4672     1.0  0.78755  0.66517  0.49320  1.0000
  P   P196      1.0  0.98223  0.90864  0.48015  1.0000
  H   H4673     1.0  0.81335  0.53476  0.57873  1.0000
  C   C5849     1.0  0.86408  0.87400  0.95750  1.0000
  H   H4674     1.0  0.87433  0.86872  0.95052  1.0000
  C   C5850     1.0  0.81216  0.56408  0.83000  1.0000
  S   S795      1.0  0.81656  0.60277  0.95274  1.0000
  C   C5851     1.0  0.96151  0.97724  0.70222  1.0000
  C   C5852     1.0  0.82669  0.50805  0.60513  1.0000
  H   H4675     1.0  0.84860  0.51556  0.61928  1.0000
  C   C5853     1.0  0.80280  0.89773  0.50749  1.0000
  H   H4676     1.0  0.95989  0.93553  0.91403  1.0000
  H   H4677     1.0  0.89197  0.50766  0.52622  1.0000
  H   H4678     1.0  0.96940  0.98654  0.94243  1.0000
  C   C5854     1.0  0.96550  0.52571  0.93273  1.0000
  C   C5855     1.0  0.95453  0.79857  0.87043  1.0000
  C   C5856     1.0  0.93874  0.79224  0.88650  1.0000
  C   C5857     1.0  0.79996  0.57153  0.82188  1.0000
  P   P197      1.0  0.93004  0.80617  0.90272  1.0000
  C   C5858     1.0  0.93589  0.80357  0.93035  1.0000
  C   C5859     1.0  0.93836  0.82848  0.88654  1.0000
  C   C5860     1.0  0.95380  0.83857  0.88900  1.0000
  H   H4679     1.0  0.79153  0.77171  0.72784  1.0000
  C   C5861     1.0  0.95177  0.86284  0.86066  1.0000
  C   C5862     1.0  0.93636  0.85295  0.85819  1.0000
  C   C5863     1.0  0.92965  0.83586  0.87107  1.0000
  H   H4680     1.0  0.79007  0.85815  0.54519  1.0000
  C   C5864     1.0  0.79491  0.75917  0.52619  1.0000
  C   C5865     1.0  0.78923  0.75030  0.54938  1.0000
  C   C5866     1.0  0.91170  0.98903  0.83534  1.0000
  Fe  Fe398     1.0  0.96219  0.98112  0.55649  1.0000
  C   C5867     1.0  0.90707  0.80056  0.90689  1.0000
  C   C5868     1.0  0.89948  0.79501  0.88956  1.0000
  C   C5869     1.0  0.88177  0.79146  0.89222  1.0000
  C   C5870     1.0  0.87150  0.79335  0.91219  1.0000
  C   C5871     1.0  0.87892  0.79867  0.92958  1.0000
  C   C5872     1.0  0.89663  0.80246  0.92688  1.0000
  C   C5873     1.0  0.97587  0.97292  0.65852  1.0000
  C   C5874     1.0  0.81687  0.89758  0.53939  1.0000
  C   C5875     1.0  0.95764  0.52067  0.89094  1.0000
  C   C5876     1.0  0.89130  0.93274  0.96388  1.0000
  C   C5877     1.0  0.79098  0.75083  0.50881  1.0000
  H   H4681     1.0  0.96068  0.83336  0.90103  1.0000
  C   C5878     1.0  0.79101  0.83012  0.59912  1.0000
  C   C5879     1.0  0.78678  0.79559  0.81328  1.0000
  H   H4682     1.0  0.92938  0.85865  0.84661  1.0000
  H   H4683     1.0  0.91759  0.82863  0.86900  1.0000
  H   H4684     1.0  0.93176  0.82787  0.93591  1.0000
  H   H4685     1.0  0.81337  0.87702  0.47500  1.0000
  C   C5880     1.0  0.96267  0.50132  0.82405  1.0000
  C   C5881     1.0  0.89391  0.90829  0.92176  1.0000
  H   H4686     1.0  0.82697  0.93455  0.46994  1.0000
  H   H4687     1.0  0.90726  0.79396  0.87366  1.0000
  H   H4688     1.0  0.87600  0.78770  0.87853  1.0000
  H   H4689     1.0  0.85783  0.79115  0.91397  1.0000
  H   H4690     1.0  0.81041  0.87338  0.56452  1.0000
  H   H4691     1.0  0.90204  0.80733  0.94016  1.0000
  H   H4692     1.0  0.93726  0.94906  0.87597  1.0000
  H   H4693     1.0  0.92908  0.94176  0.91902  1.0000
  C   C5882     1.0  0.92331  0.96610  0.92098  1.0000
  H   H4694     1.0  0.88474  0.94671  0.72572  1.0000
  H   H4695     1.0  0.84455  0.85748  0.78916  1.0000
  H   H4696     1.0  0.90473  0.95134  0.78667  1.0000
  H   H4697     1.0  0.91443  0.98466  0.71481  1.0000
  H   H4698     1.0  0.88762  0.89909  0.78585  1.0000
  H   H4699     1.0  0.82806  0.87861  0.77855  1.0000
  H   H4700     1.0  0.84107  0.90996  0.77185  1.0000
  C   C5883     1.0  0.98297  0.91610  0.54534  1.0000
  H   H4701     1.0  0.78430  0.58926  0.82639  1.0000
  C   C5884     1.0  0.79122  0.60173  0.92829  1.0000
  C   C5885     1.0  0.79637  0.87169  0.53784  1.0000
  C   C5886     1.0  0.80793  0.88028  0.54893  1.0000
  H   H4702     1.0  0.83445  0.90656  0.47070  1.0000
  C   C5887     1.0  0.81431  0.90629  0.51868  1.0000
  H   H4703     1.0  0.86065  0.90690  0.82253  1.0000
  H   H4704     1.0  0.93957  0.90227  0.90705  1.0000
  C   C5888     1.0  0.94798  0.52868  0.90495  1.0000
  C   C5889     1.0  0.86505  0.94253  0.75690  1.0000
  H   H4705     1.0  0.79509  0.75810  0.49098  1.0000
  C   C5890     1.0  0.95446  0.92262  0.49085  1.0000
  H   H4706     1.0  0.95837  0.97936  0.48260  1.0000
  C   C5891     1.0  0.83961  0.80129  0.64100  1.0000
  C   C5892     1.0  0.84955  0.94601  0.76595  1.0000
  H   H4707     1.0  0.88170  0.81896  0.66644  1.0000
  H   H4708     1.0  0.94987  0.77602  0.96766  1.0000
  H   H4709     1.0  0.91296  0.91135  0.48715  1.0000
  C   C5893     1.0  0.80276  0.53467  0.88791  1.0000
  C   C5894     1.0  0.82065  0.53828  0.88132  1.0000
  C   C5895     1.0  0.82901  0.52733  0.89281  1.0000
  P   P198      1.0  0.83309  0.55772  0.86017  1.0000
  C   C5896     1.0  0.81860  0.56886  0.84858  1.0000
  C   C5897     1.0  0.84569  0.57046  0.87569  1.0000
  C   C5898     1.0  0.86345  0.57709  0.86754  1.0000
  C   C5899     1.0  0.87291  0.58691  0.87988  1.0000
  C   C5900     1.0  0.86475  0.59017  0.90038  1.0000
  C   C5901     1.0  0.84719  0.58324  0.90891  1.0000
  C   C5902     1.0  0.83777  0.57316  0.89685  1.0000
  C   C5903     1.0  0.92137  0.93195  0.73569  1.0000
  C   C5904     1.0  0.97756  0.91111  0.52635  1.0000
  C   C5905     1.0  0.81966  0.51258  0.90989  1.0000
  C   C5906     1.0  0.80033  0.58858  0.85075  1.0000
  H   H4710     1.0  0.87097  0.80065  0.94475  1.0000
  C   C5907     1.0  0.84681  0.55351  0.83597  1.0000
  C   C5908     1.0  0.85493  0.56714  0.81650  1.0000
  C   C5909     1.0  0.86585  0.56442  0.79770  1.0000
  C   C5910     1.0  0.86875  0.54809  0.79816  1.0000
  C   C5911     1.0  0.86066  0.53444  0.81735  1.0000
  C   C5912     1.0  0.84965  0.53706  0.83615  1.0000
  C   C5913     1.0  0.95848  0.93271  0.93262  1.0000
  H   H4711     1.0  0.91673  0.99045  0.91784  1.0000
  C   C5914     1.0  0.81790  0.77916  0.62214  1.0000
  H   H4712     1.0  0.89671  0.79627  0.66027  1.0000
  H   H4713     1.0  0.84282  0.53026  0.88847  1.0000
  C   C5915     1.0  0.97141  0.51523  0.89763  1.0000
  C   C5916     1.0  0.79915  0.50112  0.63192  1.0000
  H   H4714     1.0  0.87212  0.59775  0.90994  1.0000
  H   H4715     1.0  0.84090  0.58572  0.92488  1.0000
  H   H4716     1.0  0.82425  0.56760  0.90387  1.0000
  H   H4717     1.0  0.81639  0.55442  0.82198  1.0000
  H   H4718     1.0  0.80197  0.77268  0.52170  1.0000
  C   C5917     1.0  0.97666  0.74761  0.96167  1.0000
  C   C5918     1.0  0.79529  0.81096  0.51430  1.0000
  H   H4719     1.0  0.97194  0.86359  0.87893  1.0000
  H   H4720     1.0  0.85298  0.57995  0.81600  1.0000
  H   H4721     1.0  0.92337  0.88951  0.46911  1.0000
  H   H4722     1.0  0.87741  0.54599  0.78374  1.0000
  H   H4723     1.0  0.86320  0.52187  0.81770  1.0000
  H   H4724     1.0  0.84365  0.52621  0.85064  1.0000
  C   C5919     1.0  0.91937  0.91014  0.89340  1.0000
  H   H4725     1.0  0.80267  0.81795  0.78741  1.0000
  H   H4726     1.0  0.79890  0.77040  0.68677  1.0000
  C   C5920     1.0  0.96664  0.75554  0.92704  1.0000
  H   H4727     1.0  0.93988  0.74592  0.92970  1.0000
  H   H4728     1.0  0.97202  0.66350  0.96746  1.0000
  C   C5921     1.0  0.92144  0.98159  0.90855  1.0000
  H   H4729     1.0  0.88664  0.59177  0.87379  1.0000
  C   C5922     1.0  0.93023  0.77460  0.89099  1.0000
  H   H4730     1.0  0.79892  0.97718  0.95106  1.0000
  C   C5923     1.0  0.84202  0.95604  0.75164  1.0000
  H   H4731     1.0  0.82197  0.87003  0.95909  1.0000
  C   C5924     1.0  0.83450  0.87470  0.96224  1.0000
  S   S796      1.0  0.97296  0.95956  0.54721  1.0000
  H   H4732     1.0  0.83222  0.54987  0.50500  1.0000
  C   C5925     1.0  0.83557  0.78136  0.61603  1.0000
  H   H4733     1.0  0.95461  0.51929  0.87459  1.0000
  H   H4734     1.0  0.83007  0.95869  0.75876  1.0000
  H   H4735     1.0  0.96149  0.81204  0.86691  1.0000
  H   H4736     1.0  0.84381  0.52574  0.96575  1.0000
  Fe  Fe399     1.0  0.87082  0.58492  0.96411  1.0000
  C   C5926     1.0  0.96374  0.91683  0.85879  1.0000
  S   S797      1.0  0.92641  0.50980  0.80298  1.0000
  H   H4737     1.0  0.82628  0.90407  0.54754  1.0000
  C   C5927     1.0  0.79090  0.52598  0.81358  1.0000
  H   H4738     1.0  0.79489  0.56765  0.80774  1.0000
  H   H4739     1.0  0.93273  0.93246  0.50129  1.0000
  H   H4740     1.0  0.79650  0.53745  0.95940  1.0000
  C   C5928     1.0  0.90383  0.92779  0.74537  1.0000
  C   C5929     1.0  0.95718  0.91589  0.94457  1.0000
  H   H4741     1.0  0.90903  0.53713  0.93879  1.0000
  H   H4742     1.0  0.93046  0.75000  0.88253  1.0000
  H   H4743     1.0  0.91629  0.95204  0.47929  1.0000
  H   H4744     1.0  0.95151  0.93577  0.84444  1.0000
  C   C5930     1.0  0.87284  0.94918  0.73328  1.0000
  H   H4745     1.0  0.95322  0.90588  0.85980  1.0000
  H   H4746     1.0  0.90781  0.72289  0.93953  1.0000
  C   C5931     1.0  0.97685  0.97735  0.88966  1.0000
  C   C5932     1.0  0.85788  0.92370  0.84550  1.0000
  C   C5933     1.0  0.86049  0.94076  0.84794  1.0000
  C   C5934     1.0  0.86771  0.95446  0.82853  1.0000
  C   C5935     1.0  0.87224  0.95108  0.80664  1.0000
  C   C5936     1.0  0.86976  0.93394  0.80408  1.0000
  C   C5937     1.0  0.86263  0.92027  0.82375  1.0000
  P   P199      1.0  0.87473  0.92965  0.77559  1.0000
  C   C5938     1.0  0.89750  0.93482  0.76372  1.0000
  C   C5939     1.0  0.86551  0.90694  0.77778  1.0000
  C   C5940     1.0  0.84862  0.90099  0.77584  1.0000
  C   C5941     1.0  0.84115  0.88320  0.77970  1.0000
  C   C5942     1.0  0.85043  0.87127  0.78564  1.0000
  C   C5943     1.0  0.86724  0.87711  0.78752  1.0000
  C   C5944     1.0  0.87475  0.89486  0.78360  1.0000
  S   S798      1.0  0.89554  0.84182  0.48828  1.0000
  C   C5945     1.0  0.95280  0.77001  0.86295  1.0000
  H   H4747     1.0  0.86314  0.99119  0.91067  1.0000
  C   C5946     1.0  0.78376  0.84925  0.77522  1.0000
  H   H4748     1.0  0.79952  0.52138  0.82323  1.0000
  H   H4749     1.0  0.88071  0.76230  0.93847  1.0000
  H   H4750     1.0  0.78716  0.80268  0.57287  1.0000
  H   H4751     1.0  0.85988  0.52492  0.52278  1.0000
  C   C5947     1.0  0.85790  0.51409  0.51455  1.0000
  H   H4752     1.0  0.94450  0.53759  0.93649  1.0000
  C   C5948     1.0  0.80187  0.50897  0.91618  1.0000
  C   C5949     1.0  0.95800  0.94585  0.94465  1.0000
  C   C5950     1.0  0.92656  0.95021  0.76241  1.0000
  H   H4753     1.0  0.83136  0.51331  0.65842  1.0000
  H   H4754     1.0  0.84403  0.97038  0.71711  1.0000
  C   C5951     1.0  0.97320  0.51503  0.80632  1.0000
  H   H4755     1.0  0.89679  0.91633  0.88507  1.0000
  H   H4756     1.0  0.94148  0.77875  0.93030  1.0000
  C   C5952     1.0  0.96039  0.85570  0.87624  1.0000
  C   C5953     1.0  0.81260  0.58125  0.85884  1.0000
  C   C5954     1.0  0.79400  0.58372  0.83233  1.0000
  C   C5955     1.0  0.81118  0.50994  0.53897  1.0000
  C   C5956     1.0  0.86427  0.51669  0.49076  1.0000
  H   H4757     1.0  0.93541  0.95855  0.76940  1.0000
  H   H4758     1.0  0.96426  0.90444  0.52857  1.0000
  H   H4759     1.0  0.82448  0.53430  0.94143  1.0000
  C   C5957     1.0  0.96148  0.78749  0.85863  1.0000
  H   H4760     1.0  0.97954  0.50299  0.51869  1.0000
  H   H4761     1.0  0.80831  0.81954  0.61609  1.0000
  H   H4762     1.0  0.82813  0.55738  0.54332  1.0000
  H   H4763     1.0  0.84800  0.80991  0.64825  1.0000
  H   H4764     1.0  0.95588  0.97895  0.71898  1.0000
  H   H4765     1.0  0.95190  0.86218  0.55517  1.0000
  C   C5958     1.0  0.92697  0.90439  0.91119  1.0000
  C   C5959     1.0  0.96607  0.49872  0.84606  1.0000
  H   H4766     1.0  0.87046  0.50689  0.56132  1.0000
  C   C5960     1.0  0.89459  0.93612  0.47146  1.0000
  C   C5961     1.0  0.94097  0.78886  0.93953  1.0000
  H   H4767     1.0  0.92621  0.92652  0.72154  1.0000
  H   H4768     1.0  0.82133  0.51959  0.50222  1.0000
  C   C5962     1.0  0.93935  0.86380  0.52687  1.0000
  C   C5963     1.0  0.94997  0.74645  0.93893  1.0000
  H   H4769     1.0  0.93784  0.53348  0.89912  1.0000
  C   C5964     1.0  0.93990  0.81466  0.96425  1.0000
  C   C5965     1.0  0.97901  0.97859  0.69620  1.0000
  H   H4770     1.0  0.89147  0.95957  0.95997  1.0000
  C   C5966     1.0  0.86735  0.88770  0.96856  1.0000
  H   H4771     1.0  0.82632  0.50415  0.91837  1.0000
  C   C5967     1.0  0.90286  0.91215  0.89874  1.0000
  C   C5968     1.0  0.78996  0.77770  0.69208  1.0000
  C   C5969     1.0  0.91795  0.90046  0.93433  1.0000
  C   C5970     1.0  0.97844  0.91411  0.86567  1.0000
  C   C5971     1.0  0.98135  0.56422  0.85941  1.0000
  H   H4772     1.0  0.97388  0.91354  0.56176  1.0000
  H   H4773     1.0  0.80978  0.77066  0.61447  1.0000
  H   H4774     1.0  0.91821  0.76942  0.90366  1.0000
  C   C5972     1.0  0.78880  0.56798  0.92328  1.0000
  H   H4775     1.0  0.86010  0.79410  0.62067  1.0000
  C   C5973     1.0  0.90136  0.90255  0.93976  1.0000
  C   C5974     1.0  0.96270  0.93365  0.85030  1.0000
  C   C5975     1.0  0.93743  0.92315  0.49291  1.0000
  H   H4776     1.0  0.96767  0.96705  0.88610  1.0000
  H   H4777     1.0  0.78845  0.54092  0.75826  1.0000
  H   H4778     1.0  0.82167  0.91954  0.51097  1.0000
  S   S799      1.0  0.87916  0.88398  0.47939  1.0000
  C   C5976     1.0  0.79981  0.81123  0.80538  1.0000
  H   H4779     1.0  0.94636  0.94603  0.73712  1.0000
  H   H4780     1.0  0.92601  0.91268  0.87546  1.0000
  C   C5977     1.0  0.79567  0.53098  0.78943  1.0000
  C   C5978     1.0  0.95553  0.91223  0.96845  1.0000
  C   C5979     1.0  0.82338  0.54414  0.54209  1.0000
  H   H4781     1.0  0.79194  0.75696  0.56280  1.0000
  H   H4782     1.0  0.95677  0.87615  0.85096  1.0000
  C   C5980     1.0  0.97618  0.94778  0.84920  1.0000
  C   C5981     1.0  0.79344  0.52008  0.90528  1.0000
  C   C5982     1.0  0.78453  0.53692  0.77695  1.0000
  C   C5983     1.0  0.97535  0.51795  0.91857  1.0000
  S   S800      1.0  0.97784  0.98574  0.58271  1.0000
  C   C5984     1.0  0.79310  0.84881  0.87788  1.0000
  H   H4783     1.0  0.79591  0.54321  0.88007  1.0000
  C   C5985     1.0  0.89573  0.76059  0.96408  1.0000
  C   C5986     1.0  0.94646  0.73828  0.96250  1.0000
  C   C5987     1.0  0.80594  0.86521  0.47214  1.0000
  C   C5988     1.0  0.88783  0.49563  0.94159  1.0000
  H   H4784     1.0  0.88640  0.93411  0.48848  1.0000
  H   H4785     1.0  0.98155  0.97146  0.64161  1.0000
  H   H4786     1.0  0.97014  0.51749  0.78952  1.0000
  H   H4787     1.0  0.79482  0.69691  0.48025  1.0000
  H   H4788     1.0  0.79321  0.87365  0.78364  1.0000
  C   C5989     1.0  0.87942  0.49725  0.75948  1.0000
  C   C5990     1.0  0.86687  0.49833  0.74666  1.0000
  H   H4789     1.0  0.87115  0.52954  0.48050  1.0000
  H   H4790     1.0  0.92853  0.83564  0.47363  1.0000
  Fe  Fe400     1.0  0.85404  0.87753  0.46942  1.0000
  C   C5991     1.0  0.89951  0.52480  0.94510  1.0000
  H   H4791     1.0  0.79983  0.50399  0.66652  1.0000
  H   H4792     1.0  0.80145  0.90460  0.49108  1.0000
  C   C5992     1.0  0.93211  0.89880  0.47510  1.0000
  C   C5993     1.0  0.94561  0.78718  0.96083  1.0000
  C   C5994     1.0  0.98037  0.50956  0.85033  1.0000
  H   H4793     1.0  0.78793  0.55486  0.92142  1.0000
  P   P200      1.0  0.79849  0.49745  0.58682  1.0000
  H   H4794     1.0  0.81313  0.72955  0.48862  1.0000
  C   C5995     1.0  0.94903  0.89798  0.47344  1.0000
  H   H4795     1.0  0.97883  0.90097  0.87248  1.0000
  H   H4796     1.0  0.95815  0.76147  0.85367  1.0000
  C   C5996     1.0  0.79353  0.88041  0.51716  1.0000
  H   H4797     1.0  0.97788  0.56254  0.87797  1.0000
  C   C5997     1.0  0.78588  0.77842  0.71533  1.0000
  H   H4798     1.0  0.96922  0.76204  0.90896  1.0000
  C   C5998     1.0  0.97997  0.75620  0.93846  1.0000
  H   H4799     1.0  0.78538  0.49662  0.63623  1.0000
  C   C5999     1.0  0.81126  0.73263  0.47120  1.0000
  H   H4800     1.0  0.78505  0.60157  0.71689  1.0000
  C   C6000     1.0  0.78350  0.78709  0.83661  1.0000
