data_image0
_chemical_formula_structural       FeCSFeCS2H2S2C2H3CSFeHCHC3SCH3C3HC2FeHSFeCSCHCHS2HCHC2H2C3SCH2C2HC4HCH4FeHC3H4CHC6H5C3H3SC2HC2HC2H2CHCHCH8C7H4C4PHC5PCPCHC2HC5H5C2HCHCHCH2SHCH2C3HCHC8PC2H2C5HC2H3FeHCHCH5CH3C2PHC4HC6PC7SCHCHC4HCH6CH3CHFeCFeH3CH2C2HCH4PH2C4HSHCSHC3H3C2H2C2PC2HC3HSH3CHC2H3CHC4HC5H2C8H4C3HCH2CH3C2H2C2H3CHCPHC7HSFe2SCHCHSHFeC4HC3H2CHSCHC3SFe2S2C2SCHCHCH3FeS2FeS2FeSFeS3CH2C2SCHFeHFeS2H2FeS2HFeCSFeS2FeCFeHS2C2H3C3H2C2H4SC3HC2HSHC6H4C4SC5SCHC2HC6H3C6H5C2HCH2SH3C7H4C7H4C5H2CHC6PC3H2C5HC7H6CH5CH7C2H2SH3C2HCH2C2HC2HC2SHCHC4HPC9HC3H5CH2C3HCHFeC2PC2S2PH3C3PC14HSHC3H2CH8CHC4HC2H2C3HFeHCHC2HC10PFeSHCSH3CHCH8CHCFeCHC3HC4H5SCH2CHCH2C12PC14H2C2H17CH3CHCH2C3HC6PC18H13FeHC7H2CH2CH2CSHCHCH2C2HCH3C2H2CH3CFe2H3CHCH2CH2CHCHSHCHCHC2H3C2H2C5HCH3C2H4FeHCHCHCSCHCHS2HSHFeS2FeSFeHSC2HFeS2FeS2FeSFeS3C3H5C2H2FeH2C6H4CHC3H2C2HFeCHSHFeHCH2C6H3C7H5CH3C2HC7H7C3PC12H10SH2C3HCHCH2C3PC2HC6HCH11C2FeHSCH3C2HCHC5H2C2HC2PC3H2SFeH3PHC2H3C3HCH2CH2SPC3SH2CSC3HCH2CH2C4HCHC3HFeH3C2SC3HCHC9HC5PC2PH3C12H7CH13CH2SH4FeHCHC6HC3HCHC2HC4H3C4SC3PCHC7SHCH3CH2CHSC3H2CH2C3FeC4HCHCH2CH2C2HCH2SCHC3PC15H2CSH3CHCH8CH2CHC2PC7HCFeC3HC2H2CH2SH3CHC2HC2FeH2CSC2HCHC4HSCHCH3C3H3CHC6SH2CHCH5CH2SHCHC5H3CH2C2SFeS2C2FeS2FeSFeSCH4SC2PC2HFeSHFeS2FeSFeS2FeS2FeS2FeSFeS3FeS2Fe2SFeSH2C8FeHC6H4C6H6C3H2CHC2H5CSCSCHCH2C6H4CHC6H4C2H2C5H5CHC2FeCHC4PC13HCH5CH8SHCHCHCHCH4C3H2CH4PC3HC2H3C2HSC3H2CHCHCH2SCSCHC5H2C3HCHC3H4C3HCH2C2HCH2CH2CH2CH4C4H2CHC2HC3HC2SH2CHC2SHC6PC18H16C2H3C3H3C5PC14PHC2H8CH7C2H2CH2CH2C3HPC4HC3HSHC2H2C4HCH2C3HC3H2C2HFeCHSCH3CSH3CHCHC8HSC2HPS3C2H3CH2CHCSHC3FeC2H2C2HC2H2C2HC2HCHC4HC4H6C2HC2HCHCHC2HC3HC3HC3H7SHC2H2C3HCH3CPHC2HFeS2FeS2FeHFeS3FeS4HCHFeSCSH2S2HSHFeS2FeS2FeS2FeSFeS3C2HSHCFe2HC8H4C6H3C4HC6HC4H4C2HCHC4HC2H2CHCHCPC3H2C2HC7H4C6H3C6PHC4HCH2CH2C2HSC2H11CH2C2H2C6PC10H10CH4C2H2C2HC4HCH3C6PC18H27C5H2CH4CH2CSC2HCH2C4HCHCHC2HSCPH2CHCSHC5HC3PC15HC2HC3H7C5HCH2CH2C3H3CH3C2HC2H2C3HC2HCHC4FeCFe2SH3C2HC2H2C4HCSCHC5HC2HCH2C3HCFeCH2C2H6C3HPSCH3CH4CSHC2H2C2H2CH6CHC2HC2H2CH3CHC2HC2HCSHC2H2C2SHCHC3H2CHFeC3HC3HC2H2CH2C2H3CH2FeCSHCHFeS2FeS2FeSFeS4C3H2SHFeS2FeSCHCFeS3H3C2PFeCSFeH2FeCPCSCHC2PFeCSCH3CFeS2CSFeSFeSCSCH2C2HCH2C8H3C7H3C2H3CH2CHSHC8HCH3SPH3CSC6HC6H3C7H2FeC6H4C6H4C6H4C3H4CHCH2CHCHC2HC4HC4H3CHSCHC3H3CHCHC8PC13H2CHCH6C2H6SH2CHC4HCH3C3HPHPH3CHCH2SC3SC3HC12H9CHC3PC7HCHCHC2HCH2C2H6C2HC2H2C6PC7HC7H2CH2CHCH5CHC2H3CHC2SH4C2HCHC2H2C7H4C2H6C6PCHC2H2C2HCH9SCH2C3H3C3HC3H2C2H2CHSHC2H2CHCFeCH3CH2CHSHFeCH4CHCH2PCSHCHFeCHCH4SCHC3H2CH3C2HC2FeH3CH2FeH2FeS2FeSC2SCSH2FeHCHCFeSHSHC6H2CHCHC5HCHCHCH3C3SH3C2HC5HC4HC2HSHCHCHPC3HC3HCH2CH4CH2C2HC6H5C2SH2C2HSCH3CH2C2H3SH2CPHCSC3HCH5C2HCHC6H3CHSHCHC2HCHCSC2H2CHC5HC2PC3H2CPC7HC3HC2H3C2HCH2C2HCH4CHCHC2PCHC2HC5FeC9HCHC3H10C2SC4HC3HC2SC4HCHC2HC2H3CHCHCHC3H3SC2HCH2FeS2FeSFeSFeS3C2HSCHSC4FeS2CSC2PSHCH2SCSHSFeSHFe2S3HFe2SFeHS2CPC3HC7H4C2H2CSHC4HSH7C3SH2C6H4C6H4C6H5FePHCSHCHC2HC4H2C3H4CH2CSFeSC3PC13H15C6PC3HC7H7CH3CSHC3HCHC7H3C3H2C3H4CH3C2HC4H3FeC3HCHFeC3HCH2CHCHC10H4CH3CHFeCH4C3HSHC6HCH2C3H2C2H2CFeCHCH3S2HCH3C2H3C6PC13H2CH2SH6CH4CFeH3SC2H3Fe3C5H3CHCHCHC2HC2H3C6H2C2H2CPCHC2H4CH2SCHSHCHCHC2HC3HC2H3C2HC2SCH2C3HCHC3PH2CSHC6SHCHCH3C3H4C3HC2H3CH2C3PH3C3H2PCH5PH3C3H2C2HFe2S2FeSHFeCFeSCS2FeS2FeSFeS2FeS2FeSFeCSFeS2FeS2FeSFeS3HCH2S2CH2C2H2C3HCHC4HCH2CHC6H5C2HC6H3C3HC3H2C7H3C3H3PHC4SH2CH2C2H2CHC5H4SH3C5HCHC3FeCHFeHC2HCSCH4C3HCH4SC2H2C2H3C3H4CHCHCSC4H2C2HCSHC2H2CHCH2SHC7PC18H18CHC4PC8FeHSHCHSHFeH5C3HCH2C6PC3H2C9H3CH2CH3C3H3CH4C2HC6PH3CHSCHCSC3HCH9CH3CHCH2CH2CHCHSCHC7HCSCHCH2CHC2H2C2H5C4HC6PC12HC3H6CH10C2HC3HC2FeC2HSHC2H4C6PC2HC11HCHCH7CHCHSCH2CH2C2HC3HSC2H3PCHCHC2FeHSCHSHSC2HSCHCHC2H2C2SC2H3C3FeS2FeS2FeSFeS3HC2S2HFeSCSHFeS2FeS2C5H5SCH3C6H4C6H4C5H3C2H5CSC3HCHC2HSH2C4H2SHCHC4H3C3H8C2HPHC2H3CH4CH3CH2CH2CH2CSHCH2SPHPC2HC3HC9H3C2H7C7PC8SC6HC2H11FeCH3CH2C4SFeCHCH4C2SH2CPHCH2C2SC9H2C2HCH2C2H6FeCHCH2CHCHC6PC7H2CPC2H10CHC2FeC6SHCHCHC5PCHC4H2C2H2CHFeH3C4SH3C2HC2HCSCHC4HCHC4SC5SC4HCH2CHCHC2PH2C2HC3HCH2C2HC5HC5PC2HCH3C12FeHCH3C2H8FeH2CHCH2FeC2H3CHC4HC2H3CH8C4HC3HC2H2FeHC3HC4HCH2SFeS2FeSFeSCSFeHSCHFeC2FeS2CSFeSFeS3FeSCFeSHFeSFeSCSFeS2FeS2FeSFeS3C2HCHSC2H2CHC8H2SHCHC2SH5CH2CSC2HCFePC6H4C6H4C6H4C3H2FeHC7H4C6HCH4C8PC2HC5HC2HCH7C2HCH3CHC2H5CH2CHCHC2H3C4SH2CHCHC2HC4HC2HCFeC2H4CH2C2HCH2C8PCHCH3C3PH2C2H5CHCHCH3C8PC18H17CH2C5H2CH3C5H3C2HCHC2H4C3SH2SCHC4H2CH3C4PH2CH3CH2C4PC15HC2H13CHCHSC3HC2H2CH5CSC5HC3HCHCHC3HC3SC2H2C4H5CH3C2HC5HC3H3CHCPCH2CHC4HC4HCHCH4C3H2FeS2FeS2FeSFeHS2HC2HSC2HFeSHCHSHFe2S2FeS3CH3FeH2CHC2SC3HC2HCH3C6H2C9H5C9H4C6HCH2C6H2FeC2H3C3HC5H2C2HC2H2CH3C7PC8HCHCHC2H7CHSCH2CHPCHSCHC4H5C6PC2SC3H8C7HC6H2FeHC4HCH6CPC2HC2HC2H8PC2HC6PC18H7FeH4CH7C2FeCHCH2CHC2SCPHC3HCHSCH2CH3CHC2HCH2CH2C3H2S2H2C3FeCSHC5HCH2CHCHCSC2H9C4SCH3CH2CH2C2SHC2H2SH2CH2CHCPCHCH3CHCHC6PHCHPHSC2H3FeSCHSFeSFeCSFeS2FeS2FeSFeHS2FeS2FeS2FeSFeS3C2HFeS2FeCSFeS2FeCSCHFeSCSH2CH3C4SCHCHCHC2HC7H4C6HCH2C3H2CHC2HC6H4CH4CHCFeH3C3HCH2C9H2C7H3PH2CPCHC4H2C12PC8HC5HCH11C2H6C2HCH2CHC2SCHCHC3H3CH2C5HC5PC2SHC8HCH3CH6C6PC7H15C8HSHC2HC3H2C2H7FeCH6C4PC18HCH18C3H3C6H3CH6C2H7CHCHCHC2H2SC5SCHCH2CSC7HFeCHCH2CH6SH2C2HC2HCHCH2CH2CHSHC5HC3HCSC2PC2H2CSH2PHPCH2C3SHSC2HSFeS2FeSFeSFeS3CFeSFeS2FeSFeS3H2SC7HCH2C6H4C6H7CHSC6H4C6H6C6PC12H2C2SH10C2HC3FeC2HC2HC3SCHCHCHC4H2SHCH3CH4C2H3CHCFe2CH2C4H2C2HCH2FeCPC3HC2H2CH5C2PHC3HCH4SHFeHC4H2CHCHCHC5HFeH2CPCH2CH2SCHCHCHCH4C6PCH2C15H6C4H9CSC3SHC3HC6PC18H20CHCHC4HC2H2C4HC9H2CHC2H4FeH3CH2C4HCHCHFeCH2CHSC2HSCHCSHC3HPH3SHC2HC8H2CHCH2C4H2CH3C2HPH7SFeC3HCHCFeS2FeSCFeSCFe2S3HFeS3FeSFeCSC2HCH2CS2CSCH5C2H2CSC7H2C4HCH4CH2C4HCSHC4HC2H2FeSC5HC2FeC2HCH5C2H2SCH2CHCH2FeHSHCHCH2CHCHCHCHC3HCSCH2FeCHCHSH2C5HC3H2C3H2C3SC7H3CH2CHCH2CHC3H3CHC2HCHCSH2CH2C2PC5HSHC2SHC6Fe2H2C4HC3H6CH2C3PC18H2FeH17SHFeC3PCPH2CSC5SC5H2CPCHCHCH2CH2CH5C2HCH5C3HCH2C4FePC3SCH2C4H2CPSHCPCH2CHCH4SCH3CHCHCSC2H3CH2C2H3CHCSCSH2C3HCH2C4HC2SCHC2HCHSH5CHCH2C5H5CHCH3C2HC2FeCHC6PC15H13C4H3FeCH2FeC2HC3HCHC3HCHCHCFeCHSHCSHC4HSHCHCHFeS2FeSCFeSFeS3CSFeS2FeSFeS3HSH2CHSFe2S2HC2H3SC3H3C4HCSH3C5HCHCHCH4SH2C3HC2H2CSC6H2CHC4SCH2C8H4C6H5C2HC4H5C3SHCH2CH2C4HC2H3CH2FeH6C4H2C6H4C5PC10HC4H9C2H2PC9HC6H4CH11C2PHCHC2H3C3HC4HC6PH2CFeH2C2SH2C4FeH2C2HCH3CHCHC2HCPCFeHC3H2C2HC2HS2H3C6PC2HC3H4CSC3HC3H3CHCHC6PC21H18C2H3C3HFeH4CHCFeCHC2HCHCH2SHC2H2C3SCH7CHCH2PH2C3HCHFeSHFeSH2FeS2FeS2FeSFeS2FeSFeS3FeSFeS2HCH2SCH4C6H4C6H4C6H9CHC2H2C2HC7H3C6H4C4HCHC2HC2HCSHCH3CHPCHCH2FeHC2HC6HCH2CSC2HFeH5C2HC3PC2HCHC17HCH11C3HC5HCHCSCFeC2H3C4S3HCH2SCH4CHC2HSC8H2CHCHC2HC2H2C2HC2H5S2C4H3CHC3H4C3H2CPC2HC3PC2SFeHC12SCHC3H8C6PC18HFeH18CSC2HC2HCHC6PC12H6C2H5CHSHCH3CSC3HC3HCH3CHC2HCHCH3CH4CH5C2HCH2CPHC5HC3H2FeHC2H2CH2C2HCH3CS2FeSCHCSFeSHC2SCHFeS2FeS2FeSFeS3FeS2C3H2FeSHSCHCHCSCFeS2FeS2C3PCH2C6HFeCH2FeHC4HSHC6H4C6H4C6H4CHSHCHC7H2C7H4C2HC6H4C4H3C6HCH4C3HCSCHCFeH3CH4C2HC9H2CHCHCSHCHC3SH3C2SCSH3C2H5C2HC3H2CHC2FeHC2H2C6H3C6PC3HC8H5CH5CHCH3CH4CH3C5H4C2H3C2FeH2CH2FeH2CHC5HCH2CHCH2C2HC9H4SCH2C4FeH3CPH3CHCHCHCHSCHC2FeCH2CSH2C2HC2H2C3H2CH2C5HSH3C3SHCHCFeH5CHPCH2CHC3H2C4PCHC2PC3HC6HSC2HCHCPHC2H2C2HCH2CHCHCH2SHCHCH4CH4CHC2HC4H2CHC3H3SHFeSHC2S2FeHSCFeHSFeHSFeSC2SC2SC2HPC2H2CH3C3SHC4HC2H4C6H5CHCHC9H4C5H2SH2C6HSCFeC3H2C3H2CHCHCHCHCH2CH2CHC2HCHCH3C5H2C2H2C5H4CH2CHCHCHCHC2HC2FeCHCHFeC8HCH4C3PC20H9C2H7CH4CHCH2CHCH5CHC3HC2H2S3CHC5H2C2H3C2SFeHCSHC2HCHC4H2CH2CHCSH5CPC2HCH2CSCHFeCHSCHCFeCHPHC2HCHC3H2CPCH2CHC2H3CHC2H4FeHSFeCH2FeS2FeS2FeS2FeSFeS3CHSHSFeS2C3FeHFeS4FeHFeS2FeCFeS3CHCHC3H3SC8H4C2HC3HC2HCHC7H4C6H4C6H3C7H4C6PC18H20CH2C4H4C3HCHCHCSCHC2SCH4C2SH2FeHC2HFeCPCHCHSCH2CH2C4PC3HCHC2H2C10H4C3H2CH9CH2C3HC8PC18H20CHC2HC2H3C6HCH3C2H3C2FeHCH2C4HC5H4C3H2C6PCHCSH3CHC4HSCH7C6H2C3H3PHC3H2CSCHSH4CH3SCHCSHC2HCHSHC3H2FeHC5PC14SHC2H9CHCH2C2H3C2H2C4H4CHCH3C2HC2HCHCHCHPHCH2C2H2C2H5CHC10HCHC2HCHCHC2HC3HCH3C2HC2HCSCH2C2H2CHFeS2FeHSFeHCS2FeHSFe2S2H2CHCHC2PSH4C3SCHSC5HCH2C6H6CHC6H9C7H4CHC6HCH2CHC4H2C2HCPCHCHC5HC2H3C2SCSHC3PCH3C2HC3HC8HC2H3CHCH3CH5CHC2HCSH3C4HC2H2C2H4SPCHC3HC5H3PC4HCHC7HC8HC2HCH5C3H2SCH2CH2C4PC18H2CHCHC2H8CH3FeHC3H4C5HCSH7C6PC3H3CH2C5HCHCSHFeHC4HCHCH8CHPC2HSHCFeH3CHCHC2HCHPC5FeC6H3CFeCH2CHCHCH2CHCH2C2H2CH2C2H6CHCH3C4HCHC2SH5C2HCHS2H2CSC2FeS2FeS2FeSFeS3FeS2FeCSCHFe2S2FeSHCHSFe2S2FeS2FeSFeS3CSCHCPCSH2FeCSHSC6H4C4HCH2C3H2C3H4C6H4C4HC2HC5HC4FeH2CHCHC2HCHC6H4C4HCH3C6H4C2HC2H3C2HSCHC3H4C5H3CH2FeH3C2HSC2SCH2C3HC2HC4H2CSHCHC2HC2HCHC2H2CHS2H3C5H5CH3C2H2C5HC2PCHC2HSCH3C2PHCHFeHCHC2HCHC9PC20H17PCFeCHCPCHCH2CHC5SHSCHCH4CH11C2HC3HC2HC2FeH4C4HCHC6HC2H2C2H3C4HCHC3HC2HCHC2HCH2C4HC2HCPHC3H2FeH4C2H2C2HCH3CHCH2CS2H2CHC7HCH2PSFeC2FeS2FeCHCS2CHCS2HS2HC2SHFeSH2FeS2FeS2Fe2S3FeSCFeS2FeSFeS2CH2C6H4C6H4C4H2PC7H2C6HCH2C6H6C3H5CHC2HC7H2CSC2H2C3HCHCHCSC3HCSHPCHC3HC7H2CPC2HCHC2H4CH5C3HC2H2CHC3SHC2H2C4H4CHC6PC18H20C3HSCHC2H2CH2C3HC6H2CFeHC4HC2HFeHCH2PC2HCHCHSH3C4PH2C2SC3HC5H2C2HC2HC5HCPC3HC2H2CH11C3HPCHC3H2CH4CHC3SC2HCH2C3HC3H2C3HC2H3C6H5C2H8PC2HC2H3FeCH5C5H5CHCHCHC2H3C4HC2H2C7H3CHCH2CH2CHC3H2C2HCHCH4CH2C2PCH3C2HC3H2SC3HCH4C3HSCHCHC4HC2H2CHCHCH2CH2C2HC4H2C2H2C3HC2SFeHSFeHSCFeCS2C3FeS2H3CS3CH2FeSFeSHFeS2Fe2S3H2CSCHC6H4CSC2FeC2HC6H4C5HCSC6HSCSC3SCHC6H4C3H2CHCHC6HFeHCSCHSH2CH3CHCFeCH2CSHCHSH2CHC2HCSFeHC2HSC2H3C2H6SCHPC2H8C7PC8H3C2H11SHC2HC3HC4HSCH2C13FeC2HCH3CPC2H5FeC6PC8HCHC7H11SC2H6CH2CFeSC2HCHC2PHC2HCHCPH2C4H3CHCH2C2HCHC6H3CH2C2H2CH3C2HCSHFeC2HCH4CHCHC2H2FeCHC5HSHSH2CSCHCH9C2SC2HCHSC4HC2HCFeHC3HC2FeHCHCPCSC4HCHC3HC2HFeH2C3H4C5HCHC2H4FeSCFeSFeH2S2C2SC3HFeCHCH3C2HCFeS2C2FeSFeHSHFeS2CFeSFeS3FeS2FeS2FeSFeS3HC2SH3C7H4FeCSCH2C7H3C2SCH2C6H5C4H3C2PH2C2H2C3HCHC6H4C4SCH3C7H4CH2CHSC2SHC3PH2CFeHCH3CH2C2FeH5C2HC2PC9HC6H13CH2C6PC18HCH10CH7C2H3C4H3PC13H2CHC2H3CH5CSC10PH5SC2H2C3H4C2H2C2HCHCHC2SH2CH4C6PC16H6CH7CHCFeC6HCHCH2CPCH2C2HC5HC2SHC2PCH3C2H3CHCH2SHCHC3H4C3H3C2H6C3HCH2FeC2H2FeCSH2SH3C2FeCS2C3HC3H2CSFeC3H4PCHCHC3SCH3C2HCHCHC2H2S2C8FeCHCHC2PSFeHCHCHC4H6FeHCHS2CPHSHC7H4SC8PSC2HCSCHCHCH2CH5C2S2H2CH2CHC4SCH2C2HCSC2HC3H2CSHCFeHC2HSC3H2CFeCH5C3H2C6H6CH2C6PC18H12C2H7C3SH3SC2HCH3CH3C3HCFe2C6H4CHC10PC16HPH11CH4C2H2S2C6PC7HCPC2HCHC2H12CHCHCHCH2SFeHC3HCHC3H2CHCH2FeH4CHCHC4HCHSC2HCH2C5HCH2SCHCHCHCH2CHCH3C2H5C6HCHSHCH2S2HC3HFeS2FeS2FeSFeS3FeSFeS2Fe3S3FeS2FeSFeCFeS2C2SHCHC6H4C6H4SHSC3HC2HC6H2CH2C6H3C6HSCHC2HFeCSCHSC2HC2HCSCHSC6PC12H11FeHCFeCHC7HC3HCH3C2HCHCH2C2HSH2C3H2CHC2HCH3C2HC2HPCFeHSCHC3PHC11HCHCSCH2CHCH5FeCHC2H3C2H2CHCHC2HC6PC18H7CH12C8HCHCPC2H3CHFeHC2SCH3CSH3CPCFeC4SCSC6PC18H20C3H2CH2CHC2HSH2C7H8SH2C3H2C2SHC3HCSHCH4FeCHC3H4CHCHCHC2SHCH3C2H4SC3HSH2C2HCFeCH2C2H2C5PCH3SH4CH2CHCH2CHC3HC2PH6CH3C2HSCHC5SCHCH2CSCH2CFe3S2FeS2FeSFeS3C3HCSHC2HCHCSC2S2FeSCH2Fe2SHSCSH2C7H4SFePHC8H2C2SCHC2H2FeHC6H4C6H3C6H5FeHC2HPHFeHC3SC2HSC3H3SC3H3C2HSCHSH4CHCH3C2HC6PHC2H5C2H6C2HCH2CH2C5PC18H18CHCHFe2C3HC5HCH3CHC2HCHC7PC18H11CSH8C4HCH3C4PC4HC3H2C8H5CH2CH2CH6CSCHC3HCHS2HC2HCHC2H2CH2C3HCHFeCSHCHCHC3HSHCHCHCHC3HCHCHC2HCHCPCH2C3HCHC4HC4PH2SH2CH2CH3CH2SCFeS2FeSHFe2SCSFeSCFeS2FeSFeS3C2HCSPHSFeC2H2SH4CFeSCSHC3HC6H6CHCHCHCHC5H2CHC7H5C3HCHCSC2HC4H2CHC5HCHCPC5HC4H3CHSHC2H2CHC4H5C2HC2H2C6PC17H19C2PC19H16PC5PC18HCH10SCH6C2H3C7HC5HC5H6CHCHCH3CFeC2HCHCH3CH4CH5C4PC12HC3H13CSCHC2PC18HSHCH2FeC2H9CFeC3HCHSCHCSC4H2C2HS2C4HCSH2CH2C3H2SCFe2H2C2SCHFe2SPCHC2Fe2HSC4H2CSHCSHFeCHC2H2SCHSC2HCHCH2CH2C2HSCHCH3C3HCSPHCH2CS2C2H2CHCHC5HC3SH3C3HCH2C3H2CHC3HCSCHSCHSFeSHSPC2HFeC2HSCHCH2FeS2FeS2FeSFeS4HFeSH2SCFeS2FeSCFeSHSC4H3C6H5CSHCHC2HCH2CHCFeC8HCH2C4SCH4CH4CHCH2CH6C7H4C6H4FeCH4CHC2HC2HCHC6HC2H4C2H2C2PH2C2H2PC11HSC3HCHCH2CHCH2C4H3C3H2CH3CSC2H2C2HC6PC12H6C2H4CH2C6PC14H3CH8SH9CHC6PC9H11C7PC2H3CHCH2CH3C2FeC5H2C2SCHC7PC4HC13H7C2H11CHCHCHC2HFeHCH2CSHCHC2PHCFeHC2H4FeHC4HC2H3CH3C4H3C3HCHCSPCHC4SHCHC4H2CH5CH2CHCHCH2C2FeS2FeS2FeSFeS4FeS2CHFeSHCSCHFeS2FeSFeSFeS3H3SHCSCSH2CHCHCHSCHFeC3H6PHC2H2CHCHC7H2C3H2C4H3C7H4C6H4C6H4C8H2C4SC2H2CHC2HCHC5H2C2PC4H2C12H2C2H11C4PC2H2C3H4C7HC3H3CH4PCH7C3H3FeHC3H2CH2C2H4C2H2SHCH2C2HCH3FeC2H2CFeH2C2HC2H2CHC3HCHC3SHCH3CHCPCHCHCHC8PC18H8CH12C3H4SH2C3H3C2SCH3C7HC2HC2HPH2C3H7FeCH2CHPCFeC4SHC5HC2HCHCHCPHC4HC5HCHC3SHC2H2C2SCHFeSH2C3HCH2C4H2C4HCHC2H2CH2CH2C2H3C2H2CHSHCHCFeCHCPHCHC3SCHSCFeSFeSH2C6HC3HC3SHSFeS2FeSFeS3FeSFeS2FeSFeS3HCHC3HCH3C3HCHCH3C6H4C6H4CHC2H2CHC9H4CHCSH3C7HCH2CH4CH4CPCH2CH3CSH2CH2C6HC2HC6HC2H4C7HCHC3FeHSHC2H2C4H4CH2PH2C2PC18H2CH17CHC7HCHC3HC2H4PC3H2CH2CHC2SC5H5C2HC3PC2HC3PC10H4FeHCH8C3H2C2H3CH2C4HC3H2CSFeC3HC2HCHCHCH2CHCHC4H2C2H4C3H2C2HCH2C2H2CH2C4HC2HC2H2SHCH3CHC2H2
_chemical_formula_sum              "Fe544 C8160 S1088 H6528 P272"
_cell_length_a       76.7879
_cell_length_b       77.4106
_cell_length_c       77.3165
_cell_angle_alpha    75.3947
_cell_angle_beta     75.3834
_cell_angle_gamma    75.5113

_space_group_name_H-M_alt    "P 1"
_space_group_IT_number       1

loop_
  _space_group_symop_operation_xyz
  'x, y, z'

loop_
  _atom_site_type_symbol
  _atom_site_label
  _atom_site_symmetry_multiplicity
  _atom_site_fract_x
  _atom_site_fract_y
  _atom_site_fract_z
  _atom_site_occupancy
  Fe  Fe1       1.0  0.06513  0.44074  0.01108  1.0000
  C   C1        1.0  0.07596  0.03281  0.19727  1.0000
  S   S1        1.0  0.04709  0.43861  0.99279  1.0000
  Fe  Fe2       1.0  0.09167  0.42545  0.03750  1.0000
  C   C2        1.0  0.10554  0.00364  0.20207  1.0000
  S   S2        1.0  0.10736  0.40067  0.05375  1.0000
  S   S3        1.0  0.09025  0.45272  0.04340  1.0000
  H   H1        1.0  0.07994  0.40134  0.08642  1.0000
  H   H2        1.0  0.07903  0.37479  0.00164  1.0000
  S   S4        1.0  0.06113  0.42845  0.04111  1.0000
  S   S5        1.0  0.09590  0.43498  0.00698  1.0000
  C   C3        1.0  0.12803  0.10578  0.97872  1.0000
  C   C4        1.0  0.18089  0.36578  0.01621  1.0000
  H   H3        1.0  0.22953  0.34542  0.18327  1.0000
  H   H4        1.0  0.20459  0.22634  0.02232  1.0000
  H   H5        1.0  0.08024  0.41296  0.98003  1.0000
  C   C5        1.0  0.00912  0.46553  0.09457  1.0000
  S   S6        1.0  0.19560  0.03458  0.08136  1.0000
  Fe  Fe3       1.0  0.22735  0.34891  0.09148  1.0000
  H   H6        1.0  0.21460  0.26772  0.17199  1.0000
  C   C6        1.0  0.01521  0.99599  0.00403  1.0000
  H   H7        1.0  0.11714  0.40256  0.11128  1.0000
  C   C7        1.0  0.10700  0.16897  0.97998  1.0000
  C   C8        1.0  0.03079  0.01873  0.98272  1.0000
  C   C9        1.0  0.21042  0.97365  0.04234  1.0000
  S   S7        1.0  0.14006  0.03093  0.00083  1.0000
  C   C10       1.0  0.08192  0.15605  0.00061  1.0000
  H   H8        1.0  0.18196  0.34446  0.06028  1.0000
  H   H9        1.0  0.21759  0.03673  0.13053  1.0000
  H   H10       1.0  0.07433  0.01309  0.99962  1.0000
  C   C11       1.0  0.17550  0.35215  0.98038  1.0000
  C   C12       1.0  0.18117  0.36324  0.19572  1.0000
  C   C13       1.0  0.14406  0.44105  0.08538  1.0000
  H   H11       1.0  0.16767  0.35007  0.18290  1.0000
  C   C14       1.0  0.16187  0.36918  0.01693  1.0000
  C   C15       1.0  0.17822  0.97217  0.05110  1.0000
  Fe  Fe4       1.0  0.20261  0.38471  0.07797  1.0000
  H   H12       1.0  0.21610  0.11103  0.15992  1.0000
  S   S8        1.0  0.18951  0.40151  0.05440  1.0000
  Fe  Fe5       1.0  0.19885  0.36891  0.11817  1.0000
  C   C16       1.0  0.03372  0.46551  0.13248  1.0000
  S   S9        1.0  0.17880  0.36234  0.14436  1.0000
  C   C17       1.0  0.21689  0.08732  0.19481  1.0000
  H   H13       1.0  0.17370  0.10176  0.97679  1.0000
  C   C18       1.0  0.07880  0.08190  0.97345  1.0000
  H   H14       1.0  0.20269  0.35471  0.03128  1.0000
  S   S10       1.0  0.20212  0.39676  0.10174  1.0000
  S   S11       1.0  0.19683  0.35779  0.09476  1.0000
  H   H15       1.0  0.17469  0.99488  0.08759  1.0000
  C   C19       1.0  0.18435  0.36738  0.16293  1.0000
  H   H16       1.0  0.15109  0.39649  0.10725  1.0000
  C   C20       1.0  0.19615  0.37940  0.16011  1.0000
  C   C21       1.0  0.17641  0.35109  0.04815  1.0000
  H   H17       1.0  0.20190  0.38572  0.14639  1.0000
  H   H18       1.0  0.15816  0.20199  0.05110  1.0000
  C   C22       1.0  0.15644  0.08480  0.99648  1.0000
  C   C23       1.0  0.18724  0.11331  0.12454  1.0000
  C   C24       1.0  0.19332  0.08376  0.03219  1.0000
  S   S12       1.0  0.19822  0.38074  0.21145  1.0000
  C   C25       1.0  0.16544  0.41132  0.99715  1.0000
  H   H19       1.0  0.22009  0.20948  0.98139  1.0000
  H   H20       1.0  0.19017  0.37013  0.00364  1.0000
  C   C26       1.0  0.23259  0.08637  0.20129  1.0000
  C   C27       1.0  0.08369  0.00324  0.00729  1.0000
  H   H21       1.0  0.08752  0.18199  0.00059  1.0000
  C   C28       1.0  0.01558  0.42773  0.09879  1.0000
  C   C29       1.0  0.17681  0.35936  0.18072  1.0000
  C   C30       1.0  0.19505  0.31225  0.15810  1.0000
  C   C31       1.0  0.08345  0.97446  0.97639  1.0000
  H   H22       1.0  0.13534  0.11331  0.19589  1.0000
  C   C32       1.0  0.14491  0.46294  0.02376  1.0000
  H   H23       1.0  0.13037  0.31207  0.18972  1.0000
  H   H24       1.0  0.22367  0.09757  0.10762  1.0000
  H   H25       1.0  0.03214  0.97175  0.01576  1.0000
  H   H26       1.0  0.17109  0.26969  0.21284  1.0000
  Fe  Fe6       1.0  0.20671  0.00609  0.09527  1.0000
  H   H27       1.0  0.99590  0.00587  0.14378  1.0000
  C   C33       1.0  0.01245  0.41017  0.18776  1.0000
  C   C34       1.0  0.21107  0.43622  0.06855  1.0000
  C   C35       1.0  0.17647  0.07499  0.20796  1.0000
  H   H28       1.0  0.18921  0.99331  0.03037  1.0000
  H   H29       1.0  0.11839  0.00223  0.02781  1.0000
  H   H30       1.0  0.15523  0.99299  0.17519  1.0000
  H   H31       1.0  0.20874  0.39343  0.17292  1.0000
  C   C36       1.0  0.14370  0.40995  0.10204  1.0000
  H   H32       1.0  0.17909  0.08243  0.03524  1.0000
  C   C37       1.0  0.19090  0.03423  0.01979  1.0000
  C   C38       1.0  0.19089  0.03751  0.00108  1.0000
  C   C39       1.0  0.17542  0.03644  0.99510  1.0000
  C   C40       1.0  0.15977  0.03226  0.00782  1.0000
  C   C41       1.0  0.15965  0.02930  0.02654  1.0000
  C   C42       1.0  0.17519  0.03023  0.03253  1.0000
  H   H33       1.0  0.20297  0.04072  0.99115  1.0000
  H   H34       1.0  0.17559  0.03891  0.98065  1.0000
  H   H35       1.0  0.14756  0.02610  0.03645  1.0000
  H   H36       1.0  0.17507  0.02771  0.04697  1.0000
  H   H37       1.0  0.10565  0.45985  0.16474  1.0000
  C   C43       1.0  0.00095  0.43640  0.11063  1.0000
  C   C44       1.0  0.15753  0.35412  0.04892  1.0000
  C   C45       1.0  0.03856  0.42391  0.96808  1.0000
  H   H38       1.0  0.18959  0.43864  0.05446  1.0000
  H   H39       1.0  0.17556  0.35679  0.20940  1.0000
  H   H40       1.0  0.13524  0.45000  0.05116  1.0000
  S   S13       1.0  0.22344  0.99724  0.06941  1.0000
  C   C46       1.0  0.23053  0.32816  0.20973  1.0000
  C   C47       1.0  0.11517  0.38702  0.01012  1.0000
  H   H41       1.0  0.22898  0.26979  0.20297  1.0000
  C   C48       1.0  0.15165  0.44225  0.98461  1.0000
  C   C49       1.0  0.13941  0.41700  0.98275  1.0000
  H   H42       1.0  0.14909  0.98321  0.08327  1.0000
  C   C50       1.0  0.20008  0.38368  0.17512  1.0000
  C   C51       1.0  0.12433  0.09245  0.99455  1.0000
  H   H43       1.0  0.98622  0.46223  0.11722  1.0000
  H   H44       1.0  0.21782  0.06414  0.14101  1.0000
  C   C52       1.0  0.19270  0.37552  0.19293  1.0000
  H   H45       1.0  0.03028  0.03164  0.97310  1.0000
  C   C53       1.0  0.14594  0.10913  0.97247  1.0000
  H   H46       1.0  0.17933  0.11395  0.11453  1.0000
  C   C54       1.0  0.19313  0.44235  0.06556  1.0000
  H   H47       1.0  0.07021  0.15687  0.01187  1.0000
  H   H48       1.0  0.04874  0.47036  0.16175  1.0000
  H   H49       1.0  0.19491  0.32567  0.13012  1.0000
  H   H50       1.0  0.11051  0.09021  0.00036  1.0000
  H   H51       1.0  0.01825  0.41307  0.10044  1.0000
  H   H52       1.0  0.13652  0.35955  0.97956  1.0000
  H   H53       1.0  0.17483  0.17267  0.04291  1.0000
  H   H54       1.0  0.19384  0.18452  0.99306  1.0000
  C   C55       1.0  0.06955  0.41284  0.97327  1.0000
  C   C56       1.0  0.12985  0.40158  0.05444  1.0000
  C   C57       1.0  0.13927  0.41406  0.04153  1.0000
  C   C58       1.0  0.15753  0.41394  0.04181  1.0000
  C   C59       1.0  0.16644  0.40143  0.05496  1.0000
  C   C60       1.0  0.15694  0.38911  0.06803  1.0000
  C   C61       1.0  0.13866  0.38921  0.06777  1.0000
  H   H55       1.0  0.13261  0.42358  0.03114  1.0000
  H   H56       1.0  0.16484  0.42354  0.03181  1.0000
  H   H57       1.0  0.16371  0.37940  0.07821  1.0000
  H   H58       1.0  0.13141  0.37955  0.07780  1.0000
  C   C62       1.0  0.15876  0.30449  0.19217  1.0000
  C   C63       1.0  0.02680  0.43793  0.08477  1.0000
  C   C64       1.0  0.01453  0.01284  0.99198  1.0000
  C   C65       1.0  0.18997  0.14880  0.97719  1.0000
  P   P1        1.0  0.15634  0.45917  0.07376  1.0000
  H   H59       1.0  0.03796  0.43103  0.07579  1.0000
  C   C66       1.0  0.21020  0.28047  0.16310  1.0000
  C   C67       1.0  0.19758  0.02738  0.15388  1.0000
  C   C68       1.0  0.20796  0.11144  0.15021  1.0000
  C   C69       1.0  0.19785  0.09786  0.15266  1.0000
  C   C70       1.0  0.18743  0.09895  0.13973  1.0000
  P   P2        1.0  0.19747  0.07962  0.17261  1.0000
  C   C71       1.0  0.19770  0.05883  0.16577  1.0000
  P   P3        1.0  0.07071  0.97589  0.99930  1.0000
  C   C72       1.0  0.23077  0.08514  0.02451  1.0000
  H   H60       1.0  0.11731  0.45776  0.08260  1.0000
  C   C73       1.0  0.99756  0.45538  0.10828  1.0000
  C   C74       1.0  0.15024  0.36326  0.03345  1.0000
  H   H61       1.0  0.11795  0.39556  0.01784  1.0000
  C   C75       1.0  0.12459  0.41338  0.10436  1.0000
  C   C76       1.0  0.15344  0.42364  0.09239  1.0000
  C   C77       1.0  0.10868  0.99726  0.02321  1.0000
  C   C78       1.0  0.20893  0.03938  0.14339  1.0000
  C   C79       1.0  0.20900  0.05498  0.14931  1.0000
  H   H62       1.0  0.23196  0.09425  0.21129  1.0000
  H   H63       1.0  0.12822  0.44524  0.97299  1.0000
  H   H64       1.0  0.22228  0.33256  0.05961  1.0000
  H   H65       1.0  0.00918  0.97438  0.05589  1.0000
  H   H66       1.0  0.20110  0.43151  0.19361  1.0000
  C   C80       1.0  0.14682  0.10257  0.19922  1.0000
  C   C81       1.0  0.04775  0.00768  0.98530  1.0000
  H   H67       1.0  0.17955  0.08864  0.14133  1.0000
  C   C82       1.0  0.12966  0.37753  0.99882  1.0000
  H   H68       1.0  0.17707  0.11767  0.06749  1.0000
  C   C83       1.0  0.20361  0.11511  0.07339  1.0000
  H   H69       1.0  0.20156  0.10437  0.08531  1.0000
  C   C84       1.0  0.18978  0.12267  0.06337  1.0000
  H   H70       1.0  0.08592  0.39333  0.02006  1.0000
  H   H71       1.0  0.06319  0.99758  0.20281  1.0000
  S   S14       1.0  0.98756  0.42325  0.12867  1.0000
  H   H72       1.0  0.00081  0.40655  0.16655  1.0000
  C   C85       1.0  0.05227  0.42404  0.97709  1.0000
  H   H73       1.0  0.10439  0.35791  0.98152  1.0000
  H   H74       1.0  0.12119  0.33143  0.21300  1.0000
  C   C86       1.0  0.20855  0.29746  0.13236  1.0000
  C   C87       1.0  0.19750  0.12665  0.12209  1.0000
  C   C88       1.0  0.02390  0.45685  0.08285  1.0000
  H   H75       1.0  0.18557  0.14597  0.96610  1.0000
  C   C89       1.0  0.10248  0.97388  0.97172  1.0000
  H   H76       1.0  0.11472  0.17981  0.97521  1.0000
  C   C90       1.0  0.13860  0.08163  0.00302  1.0000
  C   C91       1.0  0.17725  0.08480  0.18990  1.0000
  C   C92       1.0  0.06838  0.42832  0.09165  1.0000
  C   C93       1.0  0.07394  0.40949  0.09678  1.0000
  C   C94       1.0  0.07155  0.40117  0.11523  1.0000
  C   C95       1.0  0.06344  0.41169  0.12854  1.0000
  C   C96       1.0  0.05753  0.43064  0.12346  1.0000
  C   C97       1.0  0.06023  0.43891  0.10490  1.0000
  P   P4        1.0  0.04798  0.44407  0.14090  1.0000
  C   C98       1.0  0.03428  0.43076  0.15945  1.0000
  C   C99       1.0  0.06640  0.44903  0.14826  1.0000
  H   H77       1.0  0.18789  0.06430  0.21157  1.0000
  H   H78       1.0  0.17479  0.43515  0.99777  1.0000
  C   C100      1.0  0.01446  0.46840  0.13758  1.0000
  C   C101      1.0  0.09862  0.44332  0.14992  1.0000
  C   C102      1.0  0.08451  0.43933  0.14408  1.0000
  C   C103      1.0  0.02176  0.42249  0.15561  1.0000
  C   C104      1.0  0.19912  0.31299  0.13930  1.0000
  H   H79       1.0  0.17470  0.46420  0.10116  1.0000
  C   C105      1.0  0.02521  0.41797  0.19169  1.0000
  C   C106      1.0  0.03604  0.42834  0.17760  1.0000
  H   H80       1.0  0.22081  0.26899  0.13892  1.0000
  H   H81       1.0  0.20637  0.45300  0.10639  1.0000
  H   H82       1.0  0.16251  0.10647  0.17187  1.0000
  Fe  Fe7       1.0  0.14158  0.03149  0.97102  1.0000
  H   H83       1.0  0.18168  0.14189  0.04014  1.0000
  C   C107      1.0  0.22019  0.12116  0.06787  1.0000
  H   H84       1.0  0.06994  0.43470  0.07734  1.0000
  C   C108      1.0  0.14047  0.31340  0.19662  1.0000
  H   H85       1.0  0.07582  0.38655  0.11917  1.0000
  H   H86       1.0  0.06173  0.40501  0.14279  1.0000
  H   H87       1.0  0.05571  0.45340  0.10048  1.0000
  H   H88       1.0  0.18256  0.17793  0.96878  1.0000
  H   H89       1.0  0.22378  0.31885  0.03326  1.0000
  C   C109      1.0  0.16777  0.37086  0.97771  1.0000
  H   H90       1.0  0.11253  0.43568  0.14675  1.0000
  H   H91       1.0  0.08786  0.42863  0.13639  1.0000
  H   H92       1.0  0.02025  0.42413  0.14168  1.0000
  C   C110      1.0  0.06209  0.09261  0.96978  1.0000
  C   C111      1.0  0.11244  0.15371  0.97188  1.0000
  P   P5        1.0  0.19578  0.29561  0.19444  1.0000
  H   H93       1.0  0.04567  0.43440  0.18099  1.0000
  C   C112      1.0  0.17977  0.45260  0.07716  1.0000
  C   C113      1.0  0.10242  0.13967  0.97788  1.0000
  C   C114      1.0  0.21584  0.44021  0.08317  1.0000
  C   C115      1.0  0.06316  0.98418  0.21133  1.0000
  H   H94       1.0  0.00752  0.45776  0.14613  1.0000
  C   C116      1.0  0.10596  0.00089  0.11802  1.0000
  C   C117      1.0  0.08816  0.99757  0.12417  1.0000
  C   C118      1.0  0.07946  0.99749  0.14237  1.0000
  C   C119      1.0  0.08861  0.00059  0.15446  1.0000
  C   C120      1.0  0.10655  0.00401  0.14839  1.0000
  C   C121      1.0  0.11520  0.00394  0.13007  1.0000
  P   P6        1.0  0.11920  0.00563  0.16457  1.0000
  C   C122      1.0  0.13258  0.98324  0.17146  1.0000
  C   C123      1.0  0.13405  0.02198  0.15424  1.0000
  C   C124      1.0  0.15020  0.01740  0.14154  1.0000
  C   C125      1.0  0.16173  0.02988  0.13334  1.0000
  C   C126      1.0  0.15746  0.04696  0.13797  1.0000
  C   C127      1.0  0.14159  0.05158  0.15084  1.0000
  C   C128      1.0  0.12990  0.03919  0.15893  1.0000
  S   S15       1.0  0.21077  0.03539  0.02657  1.0000
  C   C129      1.0  0.21382  0.28113  0.14429  1.0000
  H   H95       1.0  0.22128  0.98064  0.03414  1.0000
  C   C130      1.0  0.15999  0.09890  0.98155  1.0000
  H   H96       1.0  0.11674  0.99220  0.20428  1.0000
  C   C131      1.0  0.10325  0.01266  0.18434  1.0000
  C   C132      1.0  0.08834  0.02728  0.18206  1.0000
  C   C133      1.0  0.14476  0.45828  0.04245  1.0000
  C   C134      1.0  0.22583  0.33329  0.19259  1.0000
  H   H97       1.0  0.22967  0.43506  0.08569  1.0000
  C   C135      1.0  0.15354  0.97885  0.09617  1.0000
  H   H98       1.0  0.11293  0.00030  0.10405  1.0000
  H   H99       1.0  0.08675  0.45156  0.96470  1.0000
  H   H100      1.0  0.06581  0.99444  0.14724  1.0000
  H   H101      1.0  0.08181  0.99978  0.16862  1.0000
  H   H102      1.0  0.12925  0.00563  0.12504  1.0000
  H   H103      1.0  0.15395  0.00412  0.13802  1.0000
  C   C136      1.0  0.23344  0.20823  0.97240  1.0000
  H   H104      1.0  0.16656  0.05650  0.13165  1.0000
  H   H105      1.0  0.13831  0.06480  0.15452  1.0000
  H   H106      1.0  0.11776  0.04315  0.16884  1.0000
  C   C137      1.0  0.08412  0.98446  0.01027  1.0000
  H   H107      1.0  0.19452  0.08108  0.06033  1.0000
  Fe  Fe8       1.0  0.21436  0.02645  0.05595  1.0000
  C   C138      1.0  0.20416  0.13807  0.00361  1.0000
  Fe  Fe9       1.0  0.05988  0.45642  0.04513  1.0000
  H   H108      1.0  0.08623  0.03432  0.16851  1.0000
  H   H109      1.0  0.05963  0.97467  0.96619  1.0000
  H   H110      1.0  0.06019  0.01212  0.97737  1.0000
  C   C139      1.0  0.18469  0.45661  0.09182  1.0000
  H   H111      1.0  0.00144  0.02115  0.98949  1.0000
  H   H112      1.0  0.19275  0.33009  0.96797  1.0000
  C   C140      1.0  0.11517  0.43065  0.09737  1.0000
  C   C141      1.0  0.12482  0.44448  0.08804  1.0000
  H   H113      1.0  0.10041  0.43322  0.09893  1.0000
  C   C142      1.0  0.13887  0.43572  0.97932  1.0000
  H   H114      1.0  0.13553  0.36580  0.03462  1.0000
  H   H115      1.0  0.13544  0.45842  0.01841  1.0000
  H   H116      1.0  0.17726  0.02186  0.17832  1.0000
  H   H117      1.0  0.05123  0.08611  0.96946  1.0000
  P   P7        1.0  0.15285  0.38043  0.99654  1.0000
  H   H118      1.0  0.20429  0.09619  0.19984  1.0000
  H   H119      1.0  0.16259  0.29623  0.18187  1.0000
  C   C143      1.0  0.03214  0.98498  0.00680  1.0000
  C   C144      1.0  0.19796  0.13446  0.98960  1.0000
  C   C145      1.0  0.04862  0.99077  0.99747  1.0000
  C   C146      1.0  0.20257  0.15614  0.00518  1.0000
  H   H120      1.0  0.21382  0.25621  0.07524  1.0000
  S   S16       1.0  0.23014  0.01358  0.10237  1.0000
  H   H121      1.0  0.01148  0.97171  0.98228  1.0000
  C   C147      1.0  0.20901  0.14287  0.04234  1.0000
  S   S17       1.0  0.03912  0.46987  0.06682  1.0000
  H   H122      1.0  0.18742  0.32438  0.16320  1.0000
  C   C148      1.0  0.19247  0.13643  0.04789  1.0000
  C   C149      1.0  0.16501  0.43006  0.99342  1.0000
  C   C150      1.0  0.10749  0.36585  0.98966  1.0000
  H   H123      1.0  0.16414  0.97794  0.04962  1.0000
  H   H124      1.0  0.21596  0.13593  0.13297  1.0000
  H   H125      1.0  0.22705  0.08247  0.05378  1.0000
  C   C151      1.0  0.18622  0.04675  0.17624  1.0000
  C   C152      1.0  0.09316  0.09009  0.97319  1.0000
  H   H126      1.0  0.16826  0.42046  0.09024  1.0000
  H   H127      1.0  0.14122  0.46442  0.11109  1.0000
  C   C153      1.0  0.09072  0.10911  0.97000  1.0000
  C   C154      1.0  0.09593  0.00956  0.01371  1.0000
  P   P8        1.0  0.21204  0.16085  0.02229  1.0000
  C   C155      1.0  0.19959  0.27223  0.20681  1.0000
  C   C156      1.0  0.15256  0.40461  0.99193  1.0000
  H   H128      1.0  0.13588  0.07064  0.01458  1.0000
  C   C157      1.0  0.17203  0.30650  0.20073  1.0000
  C   C158      1.0  0.18816  0.16677  0.97879  1.0000
  C   C159      1.0  0.22693  0.41425  0.19811  1.0000
  H   H129      1.0  0.17408  0.02621  0.12342  1.0000
  S   S18       1.0  0.21793  0.06799  0.09499  1.0000
  H   H130      1.0  0.08085  0.06717  0.97598  1.0000
  H   H131      1.0  0.16747  0.07625  0.00300  1.0000
  H   H132      1.0  0.19759  0.13762  0.11018  1.0000
  C   C160      1.0  0.21748  0.26298  0.20873  1.0000
  H   H133      1.0  0.17717  0.04935  0.18889  1.0000
  C   C161      1.0  0.13529  0.32431  0.20970  1.0000
  C   C162      1.0  0.20080  0.29609  0.17016  1.0000
  H   H134      1.0  0.21197  0.32785  0.17450  1.0000
  H   H135      1.0  0.22130  0.19750  0.01374  1.0000
  H   H136      1.0  0.02517  0.43253  0.97101  1.0000
  C   C163      1.0  0.19231  0.98089  0.04029  1.0000
  H   H137      1.0  0.02646  0.41620  0.20573  1.0000
  C   C164      1.0  0.20324  0.08544  0.01422  1.0000
  C   C165      1.0  0.08732  0.14077  0.99253  1.0000
  C   C166      1.0  0.14962  0.98120  0.17613  1.0000
  C   C167      1.0  0.20944  0.42440  0.20363  1.0000
  H   H138      1.0  0.21920  0.28285  0.08398  1.0000
  C   C168      1.0  0.12570  0.36686  0.98858  1.0000
  C   C169      1.0  0.21573  0.32322  0.18770  1.0000
  C   C170      1.0  0.06264  0.46279  0.15832  1.0000
  C   C171      1.0  0.09702  0.38586  0.01131  1.0000
  C   C172      1.0  0.18808  0.35692  0.03179  1.0000
  H   H139      1.0  0.08134  0.99452  0.11493  1.0000
  H   H140      1.0  0.15093  0.45680  0.98210  1.0000
  C   C173      1.0  0.22350  0.25429  0.08396  1.0000
  C   C174      1.0  0.21007  0.30795  0.20003  1.0000
  C   C175      1.0  0.18154  0.18419  0.03834  1.0000
  C   C176      1.0  0.16803  0.98545  0.09858  1.0000
  C   C177      1.0  0.18620  0.03108  0.17030  1.0000
  C   C178      1.0  0.22291  0.13498  0.05243  1.0000
  C   C179      1.0  0.20786  0.12569  0.13491  1.0000
  C   C180      1.0  0.22650  0.26927  0.08893  1.0000
  H   H141      1.0  0.23102  0.11503  0.07551  1.0000
  H   H142      1.0  0.00264  0.99113  0.01080  1.0000
  H   H143      1.0  0.19749  0.01533  0.14916  1.0000
  H   H144      1.0  0.07981  0.12979  0.99782  1.0000
  C   C181      1.0  0.99060  0.99722  0.13817  1.0000
  C   C182      1.0  0.09474  0.45696  0.16002  1.0000
  C   C183      1.0  0.21768  0.07735  0.18164  1.0000
  H   H145      1.0  0.21170  0.29817  0.11774  1.0000
  C   C184      1.0  0.20200  0.08297  0.04630  1.0000
  H   H146      1.0  0.09594  0.02401  0.01090  1.0000
  H   H147      1.0  0.17562  0.40226  0.00442  1.0000
  C   C185      1.0  0.23232  0.32035  0.05732  1.0000
  H   H148      1.0  0.00376  0.40255  0.19870  1.0000
  H   H149      1.0  0.21428  0.45975  0.20995  1.0000
  H   H150      1.0  0.21039  0.12676  0.01304  1.0000
  C   C186      1.0  0.16228  0.09862  0.18561  1.0000
  C   C187      1.0  0.09316  0.37534  0.00102  1.0000
  H   H151      1.0  0.12933  0.41229  0.97847  1.0000
  H   H152      1.0  0.22114  0.42786  0.05984  1.0000
  C   C188      1.0  0.01076  0.41242  0.16972  1.0000
  C   C189      1.0  0.17368  0.98001  0.11529  1.0000
  H   H153      1.0  0.14843  0.34987  0.06168  1.0000
  H   H154      1.0  0.10619  0.08146  0.97520  1.0000
  H   H155      1.0  0.17295  0.22891  0.04097  1.0000
  C   C190      1.0  0.22061  0.08372  0.04250  1.0000
  H   H156      1.0  0.98749  0.40132  0.96630  1.0000
  C   C191      1.0  0.19455  0.17047  0.99264  1.0000
  P   P9        1.0  0.10974  0.11990  0.96761  1.0000
  H   H157      1.0  0.19964  0.12058  0.98803  1.0000
  C   C192      1.0  0.19953  0.18255  0.02796  1.0000
  C   C193      1.0  0.22857  0.45934  0.20953  1.0000
  C   C194      1.0  0.17197  0.20086  0.04298  1.0000
  C   C195      1.0  0.18026  0.21604  0.03725  1.0000
  C   C196      1.0  0.19805  0.21462  0.02672  1.0000
  C   C197      1.0  0.20760  0.19803  0.02198  1.0000
  C   C198      1.0  0.07677  0.46670  0.16420  1.0000
  H   H158      1.0  0.17287  0.34343  0.99375  1.0000
  S   S19       1.0  0.22904  0.35804  0.11629  1.0000
  Fe  Fe10      1.0  0.22037  0.04138  0.08663  1.0000
  Fe  Fe11      1.0  0.09213  0.46267  0.01325  1.0000
  S   S20       1.0  0.19081  0.98909  0.11927  1.0000
  C   C199      1.0  0.09170  0.17018  0.99429  1.0000
  H   H159      1.0  0.19672  0.08538  0.00335  1.0000
  C   C200      1.0  0.22187  0.08613  0.01038  1.0000
  H   H160      1.0  0.22945  0.08658  0.99646  1.0000
  S   S21       1.0  0.06167  0.46918  0.01541  1.0000
  H   H161      1.0  0.06427  0.04385  0.19552  1.0000
  Fe  Fe12      1.0  0.23242  0.38495  0.09766  1.0000
  C   C201      1.0  0.15686  0.46419  0.04954  1.0000
  C   C202      1.0  0.23329  0.23687  0.08988  1.0000
  C   C203      1.0  0.20266  0.45037  0.09482  1.0000
  C   C204      1.0  0.07390  0.11983  0.96619  1.0000
  H   H162      1.0  0.98663  0.34052  0.20713  1.0000
  C   C205      1.0  0.05962  0.11160  0.96614  1.0000
  C   C206      1.0  0.18669  0.34451  0.96577  1.0000
  C   C207      1.0  0.09717  0.97218  0.01969  1.0000
  H   H163      1.0  0.11001  0.97422  0.98169  1.0000
  H   H164      1.0  0.23122  0.22523  0.08578  1.0000
  C   C208      1.0  0.00207  0.98155  0.13284  1.0000
  H   H165      1.0  0.23203  0.41409  0.18376  1.0000
  S   S22       1.0  0.23321  0.37484  0.07253  1.0000
  C   C209      1.0  0.10921  0.97858  0.02631  1.0000
  H   H166      1.0  0.01630  0.97797  0.13430  1.0000
  C   C210      1.0  0.23313  0.31253  0.04247  1.0000
  C   C211      1.0  0.16668  0.31742  0.21391  1.0000
  C   C212      1.0  0.18497  0.26298  0.21422  1.0000
  S   S23       1.0  0.12570  0.01402  0.96440  1.0000
  Fe  Fe13      1.0  0.99663  0.00530  0.30084  1.0000
  Fe  Fe14      1.0  0.02686  0.02459  0.30075  1.0000
  S   S24       1.0  0.02884  0.04910  0.31065  1.0000
  S   S25       1.0  0.01240  0.00438  0.32196  1.0000
  C   C213      1.0  0.01593  0.45649  0.24786  1.0000
  C   C214      1.0  0.02933  0.34284  0.25932  1.0000
  S   S26       1.0  0.02333  0.21669  0.32066  1.0000
  C   C215      1.0  0.14619  0.09277  0.21715  1.0000
  H   H167      1.0  0.08709  0.40518  0.37391  1.0000
  C   C216      1.0  0.04551  0.99262  0.35315  1.0000
  H   H168      1.0  0.18185  0.45767  0.41308  1.0000
  C   C217      1.0  0.08850  0.14443  0.44910  1.0000
  H   H169      1.0  0.03680  0.98099  0.43382  1.0000
  H   H170      1.0  0.10071  0.97618  0.38538  1.0000
  H   H171      1.0  0.10274  0.24823  0.27669  1.0000
  Fe  Fe15      1.0  0.10402  0.09218  0.32227  1.0000
  S   S27       1.0  0.09038  0.09174  0.35153  1.0000
  S   S28       1.0  0.10459  0.06932  0.30862  1.0000
  Fe  Fe16      1.0  0.11769  0.12694  0.31875  1.0000
  S   S29       1.0  0.10507  0.12923  0.34783  1.0000
  S   S30       1.0  0.13248  0.14799  0.29864  1.0000
  Fe  Fe17      1.0  0.11577  0.09915  0.35437  1.0000
  S   S31       1.0  0.12744  0.08397  0.37927  1.0000
  Fe  Fe18      1.0  0.08089  0.12176  0.34247  1.0000
  S   S32       1.0  0.05178  0.13395  0.35381  1.0000
  S   S33       1.0  0.13048  0.09722  0.32569  1.0000
  S   S34       1.0  0.09241  0.12178  0.31281  1.0000
  C   C218      1.0  0.14838  0.32622  0.21840  1.0000
  H   H172      1.0  0.22819  0.30926  0.23559  1.0000
  H   H173      1.0  0.20168  0.13379  0.45707  1.0000
  C   C219      1.0  0.07838  0.02381  0.21484  1.0000
  C   C220      1.0  0.08002  0.45597  0.33420  1.0000
  S   S35       1.0  0.14020  0.12871  0.43136  1.0000
  C   C221      1.0  0.10020  0.40044  0.34673  1.0000
  H   H174      1.0  0.01169  0.34563  0.43831  1.0000
  Fe  Fe19      1.0  0.00170  0.40038  0.28036  1.0000
  H   H175      1.0  0.00908  0.43427  0.43713  1.0000
  Fe  Fe20      1.0  0.03023  0.37613  0.30186  1.0000
  S   S36       1.0  0.01194  0.37932  0.32890  1.0000
  S   S37       1.0  0.05705  0.35582  0.29982  1.0000
  H   H176      1.0  0.03206  0.38524  0.23395  1.0000
  H   H177      1.0  0.20956  0.29202  0.22757  1.0000
  Fe  Fe21      1.0  0.00436  0.40877  0.31590  1.0000
  S   S38       1.0  0.00876  0.37009  0.29061  1.0000
  S   S39       1.0  0.02478  0.40603  0.28977  1.0000
  H   H178      1.0  0.01972  0.46122  0.36838  1.0000
  Fe  Fe22      1.0  0.17141  0.33285  0.26220  1.0000
  C   C222      1.0  0.18233  0.11510  0.35450  1.0000
  S   S40       1.0  0.16778  0.30560  0.25980  1.0000
  Fe  Fe23      1.0  0.15461  0.36918  0.27275  1.0000
  S   S41       1.0  0.18109  0.37934  0.26309  1.0000
  S   S42       1.0  0.12893  0.38777  0.28395  1.0000
  Fe  Fe24      1.0  0.18464  0.36687  0.23893  1.0000
  C   C223      1.0  0.03543  0.43409  0.36759  1.0000
  Fe  Fe25      1.0  0.19374  0.35149  0.27654  1.0000
  H   H179      1.0  0.98932  0.45660  0.24387  1.0000
  S   S43       1.0  0.15697  0.35916  0.24726  1.0000
  S   S44       1.0  0.16693  0.34218  0.28856  1.0000
  C   C224      1.0  0.15285  0.21455  0.26570  1.0000
  C   C225      1.0  0.10561  0.44198  0.38299  1.0000
  H   H180      1.0  0.19733  0.42760  0.40530  1.0000
  H   H181      1.0  0.17335  0.13637  0.44583  1.0000
  H   H182      1.0  0.03641  0.33215  0.26864  1.0000
  C   C226      1.0  0.22229  0.46175  0.41135  1.0000
  C   C227      1.0  0.21897  0.13629  0.43023  1.0000
  C   C228      1.0  0.04610  0.98788  0.37167  1.0000
  H   H183      1.0  0.04905  0.40710  0.36339  1.0000
  H   H184      1.0  0.20858  0.22174  0.23273  1.0000
  C   C229      1.0  0.19668  0.38345  0.32257  1.0000
  C   C230      1.0  0.19838  0.37166  0.31082  1.0000
  H   H185      1.0  0.99811  0.31908  0.45572  1.0000
  H   H186      1.0  0.18788  0.17313  0.28705  1.0000
  H   H187      1.0  0.18322  0.39047  0.32833  1.0000
  H   H188      1.0  0.18627  0.36943  0.30766  1.0000
  S   S45       1.0  0.04876  0.43415  0.38307  1.0000
  C   C231      1.0  0.10573  0.27360  0.25823  1.0000
  C   C232      1.0  0.19031  0.27179  0.26260  1.0000
  C   C233      1.0  0.18571  0.28884  0.26753  1.0000
  H   H189      1.0  0.17907  0.18197  0.23240  1.0000
  C   C234      1.0  0.99925  0.31470  0.41273  1.0000
  C   C235      1.0  0.12463  0.00133  0.39309  1.0000
  H   H190      1.0  0.18323  0.26918  0.25342  1.0000
  S   S46       1.0  0.04935  0.00329  0.28915  1.0000
  H   H191      1.0  0.20482  0.20623  0.36073  1.0000
  C   C236      1.0  0.07687  0.36492  0.29561  1.0000
  C   C237      1.0  0.07564  0.38319  0.29588  1.0000
  C   C238      1.0  0.09171  0.39013  0.29234  1.0000
  C   C239      1.0  0.10899  0.37888  0.28838  1.0000
  C   C240      1.0  0.11021  0.36058  0.28830  1.0000
  C   C241      1.0  0.09417  0.35359  0.29205  1.0000
  H   H192      1.0  0.06236  0.39197  0.29880  1.0000
  H   H193      1.0  0.09076  0.40429  0.29245  1.0000
  H   H194      1.0  0.12352  0.35181  0.28538  1.0000
  H   H195      1.0  0.09520  0.33943  0.29206  1.0000
  C   C242      1.0  0.99659  0.31059  0.43174  1.0000
  C   C243      1.0  0.14327  0.20854  0.25584  1.0000
  C   C244      1.0  0.21519  0.17834  0.43868  1.0000
  C   C245      1.0  0.18314  0.45554  0.39944  1.0000
  S   S47       1.0  0.00941  0.02719  0.28047  1.0000
  C   C246      1.0  0.16896  0.04873  0.41408  1.0000
  C   C247      1.0  0.12338  0.42303  0.31764  1.0000
  C   C248      1.0  0.03653  0.35851  0.25101  1.0000
  C   C249      1.0  0.01329  0.43300  0.34401  1.0000
  C   C250      1.0  0.13136  0.25060  0.26782  1.0000
  S   S48       1.0  0.99892  0.43266  0.32965  1.0000
  C   C251      1.0  0.12044  0.20152  0.29884  1.0000
  H   H196      1.0  0.15816  0.25690  0.25535  1.0000
  C   C252      1.0  0.19163  0.12648  0.35859  1.0000
  C   C253      1.0  0.09310  0.00921  0.21724  1.0000
  H   H197      1.0  0.11378  0.00470  0.38545  1.0000
  C   C254      1.0  0.17784  0.16445  0.31581  1.0000
  C   C255      1.0  0.16412  0.15686  0.32907  1.0000
  C   C256      1.0  0.15036  0.15143  0.32392  1.0000
  C   C257      1.0  0.14990  0.15416  0.30546  1.0000
  C   C258      1.0  0.16326  0.16233  0.29220  1.0000
  C   C259      1.0  0.17736  0.16725  0.29734  1.0000
  H   H198      1.0  0.16423  0.15491  0.34337  1.0000
  H   H199      1.0  0.14008  0.14522  0.33423  1.0000
  H   H200      1.0  0.16289  0.16452  0.27790  1.0000
  C   C260      1.0  0.12915  0.09726  0.39392  1.0000
  C   C261      1.0  0.12999  0.08904  0.41211  1.0000
  C   C262      1.0  0.13274  0.09887  0.42382  1.0000
  C   C263      1.0  0.13498  0.11688  0.41730  1.0000
  C   C264      1.0  0.13368  0.12531  0.39922  1.0000
  C   C265      1.0  0.13066  0.11554  0.38756  1.0000
  H   H201      1.0  0.12876  0.07495  0.41711  1.0000
  H   H202      1.0  0.13355  0.09238  0.43779  1.0000
  H   H203      1.0  0.13543  0.13926  0.39410  1.0000
  H   H204      1.0  0.13030  0.12192  0.37347  1.0000
  H   H205      1.0  0.22407  0.46011  0.23786  1.0000
  C   C266      1.0  0.98559  0.40724  0.39641  1.0000
  C   C267      1.0  0.01025  0.37127  0.23656  1.0000
  H   H206      1.0  0.03316  0.45011  0.44653  1.0000
  C   C268      1.0  0.21573  0.36236  0.30358  1.0000
  H   H207      1.0  0.23284  0.13910  0.40224  1.0000
  H   H208      1.0  0.04913  0.35995  0.25393  1.0000
  S   S49       1.0  0.98578  0.25170  0.34452  1.0000
  H   H209      1.0  0.17470  0.13995  0.41296  1.0000
  H   H210      1.0  0.16819  0.15821  0.37389  1.0000
  H   H211      1.0  0.15185  0.43096  0.36856  1.0000
  C   C269      1.0  0.02725  0.41813  0.34826  1.0000
  C   C270      1.0  0.03128  0.19340  0.32891  1.0000
  C   C271      1.0  0.05018  0.18606  0.32585  1.0000
  C   C272      1.0  0.05671  0.16767  0.33317  1.0000
  C   C273      1.0  0.04427  0.15667  0.34362  1.0000
  C   C274      1.0  0.02543  0.16394  0.34641  1.0000
  C   C275      1.0  0.01896  0.18216  0.33884  1.0000
  H   H212      1.0  0.05972  0.19460  0.31775  1.0000
  H   H213      1.0  0.07129  0.16203  0.33081  1.0000
  H   H214      1.0  0.01578  0.15541  0.35429  1.0000
  H   H215      1.0  0.00442  0.18741  0.34059  1.0000
  C   C276      1.0  0.18148  0.19778  0.25064  1.0000
  C   C277      1.0  0.05003  0.05466  0.30964  1.0000
  C   C278      1.0  0.06670  0.04445  0.30207  1.0000
  C   C279      1.0  0.08336  0.04905  0.30189  1.0000
  C   C280      1.0  0.08345  0.06382  0.30930  1.0000
  C   C281      1.0  0.06678  0.07391  0.31704  1.0000
  C   C282      1.0  0.05013  0.06937  0.31712  1.0000
  H   H216      1.0  0.06676  0.03307  0.29630  1.0000
  H   H217      1.0  0.09622  0.04121  0.29588  1.0000
  H   H218      1.0  0.06670  0.08531  0.32279  1.0000
  H   H219      1.0  0.03727  0.07732  0.32298  1.0000
  C   C283      1.0  0.15311  0.40938  0.30144  1.0000
  C   C284      1.0  0.15129  0.42331  0.28612  1.0000
  C   C285      1.0  0.13566  0.43722  0.28654  1.0000
  C   C286      1.0  0.12177  0.43714  0.30225  1.0000
  C   C287      1.0  0.13921  0.40918  0.31712  1.0000
  H   H220      1.0  0.14627  0.28724  0.23812  1.0000
  H   H221      1.0  0.16178  0.42301  0.27379  1.0000
  C   C288      1.0  0.15423  0.05524  0.44394  1.0000
  H   H222      1.0  0.14070  0.39805  0.32873  1.0000
  C   C289      1.0  0.10935  0.03987  0.35066  1.0000
  C   C290      1.0  0.11649  0.04587  0.36251  1.0000
  C   C291      1.0  0.10612  0.04762  0.37984  1.0000
  C   C292      1.0  0.08860  0.04348  0.38531  1.0000
  C   C293      1.0  0.08138  0.03721  0.37356  1.0000
  C   C294      1.0  0.09181  0.03571  0.35605  1.0000
  P   P10       1.0  0.05809  0.03339  0.38040  1.0000
  C   C295      1.0  0.05472  0.01663  0.36960  1.0000
  C   C296      1.0  0.05347  0.02557  0.40490  1.0000
  C   C297      1.0  0.03699  0.03279  0.41579  1.0000
  H   H223      1.0  0.13410  0.44782  0.27454  1.0000
  H   H224      1.0  0.21649  0.23343  0.38662  1.0000
  C   C298      1.0  0.06324  0.00597  0.43217  1.0000
  C   C299      1.0  0.06655  0.01205  0.41322  1.0000
  C   C300      1.0  0.05406  0.02121  0.35100  1.0000
  C   C301      1.0  0.04960  0.00920  0.34279  1.0000
  C   C302      1.0  0.20229  0.13541  0.44261  1.0000
  H   H225      1.0  0.10970  0.44794  0.30216  1.0000
  C   C303      1.0  0.05070  0.99983  0.37990  1.0000
  C   C304      1.0  0.04264  0.05444  0.37337  1.0000
  C   C305      1.0  0.04792  0.07125  0.37013  1.0000
  C   C306      1.0  0.03646  0.08738  0.36347  1.0000
  C   C307      1.0  0.01962  0.08689  0.35999  1.0000
  C   C308      1.0  0.01413  0.07024  0.36337  1.0000
  C   C309      1.0  0.02553  0.05408  0.37012  1.0000
  H   H226      1.0  0.11712  0.03921  0.33693  1.0000
  H   H227      1.0  0.12978  0.04978  0.35804  1.0000
  H   H228      1.0  0.11151  0.05269  0.38884  1.0000
  H   H229      1.0  0.08057  0.04564  0.39855  1.0000
  H   H230      1.0  0.08641  0.03188  0.34627  1.0000
  H   H231      1.0  0.21456  0.42212  0.30610  1.0000
  C   C310      1.0  0.21455  0.30311  0.21740  1.0000
  H   H232      1.0  0.07334  0.99552  0.43857  1.0000
  H   H233      1.0  0.23118  0.13571  0.43514  1.0000
  H   H234      1.0  0.07926  0.00617  0.40502  1.0000
  H   H235      1.0  0.05639  0.03435  0.34293  1.0000
  H   H236      1.0  0.04894  0.01295  0.32844  1.0000
  C   C311      1.0  0.19175  0.43856  0.39510  1.0000
  H   H237      1.0  0.04192  0.46018  0.25054  1.0000
  H   H238      1.0  0.05057  0.99607  0.39431  1.0000
  H   H239      1.0  0.06106  0.07198  0.37228  1.0000
  H   H240      1.0  0.04085  0.10025  0.36054  1.0000
  H   H241      1.0  0.01102  0.09940  0.35438  1.0000
  H   H242      1.0  0.00125  0.06980  0.36032  1.0000
  H   H243      1.0  0.02118  0.04129  0.37230  1.0000
  C   C312      1.0  0.19538  0.29245  0.27885  1.0000
  C   C313      1.0  0.99887  0.46500  0.24332  1.0000
  H   H244      1.0  0.99507  0.28789  0.28989  1.0000
  H   H245      1.0  0.18666  0.11014  0.40451  1.0000
  S   S50       1.0  0.19528  0.17035  0.32285  1.0000
  H   H246      1.0  0.17277  0.21434  0.35597  1.0000
  H   H247      1.0  0.19457  0.18400  0.42254  1.0000
  H   H248      1.0  0.18095  0.11651  0.34057  1.0000
  C   C314      1.0  0.15270  0.19683  0.24388  1.0000
  C   C315      1.0  0.17875  0.20032  0.36115  1.0000
  H   H249      1.0  0.10422  0.18094  0.31136  1.0000
  C   C316      1.0  0.05125  0.98368  0.23330  1.0000
  H   H250      1.0  0.21644  0.28170  0.29467  1.0000
  H   H251      1.0  0.03357  0.07718  0.27333  1.0000
  C   C317      1.0  0.21232  0.38604  0.32702  1.0000
  C   C318      1.0  0.19455  0.16384  0.37353  1.0000
  H   H252      1.0  0.20774  0.24504  0.26567  1.0000
  C   C319      1.0  0.09284  0.98026  0.34310  1.0000
  C   C320      1.0  0.99483  0.10427  0.29240  1.0000
  H   H253      1.0  0.04869  0.43768  0.31370  1.0000
  C   C321      1.0  0.01257  0.34140  0.25634  1.0000
  C   C322      1.0  0.18553  0.11186  0.39050  1.0000
  S   S51       1.0  0.20978  0.40083  0.34183  1.0000
  H   H254      1.0  0.11056  0.39162  0.32092  1.0000
  C   C323      1.0  0.11241  0.25658  0.26841  1.0000
  H   H255      1.0  0.21322  0.19948  0.39486  1.0000
  C   C324      1.0  0.07242  0.04042  0.45562  1.0000
  C   C325      1.0  0.21360  0.26173  0.28113  1.0000
  C   C326      1.0  0.20425  0.25819  0.26944  1.0000
  C   C327      1.0  0.01062  0.44851  0.35134  1.0000
  H   H256      1.0  0.99599  0.43490  0.21592  1.0000
  P   P11       1.0  0.14042  0.22921  0.28155  1.0000
  C   C328      1.0  0.15522  0.23263  0.29478  1.0000
  C   C329      1.0  0.15639  0.25023  0.29571  1.0000
  C   C330      1.0  0.16868  0.25254  0.30516  1.0000
  C   C331      1.0  0.17974  0.23738  0.31392  1.0000
  C   C332      1.0  0.17804  0.21988  0.31379  1.0000
  C   C333      1.0  0.16569  0.21748  0.30446  1.0000
  C   C334      1.0  0.12244  0.21929  0.29800  1.0000
  C   C335      1.0  0.11295  0.42957  0.35548  1.0000
  C   C336      1.0  0.14350  0.26146  0.25624  1.0000
  H   H257      1.0  0.23266  0.36943  0.23128  1.0000
  C   C337      1.0  0.09585  0.22239  0.32277  1.0000
  C   C338      1.0  0.11032  0.22947  0.31039  1.0000
  C   C339      1.0  0.17626  0.10048  0.38634  1.0000
  H   H258      1.0  0.14815  0.26229  0.28897  1.0000
  H   H259      1.0  0.17006  0.26615  0.30516  1.0000
  H   H260      1.0  0.18981  0.23920  0.32057  1.0000
  H   H261      1.0  0.18663  0.20814  0.32060  1.0000
  H   H262      1.0  0.16471  0.20378  0.30436  1.0000
  C   C340      1.0  0.23070  0.40531  0.22953  1.0000
  H   H263      1.0  0.08641  0.23035  0.33216  1.0000
  H   H264      1.0  0.11205  0.24293  0.31034  1.0000
  C   C341      1.0  0.13656  0.97820  0.45860  1.0000
  C   C342      1.0  0.09349  0.20501  0.32301  1.0000
  C   C343      1.0  0.08638  0.37843  0.37142  1.0000
  H   H265      1.0  0.07932  0.37481  0.38542  1.0000
  C   C344      1.0  0.03820  0.41859  0.36018  1.0000
  H   H266      1.0  0.99311  0.07691  0.32546  1.0000
  Fe  Fe26      1.0  0.98990  0.37530  0.31688  1.0000
  C   C345      1.0  0.09786  0.01503  0.46010  1.0000
  C   C346      1.0  0.02694  0.37273  0.23971  1.0000
  P   P12       1.0  0.20497  0.14041  0.38126  1.0000
  C   C347      1.0  0.00096  0.32188  0.44090  1.0000
  C   C348      1.0  0.10412  0.38802  0.33513  1.0000
  S   S52       1.0  0.00111  0.41395  0.25080  1.0000
  S   S53       1.0  0.21488  0.20457  0.27766  1.0000
  P   P13       1.0  0.10553  0.42290  0.33806  1.0000
  H   H267      1.0  0.09551  0.44786  0.39361  1.0000
  H   H268      1.0  0.00621  0.32231  0.22883  1.0000
  H   H269      1.0  0.13383  0.03984  0.45957  1.0000
  C   C349      1.0  0.00699  0.32969  0.40279  1.0000
  C   C350      1.0  0.01246  0.34045  0.41181  1.0000
  C   C351      1.0  0.00866  0.33692  0.43098  1.0000
  P   P14       1.0  0.02333  0.35917  0.39865  1.0000
  C   C352      1.0  0.03758  0.36545  0.41051  1.0000
  C   C353      1.0  0.03887  0.35253  0.37852  1.0000
  C   C354      1.0  0.04752  0.33424  0.37851  1.0000
  C   C355      1.0  0.05893  0.32922  0.36259  1.0000
  C   C356      1.0  0.06205  0.34245  0.34671  1.0000
  C   C357      1.0  0.05403  0.36073  0.34684  1.0000
  C   C358      1.0  0.04267  0.36576  0.36273  1.0000
  C   C359      1.0  0.04048  0.38340  0.40643  1.0000
  C   C360      1.0  0.05145  0.38829  0.41562  1.0000
  C   C361      1.0  0.06004  0.37522  0.42857  1.0000
  C   C362      1.0  0.05787  0.35717  0.43216  1.0000
  C   C363      1.0  0.04686  0.35224  0.42302  1.0000
  C   C364      1.0  0.00525  0.37804  0.39231  1.0000
  C   C365      1.0  0.20817  0.18549  0.42276  1.0000
  H   H270      1.0  0.19761  0.13640  0.34764  1.0000
  S   S54       1.0  0.19926  0.33974  0.25161  1.0000
  H   H271      1.0  0.99468  0.12975  0.29950  1.0000
  C   C366      1.0  0.07353  0.14836  0.46311  1.0000
  C   C367      1.0  0.02178  0.44913  0.36294  1.0000
  C   C368      1.0  0.13735  0.43250  0.36887  1.0000
  H   H272      1.0  0.16052  0.07147  0.23546  1.0000
  H   H273      1.0  0.00886  0.33275  0.38806  1.0000
  C   C369      1.0  0.21401  0.24246  0.35852  1.0000
  H   H274      1.0  0.04535  0.32382  0.39071  1.0000
  H   H275      1.0  0.06529  0.31507  0.36251  1.0000
  H   H276      1.0  0.07073  0.33862  0.33428  1.0000
  H   H277      1.0  0.05658  0.37102  0.33455  1.0000
  H   H278      1.0  0.03667  0.37995  0.36268  1.0000
  H   H279      1.0  0.03440  0.39369  0.39609  1.0000
  H   H280      1.0  0.05343  0.40223  0.41252  1.0000
  H   H281      1.0  0.16500  0.39839  0.30091  1.0000
  C   C370      1.0  0.20247  0.42479  0.22210  1.0000
  H   H282      1.0  0.04570  0.33811  0.42568  1.0000
  C   C371      1.0  0.16100  0.07899  0.22151  1.0000
  C   C372      1.0  0.17454  0.10217  0.36840  1.0000
  C   C373      1.0  0.14136  0.99519  0.45591  1.0000
  C   C374      1.0  0.15870  0.03525  0.41708  1.0000
  H   H283      1.0  0.00330  0.36864  0.36889  1.0000
  C   C375      1.0  0.17668  0.46995  0.38610  1.0000
  C   C376      1.0  0.10584  0.19455  0.31110  1.0000
  H   H284      1.0  0.05648  0.25341  0.30045  1.0000
  H   H285      1.0  0.19630  0.19344  0.24874  1.0000
  C   C377      1.0  0.99912  0.44242  0.41206  1.0000
  C   C378      1.0  0.05269  0.46072  0.32197  1.0000
  C   C379      1.0  0.14623  0.03159  0.43368  1.0000
  H   H286      1.0  0.22059  0.45161  0.30755  1.0000
  Fe  Fe27      1.0  0.13869  0.11375  0.46065  1.0000
  H   H287      1.0  0.11113  0.04884  0.42486  1.0000
  C   C380      1.0  0.17208  0.20957  0.26254  1.0000
  H   H288      1.0  0.98684  0.45416  0.38854  1.0000
  C   C381      1.0  0.17178  0.19133  0.24140  1.0000
  C   C382      1.0  0.03370  0.02662  0.43475  1.0000
  H   H289      1.0  0.10350  0.99666  0.35502  1.0000
  C   C383      1.0  0.21876  0.19437  0.40712  1.0000
  C   C384      1.0  0.20925  0.27891  0.28567  1.0000
  C   C385      1.0  0.02175  0.11747  0.28754  1.0000
  C   C386      1.0  0.03282  0.10270  0.28017  1.0000
  C   C387      1.0  0.02494  0.08890  0.27858  1.0000
  C   C388      1.0  0.00605  0.08965  0.28466  1.0000
  C   C389      1.0  0.09688  0.97258  0.37442  1.0000
  C   C390      1.0  0.22061  0.24488  0.21817  1.0000
  C   C391      1.0  0.99858  0.44310  0.43006  1.0000
  C   C392      1.0  0.98603  0.45432  0.40271  1.0000
  P   P15       1.0  0.13326  0.01382  0.43845  1.0000
  Fe  Fe28      1.0  0.99329  0.22737  0.33138  1.0000
  S   S55       1.0  0.04133  0.00450  0.24043  1.0000
  H   H290      1.0  0.14444  0.33463  0.22859  1.0000
  C   C393      1.0  0.15293  0.99327  0.41237  1.0000
  S   S56       1.0  0.23065  0.24509  0.29056  1.0000
  H   H291      1.0  0.00271  0.38278  0.22845  1.0000
  H   H292      1.0  0.14344  0.98492  0.37487  1.0000
  H   H293      1.0  0.00686  0.32951  0.26362  1.0000
  C   C394      1.0  0.22626  0.34594  0.36015  1.0000
  H   H294      1.0  0.02094  0.03219  0.44312  1.0000
  C   C395      1.0  0.00311  0.35543  0.24453  1.0000
  H   H295      1.0  0.01103  0.26228  0.27438  1.0000
  H   H296      1.0  0.09108  0.27830  0.25895  1.0000
  H   H297      1.0  0.21182  0.34983  0.35949  1.0000
  H   H298      1.0  0.04280  0.97500  0.37962  1.0000
  H   H299      1.0  0.13425  0.09591  0.22772  1.0000
  H   H300      1.0  0.02791  0.12809  0.28890  1.0000
  H   H301      1.0  0.22374  0.15660  0.34472  1.0000
  H   H302      1.0  0.00038  0.07842  0.28392  1.0000
  C   C396      1.0  0.98609  0.39492  0.37046  1.0000
  H   H303      1.0  0.17844  0.05165  0.40122  1.0000
  C   C397      1.0  0.09995  0.43679  0.36955  1.0000
  Fe  Fe29      1.0  0.03348  0.98318  0.30887  1.0000
  C   C398      1.0  0.22637  0.44604  0.29532  1.0000
  H   H304      1.0  0.16403  0.99009  0.41968  1.0000
  C   C399      1.0  0.00282  0.11832  0.29357  1.0000
  C   C400      1.0  0.12201  0.00844  0.40871  1.0000
  C   C401      1.0  0.10237  0.04150  0.43608  1.0000
  H   H305      1.0  0.14222  0.42170  0.34492  1.0000
  C   C402      1.0  0.07348  0.43138  0.32428  1.0000
  C   C403      1.0  0.16692  0.05853  0.42763  1.0000
  C   C404      1.0  0.02360  0.45106  0.45930  1.0000
  C   C405      1.0  0.22200  0.24089  0.34048  1.0000
  H   H306      1.0  0.04425  0.00839  0.45761  1.0000
  H   H307      1.0  0.10197  0.13828  0.45222  1.0000
  H   H308      1.0  0.00898  0.27729  0.34876  1.0000
  H   H309      1.0  0.08223  0.19954  0.33257  1.0000
  H   H310      1.0  0.04179  0.24515  0.27960  1.0000
  S   S57       1.0  0.01644  0.98215  0.28962  1.0000
  C   C406      1.0  0.13041  0.46871  0.32817  1.0000
  H   H311      1.0  0.04755  0.10175  0.27601  1.0000
  H   H312      1.0  0.12846  0.21255  0.25774  1.0000
  C   C407      1.0  0.04682  0.01323  0.44293  1.0000
  H   H313      1.0  0.08855  0.46140  0.33981  1.0000
  C   C408      1.0  0.22247  0.23162  0.37276  1.0000
  H   H314      1.0  0.04381  0.31717  0.32865  1.0000
  H   H315      1.0  0.16988  0.09068  0.39710  1.0000
  C   C409      1.0  0.18638  0.13682  0.43629  1.0000
  C   C410      1.0  0.16851  0.18674  0.36484  1.0000
  C   C411      1.0  0.09100  0.39562  0.36487  1.0000
  C   C412      1.0  0.20459  0.17762  0.37028  1.0000
  C   C413      1.0  0.22813  0.13521  0.36842  1.0000
  C   C414      1.0  0.23191  0.46771  0.37844  1.0000
  C   C415      1.0  0.02197  0.19313  0.38200  1.0000
  C   C416      1.0  0.01633  0.20729  0.39160  1.0000
  C   C417      1.0  0.02594  0.20773  0.40456  1.0000
  C   C418      1.0  0.04098  0.19382  0.40818  1.0000
  C   C419      1.0  0.04623  0.17910  0.39917  1.0000
  C   C420      1.0  0.03704  0.17923  0.38553  1.0000
  P   P16       1.0  0.06581  0.16124  0.40359  1.0000
  C   C421      1.0  0.06326  0.13965  0.40070  1.0000
  C   C422      1.0  0.08553  0.16830  0.38752  1.0000
  C   C423      1.0  0.08924  0.16557  0.36959  1.0000
  C   C424      1.0  0.10497  0.17017  0.35727  1.0000
  C   C425      1.0  0.11682  0.17795  0.36257  1.0000
  C   C426      1.0  0.11283  0.18138  0.38021  1.0000
  C   C427      1.0  0.09714  0.17673  0.39261  1.0000
  C   C428      1.0  0.04579  0.13544  0.40408  1.0000
  C   C429      1.0  0.04401  0.11854  0.40205  1.0000
  C   C430      1.0  0.05965  0.10560  0.39707  1.0000
  C   C431      1.0  0.07708  0.10946  0.39434  1.0000
  C   C432      1.0  0.07890  0.12639  0.39618  1.0000
  C   C433      1.0  0.06880  0.15658  0.42687  1.0000
  C   C434      1.0  0.05368  0.15984  0.44112  1.0000
  H   H316      1.0  0.02667  0.04315  0.40971  1.0000
  H   H317      1.0  0.00231  0.39061  0.41525  1.0000
  C   C435      1.0  0.22967  0.37687  0.31959  1.0000
  C   C436      1.0  0.08614  0.14829  0.43109  1.0000
  H   H318      1.0  0.01470  0.19302  0.37171  1.0000
  H   H319      1.0  0.00460  0.21802  0.38885  1.0000
  H   H320      1.0  0.02165  0.21888  0.41180  1.0000
  H   H321      1.0  0.04845  0.19457  0.41804  1.0000
  H   H322      1.0  0.04142  0.16857  0.37765  1.0000
  H   H323      1.0  0.08016  0.15954  0.36524  1.0000
  H   H324      1.0  0.10815  0.16740  0.34365  1.0000
  H   H325      1.0  0.12911  0.18121  0.35297  1.0000
  H   H326      1.0  0.12201  0.18739  0.38439  1.0000
  H   H327      1.0  0.09428  0.17949  0.40621  1.0000
  H   H328      1.0  0.03352  0.14522  0.40809  1.0000
  H   H329      1.0  0.03050  0.11564  0.40395  1.0000
  H   H330      1.0  0.05828  0.09269  0.39510  1.0000
  H   H331      1.0  0.08921  0.09944  0.39053  1.0000
  H   H332      1.0  0.09252  0.12911  0.39403  1.0000
  H   H333      1.0  0.03999  0.16523  0.43840  1.0000
  H   H334      1.0  0.04181  0.98347  0.34680  1.0000
  C   C437      1.0  0.13623  0.00462  0.41836  1.0000
  H   H335      1.0  0.01916  0.44180  0.25221  1.0000
  H   H336      1.0  0.09788  0.14470  0.42052  1.0000
  H   H337      1.0  0.20027  0.42266  0.37412  1.0000
  C   C438      1.0  0.14369  0.04210  0.44683  1.0000
  H   H338      1.0  0.13004  0.19285  0.29020  1.0000
  C   C439      1.0  0.19297  0.12525  0.37665  1.0000
  H   H339      1.0  0.00908  0.29605  0.31128  1.0000
  H   H340      1.0  0.06483  0.34698  0.44197  1.0000
  C   C440      1.0  0.13175  0.42729  0.35539  1.0000
  C   C441      1.0  0.19354  0.43583  0.37751  1.0000
  C   C442      1.0  0.99855  0.37938  0.37663  1.0000
  H   H341      1.0  0.07687  0.41753  0.32219  1.0000
  C   C443      1.0  0.04833  0.22750  0.35400  1.0000
  C   C444      1.0  0.05900  0.22729  0.36628  1.0000
  C   C445      1.0  0.06475  0.24313  0.36608  1.0000
  C   C446      1.0  0.06016  0.25907  0.35333  1.0000
  C   C447      1.0  0.04997  0.25919  0.34054  1.0000
  C   C448      1.0  0.04354  0.24345  0.34144  1.0000
  P   P17       1.0  0.04412  0.27986  0.32413  1.0000
  C   C449      1.0  0.02800  0.29564  0.33711  1.0000
  C   C450      1.0  0.06413  0.28870  0.31068  1.0000
  C   C451      1.0  0.08198  0.27881  0.31185  1.0000
  C   C452      1.0  0.09728  0.28576  0.30106  1.0000
  C   C453      1.0  0.09487  0.30249  0.28886  1.0000
  C   C454      1.0  0.07717  0.31218  0.28731  1.0000
  C   C455      1.0  0.06187  0.30526  0.29805  1.0000
  C   C456      1.0  0.03136  0.31281  0.33666  1.0000
  C   C457      1.0  0.01836  0.32485  0.34654  1.0000
  C   C458      1.0  0.00211  0.31974  0.35715  1.0000
  C   C459      1.0  0.99894  0.30249  0.35811  1.0000
  C   C460      1.0  0.01181  0.29049  0.34813  1.0000
  C   C461      1.0  0.03382  0.27516  0.30767  1.0000
  C   C462      1.0  0.04319  0.26125  0.29807  1.0000
  C   C463      1.0  0.03499  0.25662  0.28611  1.0000
  C   C464      1.0  0.01763  0.26621  0.28322  1.0000
  C   C465      1.0  0.00856  0.28057  0.29210  1.0000
  C   C466      1.0  0.01657  0.28507  0.30432  1.0000
  H   H342      1.0  0.04358  0.21537  0.35421  1.0000
  H   H343      1.0  0.06262  0.21490  0.37604  1.0000
  H   H344      1.0  0.07268  0.24308  0.37588  1.0000
  H   H345      1.0  0.06454  0.27131  0.35340  1.0000
  H   H346      1.0  0.03464  0.24337  0.33264  1.0000
  H   H347      1.0  0.08417  0.26575  0.32099  1.0000
  H   H348      1.0  0.11105  0.27826  0.30211  1.0000
  H   H349      1.0  0.10673  0.30798  0.28066  1.0000
  H   H350      1.0  0.07526  0.32532  0.27807  1.0000
  H   H351      1.0  0.04824  0.31304  0.29674  1.0000
  H   H352      1.0  0.02072  0.33830  0.34566  1.0000
  H   H353      1.0  0.08542  0.43854  0.37012  1.0000
  H   H354      1.0  0.17983  0.21472  0.26924  1.0000
  Fe  Fe30      1.0  0.03068  0.00388  0.27067  1.0000
  H   H355      1.0  0.02963  0.40643  0.34215  1.0000
  C   C467      1.0  0.09941  0.37090  0.34167  1.0000
  C   C468      1.0  0.09069  0.36604  0.35987  1.0000
  C   C469      1.0  0.21322  0.41550  0.23502  1.0000
  C   C470      1.0  0.05755  0.44283  0.31927  1.0000
  C   C471      1.0  0.18723  0.13865  0.41765  1.0000
  C   C472      1.0  0.99439  0.31767  0.23815  1.0000
  C   C473      1.0  0.12427  0.43996  0.38260  1.0000
  H   H356      1.0  0.01006  0.43307  0.40517  1.0000
  H   H357      1.0  0.99508  0.30633  0.40578  1.0000
  C   C474      1.0  0.17632  0.16856  0.37113  1.0000
  H   H358      1.0  0.08706  0.35277  0.36494  1.0000
  H   H359      1.0  0.10242  0.36152  0.33250  1.0000
  C   C475      1.0  0.19679  0.19576  0.36387  1.0000
  H   H360      1.0  0.16691  0.09365  0.36532  1.0000
  H   H361      1.0  0.15465  0.19024  0.36246  1.0000
  C   C476      1.0  0.18718  0.45022  0.36410  1.0000
  S   S58       1.0  0.05833  0.46260  0.41351  1.0000
  H   H362      1.0  0.12853  0.44441  0.39284  1.0000
  C   C477      1.0  0.09834  0.98431  0.35730  1.0000
  H   H363      1.0  0.06857  0.37908  0.43563  1.0000
  C   C478      1.0  0.11790  0.28467  0.24735  1.0000
  H   H364      1.0  0.21567  0.24947  0.32936  1.0000
  H   H365      1.0  0.20703  0.17152  0.45083  1.0000
  C   C479      1.0  0.22308  0.42933  0.29458  1.0000
  C   C480      1.0  0.20410  0.13851  0.40524  1.0000
  H   H366      1.0  0.19195  0.30559  0.28266  1.0000
  C   C481      1.0  0.08472  0.43777  0.33206  1.0000
  H   H367      1.0  0.99999  0.46016  0.34789  1.0000
  H   H368      1.0  0.15244  0.06295  0.45439  1.0000
  H   H369      1.0  0.00552  0.28946  0.23669  1.0000
  C   C482      1.0  0.99802  0.39169  0.40265  1.0000
  C   C483      1.0  0.23137  0.36505  0.30791  1.0000
  H   H370      1.0  0.10895  0.01699  0.41307  1.0000
  H   H371      1.0  0.09458  0.00200  0.23093  1.0000
  C   C484      1.0  0.13680  0.27857  0.24632  1.0000
  H   H372      1.0  0.18907  0.44793  0.35043  1.0000
  H   H373      1.0  0.20146  0.25237  0.36142  1.0000
  H   H374      1.0  0.98626  0.29858  0.36622  1.0000
  C   C485      1.0  0.20600  0.23580  0.22552  1.0000
  Fe  Fe31      1.0  0.21808  0.18162  0.30179  1.0000
  Fe  Fe32      1.0  0.04719  0.46154  0.38960  1.0000
  H   H375      1.0  0.11272  0.29799  0.23975  1.0000
  H   H376      1.0  0.07863  0.06313  0.43399  1.0000
  H   H377      1.0  0.16851  0.97762  0.39207  1.0000
  C   C486      1.0  0.14137  0.99024  0.38709  1.0000
  H   H378      1.0  0.09367  0.98947  0.32990  1.0000
  C   C487      1.0  0.10947  0.02412  0.44551  1.0000
  H   H379      1.0  0.99051  0.29900  0.43935  1.0000
  H   H380      1.0  0.14516  0.19174  0.23678  1.0000
  C   C488      1.0  0.22500  0.31299  0.22209  1.0000
  H   H381      1.0  0.20780  0.41577  0.24933  1.0000
  H   H382      1.0  0.22330  0.36099  0.38101  1.0000
  C   C489      1.0  0.08392  0.04961  0.44114  1.0000
  H   H383      1.0  0.16049  0.02790  0.40638  1.0000
  C   C490      1.0  0.00119  0.38037  0.46116  1.0000
  H   H384      1.0  0.17491  0.06889  0.42545  1.0000
  S   S59       1.0  0.21811  0.34696  0.28951  1.0000
  H   H385      1.0  0.22854  0.40868  0.27874  1.0000
  C   C491      1.0  0.23273  0.35229  0.37224  1.0000
  H   H386      1.0  0.98549  0.45657  0.45233  1.0000
  C   C492      1.0  0.17908  0.46751  0.36818  1.0000
  H   H387      1.0  0.21856  0.17425  0.37234  1.0000
  C   C493      1.0  0.02878  0.46686  0.24686  1.0000
  C   C494      1.0  0.15549  0.98616  0.39677  1.0000
  H   H388      1.0  0.01352  0.36995  0.45939  1.0000
  H   H389      1.0  0.17690  0.23769  0.22906  1.0000
  H   H390      1.0  0.99331  0.04446  0.33884  1.0000
  C   C495      1.0  0.98501  0.45574  0.43870  1.0000
  C   C496      1.0  0.23093  0.42182  0.27907  1.0000
  H   H391      1.0  0.12042  0.46471  0.32309  1.0000
  H   H392      1.0  0.05818  0.04678  0.45974  1.0000
  C   C497      1.0  0.05610  0.15593  0.45914  1.0000
  C   C498      1.0  0.21987  0.13803  0.41158  1.0000
  C   C499      1.0  0.01370  0.46807  0.46271  1.0000
  C   C500      1.0  0.18820  0.24481  0.22349  1.0000
  C   C501      1.0  0.99411  0.29904  0.24265  1.0000
  H   H393      1.0  0.06854  0.02784  0.22664  1.0000
  C   C502      1.0  0.23084  0.45543  0.39521  1.0000
  H   H394      1.0  0.18867  0.43215  0.22640  1.0000
  H   H395      1.0  0.22159  0.45228  0.42434  1.0000
  H   H396      1.0  0.17658  0.31936  0.22068  1.0000
  C   C503      1.0  0.23332  0.14528  0.35076  1.0000
  C   C504      1.0  0.23293  0.17968  0.43889  1.0000
  H   H397      1.0  0.12765  0.97634  0.45065  1.0000
  H   H398      1.0  0.23311  0.33109  0.33877  1.0000
  H   H399      1.0  0.23330  0.30199  0.30088  1.0000
  H   H400      1.0  0.15276  0.46183  0.30623  1.0000
  Fe  Fe33      1.0  0.23342  0.21638  0.28759  1.0000
  H   H401      1.0  0.99174  0.32932  0.36427  1.0000
  C   C505      1.0  0.98497  0.37831  0.45748  1.0000
  H   H402      1.0  0.98493  0.36612  0.45311  1.0000
  C   C506      1.0  0.06397  0.46732  0.32931  1.0000
  H   H403      1.0  0.04003  0.46938  0.31860  1.0000
  C   C507      1.0  0.14862  0.46720  0.31864  1.0000
  S   S60       1.0  0.12367  0.39542  0.63439  1.0000
  C   C508      1.0  0.12534  0.46177  0.67502  1.0000
  H   H404      1.0  0.13857  0.01050  0.50118  1.0000
  C   C509      1.0  0.19271  0.15491  0.48823  1.0000
  H   H405      1.0  0.03422  0.23569  0.67917  1.0000
  S   S61       1.0  0.18070  0.10432  0.50584  1.0000
  S   S62       1.0  0.13383  0.09213  0.51225  1.0000
  H   H406      1.0  0.04448  0.15868  0.47010  1.0000
  S   S63       1.0  0.13784  0.28610  0.69451  1.0000
  H   H407      1.0  0.99084  0.21636  0.54377  1.0000
  Fe  Fe34      1.0  0.09866  0.27569  0.67771  1.0000
  S   S64       1.0  0.11154  0.29981  0.66346  1.0000
  S   S65       1.0  0.07460  0.26934  0.67070  1.0000
  Fe  Fe35      1.0  0.13826  0.28067  0.66723  1.0000
  S   S66       1.0  0.16347  0.28236  0.64492  1.0000
  Fe  Fe36      1.0  0.11015  0.30355  0.69161  1.0000
  H   H408      1.0  0.06563  0.35262  0.68843  1.0000
  S   S67       1.0  0.12548  0.25605  0.67862  1.0000
  C   C510      1.0  0.00529  0.13426  0.69532  1.0000
  C   C511      1.0  0.02523  0.42960  0.61277  1.0000
  H   H409      1.0  0.03049  0.11624  0.70075  1.0000
  Fe  Fe37      1.0  0.07641  0.18792  0.58175  1.0000
  S   S68       1.0  0.07333  0.19367  0.60945  1.0000
  S   S69       1.0  0.09575  0.16191  0.57618  1.0000
  Fe  Fe38      1.0  0.05107  0.22360  0.56947  1.0000
  S   S70       1.0  0.04580  0.23220  0.59634  1.0000
  S   S71       1.0  0.04155  0.24386  0.54550  1.0000
  Fe  Fe39      1.0  0.07605  0.22206  0.59490  1.0000
  S   S72       1.0  0.09623  0.23623  0.59975  1.0000
  Fe  Fe40      1.0  0.04343  0.20298  0.60841  1.0000
  S   S73       1.0  0.02369  0.19392  0.63430  1.0000
  S   S74       1.0  0.08163  0.21558  0.56716  1.0000
  S   S75       1.0  0.04629  0.19513  0.58160  1.0000
  C   C512      1.0  0.02186  0.24300  0.53827  1.0000
  C   C513      1.0  0.01299  0.22821  0.54514  1.0000
  C   C514      1.0  0.01504  0.25757  0.52518  1.0000
  H   H410      1.0  0.01805  0.21705  0.55540  1.0000
  H   H411      1.0  0.08791  0.41731  0.58465  1.0000
  H   H412      1.0  0.13602  0.43371  0.67293  1.0000
  H   H413      1.0  0.04025  0.08273  0.60027  1.0000
  H   H414      1.0  0.03505  0.30003  0.71332  1.0000
  C   C515      1.0  0.00804  0.18176  0.63212  1.0000
  C   C516      1.0  0.00457  0.18217  0.61509  1.0000
  H   H415      1.0  0.98739  0.07419  0.63195  1.0000
  H   H416      1.0  0.15908  0.33555  0.69205  1.0000
  Fe  Fe41      1.0  0.08007  0.97797  0.51658  1.0000
  H   H417      1.0  0.01144  0.19012  0.60293  1.0000
  H   H418      1.0  0.12517  0.32368  0.59117  1.0000
  C   C517      1.0  0.08082  0.25968  0.65126  1.0000
  C   C518      1.0  0.06765  0.25350  0.64599  1.0000
  C   C519      1.0  0.07234  0.24597  0.63032  1.0000
  C   C520      1.0  0.09010  0.24496  0.61972  1.0000
  C   C521      1.0  0.10322  0.25124  0.62493  1.0000
  C   C522      1.0  0.09866  0.25839  0.64081  1.0000
  H   H419      1.0  0.05380  0.25465  0.65396  1.0000
  H   H420      1.0  0.06214  0.24123  0.62626  1.0000
  H   H421      1.0  0.11695  0.25055  0.61668  1.0000
  H   H422      1.0  0.10885  0.26325  0.64473  1.0000
  C   C523      1.0  0.09032  0.14009  0.52864  1.0000
  H   H423      1.0  0.03874  0.44154  0.56674  1.0000
  C   C524      1.0  0.09327  0.15368  0.55797  1.0000
  C   C525      1.0  0.07907  0.16209  0.54850  1.0000
  C   C526      1.0  0.07740  0.15508  0.53405  1.0000
  H   H424      1.0  0.06944  0.17401  0.55226  1.0000
  H   H425      1.0  0.06631  0.16149  0.52684  1.0000
  C   C527      1.0  0.09196  0.01942  0.50784  1.0000
  C   C528      1.0  0.09118  0.40336  0.59195  1.0000
  H   H426      1.0  0.13652  0.15813  0.57503  1.0000
  Fe  Fe42      1.0  0.06887  0.44283  0.61806  1.0000
  C   C529      1.0  0.98658  0.30298  0.55257  1.0000
  H   H427      1.0  0.01580  0.31134  0.52380  1.0000
  S   S76       1.0  0.07322  0.00844  0.51383  1.0000
  H   H428      1.0  0.21023  0.39105  0.57084  1.0000
  Fe  Fe43      1.0  0.15633  0.10581  0.49384  1.0000
  H   H429      1.0  0.16547  0.19473  0.50182  1.0000
  C   C530      1.0  0.19826  0.20467  0.52731  1.0000
  H   H430      1.0  0.04280  0.31565  0.58107  1.0000
  H   H431      1.0  0.14996  0.21142  0.55395  1.0000
  C   C531      1.0  0.21546  0.24553  0.66214  1.0000
  C   C532      1.0  0.19811  0.24234  0.67186  1.0000
  C   C533      1.0  0.18209  0.25375  0.66680  1.0000
  C   C534      1.0  0.18336  0.26824  0.65180  1.0000
  C   C535      1.0  0.20068  0.27150  0.64212  1.0000
  C   C536      1.0  0.21671  0.26034  0.64743  1.0000
  H   H432      1.0  0.19707  0.23097  0.68330  1.0000
  H   H433      1.0  0.16876  0.25118  0.67437  1.0000
  H   H434      1.0  0.20170  0.28275  0.63061  1.0000
  C   C537      1.0  0.10994  0.00936  0.50617  1.0000
  C   C538      1.0  0.11683  0.37763  0.65197  1.0000
  C   C539      1.0  0.10415  0.38147  0.66768  1.0000
  C   C540      1.0  0.09933  0.36720  0.68201  1.0000
  C   C541      1.0  0.10690  0.34904  0.68060  1.0000
  C   C542      1.0  0.11948  0.34521  0.66480  1.0000
  C   C543      1.0  0.12440  0.35950  0.65050  1.0000
  H   H435      1.0  0.09819  0.39546  0.66887  1.0000
  H   H436      1.0  0.08948  0.37029  0.69405  1.0000
  H   H437      1.0  0.12566  0.33127  0.66371  1.0000
  H   H438      1.0  0.13409  0.35653  0.63832  1.0000
  H   H439      1.0  0.02914  0.42951  0.62528  1.0000
  C   C544      1.0  0.01838  0.33807  0.50823  1.0000
  H   H440      1.0  0.20817  0.44459  0.51787  1.0000
  H   H441      1.0  0.21646  0.45947  0.56474  1.0000
  H   H442      1.0  0.15656  0.01008  0.46528  1.0000
  C   C545      1.0  0.19112  0.12321  0.50135  1.0000
  C   C546      1.0  0.00922  0.42353  0.61332  1.0000
  H   H443      1.0  0.18951  0.21201  0.48481  1.0000
  C   C547      1.0  0.16668  0.15364  0.54477  1.0000
  C   C548      1.0  0.18460  0.19488  0.53705  1.0000
  C   C549      1.0  0.15660  0.14023  0.54661  1.0000
  C   C550      1.0  0.16499  0.12180  0.54934  1.0000
  C   C551      1.0  0.18347  0.11657  0.55058  1.0000
  C   C552      1.0  0.19359  0.12979  0.54904  1.0000
  C   C553      1.0  0.18527  0.14826  0.54603  1.0000
  H   H444      1.0  0.18362  0.18986  0.55154  1.0000
  H   H445      1.0  0.20784  0.20701  0.53426  1.0000
  H   H446      1.0  0.14230  0.14402  0.54561  1.0000
  H   H447      1.0  0.15729  0.11161  0.54998  1.0000
  H   H448      1.0  0.19005  0.10233  0.55211  1.0000
  H   H449      1.0  0.20812  0.12580  0.54937  1.0000
  H   H450      1.0  0.19350  0.15822  0.54427  1.0000
  C   C554      1.0  0.13670  0.32238  0.61422  1.0000
  C   C555      1.0  0.16352  0.33607  0.60769  1.0000
  C   C556      1.0  0.15049  0.32677  0.62019  1.0000
  P   P18       1.0  0.18129  0.34237  0.61497  1.0000
  C   C557      1.0  0.17565  0.34070  0.63944  1.0000
  C   C558      1.0  0.16863  0.35622  0.64725  1.0000
  C   C559      1.0  0.16283  0.35434  0.66618  1.0000
  C   C560      1.0  0.16421  0.33702  0.67745  1.0000
  C   C561      1.0  0.17175  0.32156  0.66983  1.0000
  C   C562      1.0  0.17757  0.32339  0.65093  1.0000
  C   C563      1.0  0.18208  0.36549  0.60272  1.0000
  C   C564      1.0  0.16574  0.37864  0.60335  1.0000
  C   C565      1.0  0.16544  0.39611  0.59257  1.0000
  C   C566      1.0  0.03058  0.43642  0.57978  1.0000
  C   C567      1.0  0.19787  0.38762  0.58013  1.0000
  C   C568      1.0  0.19820  0.37009  0.59098  1.0000
  H   H451      1.0  0.12674  0.31518  0.62399  1.0000
  H   H452      1.0  0.15077  0.32289  0.63458  1.0000
  H   H453      1.0  0.16688  0.36976  0.63890  1.0000
  H   H454      1.0  0.15652  0.36629  0.67205  1.0000
  H   H455      1.0  0.21375  0.03922  0.58293  1.0000
  H   H456      1.0  0.17260  0.30808  0.67849  1.0000
  H   H457      1.0  0.15314  0.37531  0.61214  1.0000
  H   H458      1.0  0.15267  0.40611  0.59335  1.0000
  H   H459      1.0  0.21896  0.13671  0.58692  1.0000
  H   H460      1.0  0.21090  0.36012  0.58976  1.0000
  S   S77       1.0  0.09935  0.44100  0.60892  1.0000
  H   H461      1.0  0.02060  0.36599  0.49619  1.0000
  H   H462      1.0  0.18121  0.41415  0.57247  1.0000
  C   C569      1.0  0.22035  0.45916  0.55032  1.0000
  C   C570      1.0  0.02153  0.35950  0.52470  1.0000
  C   C571      1.0  0.00380  0.42403  0.59711  1.0000
  H   H463      1.0  0.98897  0.17321  0.60062  1.0000
  C   C572      1.0  0.12470  0.01833  0.50209  1.0000
  H   H464      1.0  0.09271  0.20083  0.52894  1.0000
  C   C573      1.0  0.10576  0.13833  0.55295  1.0000
  H   H465      1.0  0.07276  0.29638  0.58599  1.0000
  H   H466      1.0  0.10897  0.21480  0.65468  1.0000
  C   C574      1.0  0.14518  0.21115  0.67411  1.0000
  C   C575      1.0  0.15505  0.21350  0.64129  1.0000
  C   C576      1.0  0.15907  0.21213  0.65840  1.0000
  P   P19       1.0  0.17221  0.21659  0.62054  1.0000
  C   C577      1.0  0.17662  0.19857  0.60807  1.0000
  C   C578      1.0  0.19160  0.19755  0.59327  1.0000
  H   H467      1.0  0.10300  0.00185  0.46791  1.0000
  C   C579      1.0  0.18478  0.17026  0.58883  1.0000
  C   C580      1.0  0.16999  0.17104  0.60366  1.0000
  C   C581      1.0  0.16593  0.18510  0.61331  1.0000
  C   C582      1.0  0.19412  0.21637  0.62529  1.0000
  C   C583      1.0  0.20234  0.23170  0.61892  1.0000
  C   C584      1.0  0.19564  0.18346  0.58372  1.0000
  H   H468      1.0  0.23264  0.97657  0.61426  1.0000
  C   C585      1.0  0.99867  0.17168  0.64783  1.0000
  H   H469      1.0  0.18697  0.16808  0.48084  1.0000
  H   H470      1.0  0.14826  0.21054  0.68723  1.0000
  H   H471      1.0  0.17271  0.21240  0.65968  1.0000
  H   H472      1.0  0.00180  0.38092  0.58888  1.0000
  H   H473      1.0  0.17142  0.14195  0.48660  1.0000
  H   H474      1.0  0.16671  0.45146  0.63404  1.0000
  H   H475      1.0  0.16160  0.16078  0.60763  1.0000
  H   H476      1.0  0.15453  0.18527  0.62483  1.0000
  H   H477      1.0  0.19553  0.24430  0.61149  1.0000
  H   H478      1.0  0.01378  0.39705  0.47096  1.0000
  H   H479      1.0  0.12482  0.46475  0.57119  1.0000
  C   C586      1.0  0.23143  0.13573  0.59151  1.0000
  C   C587      1.0  0.17839  0.41554  0.62009  1.0000
  Fe  Fe44      1.0  0.12269  0.26300  0.70577  1.0000
  H   H480      1.0  0.00497  0.02902  0.57963  1.0000
  S   S78       1.0  0.22028  0.17087  0.48986  1.0000
  C   C588      1.0  0.01095  0.22813  0.69953  1.0000
  H   H481      1.0  0.01086  0.06500  0.58043  1.0000
  H   H482      1.0  0.99739  0.12852  0.61277  1.0000
  H   H483      1.0  0.00513  0.01409  0.63674  1.0000
  C   C589      1.0  0.22223  0.08203  0.56530  1.0000
  C   C590      1.0  0.16667  0.46065  0.58057  1.0000
  H   H484      1.0  0.02158  0.03386  0.50870  1.0000
  C   C591      1.0  0.00132  0.46911  0.47938  1.0000
  H   H485      1.0  0.00952  0.23904  0.70654  1.0000
  C   C592      1.0  0.18550  0.05696  0.52957  1.0000
  C   C593      1.0  0.20007  0.06124  0.53437  1.0000
  C   C594      1.0  0.99106  0.33882  0.57882  1.0000
  C   C595      1.0  0.15261  0.99726  0.46675  1.0000
  C   C596      1.0  0.20625  0.07922  0.59688  1.0000
  H   H486      1.0  0.10718  0.98968  0.58455  1.0000
  H   H487      1.0  0.11001  0.42244  0.69569  1.0000
  C   C597      1.0  0.07264  0.18886  0.68456  1.0000
  C   C598      1.0  0.20597  0.06107  0.59757  1.0000
  H   H488      1.0  0.14119  0.28550  0.58156  1.0000
  C   C599      1.0  0.12642  0.17285  0.50519  1.0000
  C   C600      1.0  0.12519  0.44313  0.67977  1.0000
  P   P20       1.0  0.98493  0.18627  0.70424  1.0000
  C   C601      1.0  0.10434  0.02705  0.55484  1.0000
  C   C602      1.0  0.10916  0.18345  0.51054  1.0000
  C   C603      1.0  0.01550  0.15886  0.70998  1.0000
  H   H489      1.0  0.03819  0.00046  0.56786  1.0000
  H   H490      1.0  0.10385  0.00293  0.54608  1.0000
  S   S79       1.0  0.23234  0.16008  0.53776  1.0000
  Fe  Fe45      1.0  0.98440  0.41758  0.53105  1.0000
  H   H491      1.0  0.17484  0.06777  0.52451  1.0000
  H   H492      1.0  0.20035  0.07545  0.53313  1.0000
  H   H493      1.0  0.21591  0.98018  0.65268  1.0000
  P   P21       1.0  0.23297  0.05328  0.54647  1.0000
  H   H494      1.0  0.20028  0.08514  0.60886  1.0000
  C   C604      1.0  0.99046  0.10213  0.62300  1.0000
  C   C605      1.0  0.00021  0.97543  0.69179  1.0000
  H   H495      1.0  0.23036  0.10934  0.60895  1.0000
  H   H496      1.0  0.17350  0.03556  0.52715  1.0000
  H   H497      1.0  0.13416  0.45531  0.63180  1.0000
  C   C606      1.0  0.12704  0.17686  0.59316  1.0000
  C   C607      1.0  0.21059  0.45115  0.54255  1.0000
  C   C608      1.0  0.02672  0.21228  0.67496  1.0000
  H   H498      1.0  0.12752  0.37093  0.60379  1.0000
  C   C609      1.0  0.02060  0.34617  0.54076  1.0000
  H   H499      1.0  0.21085  0.21808  0.50083  1.0000
  H   H500      1.0  0.13351  0.22040  0.58309  1.0000
  C   C610      1.0  0.07704  0.39397  0.60104  1.0000
  H   H501      1.0  0.16946  0.42283  0.61067  1.0000
  H   H502      1.0  0.07026  0.00797  0.55193  1.0000
  S   S80       1.0  0.98908  0.39483  0.55513  1.0000
  P   P22       1.0  0.15575  0.17748  0.54074  1.0000
  C   C611      1.0  0.01350  0.37782  0.59531  1.0000
  C   C612      1.0  0.01466  0.43030  0.58033  1.0000
  C   C613      1.0  0.01688  0.00445  0.67155  1.0000
  S   S81       1.0  0.10041  0.44135  0.65097  1.0000
  H   H503      1.0  0.98854  0.15511  0.55675  1.0000
  H   H504      1.0  0.19765  0.01076  0.53916  1.0000
  C   C614      1.0  0.00682  0.31369  0.59870  1.0000
  S   S82       1.0  0.14062  0.04794  0.49389  1.0000
  C   C615      1.0  0.11351  0.37723  0.60267  1.0000
  C   C616      1.0  0.12302  0.21356  0.65582  1.0000
  C   C617      1.0  0.99882  0.16369  0.70393  1.0000
  H   H505      1.0  0.11249  0.99466  0.50829  1.0000
  C   C618      1.0  0.02480  0.00810  0.52754  1.0000
  H   H506      1.0  0.15925  0.25239  0.62975  1.0000
  H   H507      1.0  0.02292  0.37308  0.52485  1.0000
  C   C619      1.0  0.18150  0.40061  0.58091  1.0000
  H   H508      1.0  0.19765  0.18814  0.63934  1.0000
  H   H509      1.0  0.15586  0.40965  0.64224  1.0000
  C   C620      1.0  0.00885  0.43624  0.48921  1.0000
  C   C621      1.0  0.14422  0.20141  0.56499  1.0000
  C   C622      1.0  0.20507  0.31328  0.60036  1.0000
  C   C623      1.0  0.17427  0.19765  0.50919  1.0000
  H   H510      1.0  0.00032  0.31526  0.62712  1.0000
  C   C624      1.0  0.14966  0.45666  0.58144  1.0000
  H   H511      1.0  0.05550  0.32223  0.70595  1.0000
  C   C625      1.0  0.20106  0.39808  0.64509  1.0000
  C   C626      1.0  0.01081  0.37398  0.61431  1.0000
  C   C627      1.0  0.20714  0.12105  0.50785  1.0000
  H   H512      1.0  0.00088  0.41865  0.62634  1.0000
  Fe  Fe46      1.0  0.09573  0.46184  0.62556  1.0000
  H   H513      1.0  0.02317  0.01581  0.66371  1.0000
  H   H514      1.0  0.19888  0.44554  0.55085  1.0000
  H   H515      1.0  0.07490  0.04626  0.50650  1.0000
  C   C628      1.0  0.01733  0.32474  0.52428  1.0000
  C   C629      1.0  0.21970  0.23086  0.62208  1.0000
  S   S83       1.0  0.13713  0.13002  0.48148  1.0000
  C   C630      1.0  0.19843  0.02486  0.53769  1.0000
  C   C631      1.0  0.99441  0.26629  0.56954  1.0000
  C   C632      1.0  0.01214  0.01873  0.62291  1.0000
  H   H516      1.0  0.99437  0.26866  0.50881  1.0000
  C   C633      1.0  0.16263  0.34064  0.58910  1.0000
  H   H517      1.0  0.02173  0.26912  0.51998  1.0000
  C   C634      1.0  0.18784  0.20760  0.49948  1.0000
  C   C635      1.0  0.01336  0.09108  0.56338  1.0000
  C   C636      1.0  0.00393  0.32238  0.58108  1.0000
  C   C637      1.0  0.21433  0.08969  0.58073  1.0000
  C   C638      1.0  0.99092  0.24236  0.52531  1.0000
  C   C639      1.0  0.08881  0.03847  0.50518  1.0000
  C   C640      1.0  0.07328  0.20721  0.67742  1.0000
  C   C641      1.0  0.14881  0.33624  0.58319  1.0000
  C   C642      1.0  0.02081  0.98828  0.66511  1.0000
  H   H518      1.0  0.22828  0.09050  0.55295  1.0000
  C   C643      1.0  0.00874  0.17111  0.55371  1.0000
  C   C644      1.0  0.02467  0.17189  0.55882  1.0000
  C   C645      1.0  0.03264  0.15735  0.57112  1.0000
  C   C646      1.0  0.02476  0.14187  0.57846  1.0000
  C   C647      1.0  0.00901  0.14100  0.57284  1.0000
  P   P23       1.0  0.03575  0.12289  0.59377  1.0000
  C   C648      1.0  0.04213  0.13193  0.61024  1.0000
  C   C649      1.0  0.02042  0.10728  0.60535  1.0000
  P   P24       1.0  0.23357  0.40342  0.62032  1.0000
  H   H519      1.0  0.00571  0.97480  0.57379  1.0000
  H   H520      1.0  0.14473  0.44578  0.59197  1.0000
  H   H521      1.0  0.04029  0.97733  0.59552  1.0000
  C   C650      1.0  0.00229  0.11402  0.61352  1.0000
  C   C651      1.0  0.05826  0.13898  0.60544  1.0000
  C   C652      1.0  0.06303  0.14665  0.61770  1.0000
  C   C653      1.0  0.05183  0.14727  0.63491  1.0000
  C   C654      1.0  0.03601  0.13991  0.64000  1.0000
  C   C655      1.0  0.03105  0.13241  0.62771  1.0000
  C   C656      1.0  0.05625  0.11108  0.58083  1.0000
  C   C657      1.0  0.05784  0.11189  0.56218  1.0000
  C   C658      1.0  0.07357  0.10239  0.55233  1.0000
  C   C659      1.0  0.08806  0.09250  0.56084  1.0000
  C   C660      1.0  0.08661  0.09159  0.57942  1.0000
  C   C661      1.0  0.07068  0.10070  0.58944  1.0000
  H   H522      1.0  0.01593  0.30052  0.60093  1.0000
  H   H523      1.0  0.18782  0.15945  0.58129  1.0000
  H   H524      1.0  0.03084  0.18380  0.55326  1.0000
  H   H525      1.0  0.04498  0.15826  0.57482  1.0000
  H   H526      1.0  0.00283  0.12913  0.57784  1.0000
  H   H527      1.0  0.00141  0.17121  0.66097  1.0000
  H   H528      1.0  0.04586  0.09901  0.52481  1.0000
  C   C662      1.0  0.13669  0.17150  0.57683  1.0000
  H   H529      1.0  0.03728  0.21094  0.66278  1.0000
  H   H530      1.0  0.22325  0.01806  0.54789  1.0000
  H   H531      1.0  0.06707  0.13889  0.59207  1.0000
  H   H532      1.0  0.07527  0.15243  0.61366  1.0000
  H   H533      1.0  0.05517  0.15381  0.64415  1.0000
  H   H534      1.0  0.02720  0.14058  0.65328  1.0000
  H   H535      1.0  0.01842  0.12740  0.63194  1.0000
  H   H536      1.0  0.04713  0.12010  0.55511  1.0000
  H   H537      1.0  0.07482  0.10325  0.53788  1.0000
  H   H538      1.0  0.10055  0.08590  0.55288  1.0000
  H   H539      1.0  0.09794  0.08409  0.58599  1.0000
  H   H540      1.0  0.06973  0.09988  0.60384  1.0000
  H   H541      1.0  0.07241  0.40064  0.71173  1.0000
  C   C663      1.0  0.09641  0.46767  0.69620  1.0000
  H   H542      1.0  0.14571  0.28219  0.61309  1.0000
  H   H543      1.0  0.04520  0.38211  0.69327  1.0000
  S   S84       1.0  0.05558  0.44479  0.59439  1.0000
  H   H544      1.0  0.12863  0.16544  0.49442  1.0000
  H   H545      1.0  0.21678  0.33891  0.62397  1.0000
  H   H546      1.0  0.01063  0.43071  0.56777  1.0000
  H   H547      1.0  0.06295  0.40091  0.60073  1.0000
  Fe  Fe47      1.0  0.10149  0.42066  0.63492  1.0000
  H   H548      1.0  0.09799  0.18414  0.50401  1.0000
  C   C664      1.0  0.18474  0.03879  0.53107  1.0000
  H   H549      1.0  0.13627  0.46644  0.66433  1.0000
  C   C665      1.0  0.09606  0.44909  0.70057  1.0000
  C   C666      1.0  0.05975  0.36179  0.67732  1.0000
  C   C667      1.0  0.06550  0.29330  0.57721  1.0000
  C   C668      1.0  0.02490  0.02671  0.52177  1.0000
  C   C669      1.0  0.19991  0.21098  0.50850  1.0000
  C   C670      1.0  0.14066  0.17144  0.51403  1.0000
  H   H550      1.0  0.02920  0.42215  0.46993  1.0000
  C   C671      1.0  0.15277  0.25730  0.58045  1.0000
  C   C672      1.0  0.20886  0.15264  0.49463  1.0000
  C   C673      1.0  0.02180  0.12953  0.70146  1.0000
  H   H551      1.0  0.01914  0.06195  0.61700  1.0000
  C   C674      1.0  0.09569  0.01462  0.55167  1.0000
  H   H552      1.0  0.02146  0.00081  0.51894  1.0000
  C   C675      1.0  0.01448  0.07650  0.61592  1.0000
  C   C676      1.0  0.13686  0.21444  0.64011  1.0000
  H   H553      1.0  0.11642  0.13150  0.56058  1.0000
  C   C677      1.0  0.01247  0.97378  0.67524  1.0000
  C   C678      1.0  0.07652  0.01761  0.55494  1.0000
  C   C679      1.0  0.01861  0.07213  0.56820  1.0000
  C   C680      1.0  0.99952  0.25733  0.51885  1.0000
  H   H554      1.0  0.00249  0.18250  0.54432  1.0000
  H   H555      1.0  0.03687  0.01991  0.63053  1.0000
  H   H556      1.0  0.20308  0.41975  0.60058  1.0000
  C   C681      1.0  0.14986  0.27058  0.60649  1.0000
  C   C682      1.0  0.19748  0.41369  0.61445  1.0000
  C   C683      1.0  0.22238  0.06369  0.56601  1.0000
  C   C684      1.0  0.02996  0.02197  0.61937  1.0000
  S   S85       1.0  0.09486  0.28096  0.70572  1.0000
  C   C685      1.0  0.03892  0.02775  0.60142  1.0000
  C   C686      1.0  0.03010  0.03019  0.58689  1.0000
  C   C687      1.0  0.11054  0.43678  0.69256  1.0000
  P   P25       1.0  0.04107  0.03828  0.56367  1.0000
  C   C688      1.0  0.06580  0.03323  0.56122  1.0000
  H   H557      1.0  0.20028  0.20760  0.58911  1.0000
  C   C689      1.0  0.09380  0.04232  0.56167  1.0000
  C   C690      1.0  0.07461  0.04543  0.56486  1.0000
  C   C691      1.0  0.04352  0.07255  0.54169  1.0000
  C   C692      1.0  0.03469  0.02665  0.54934  1.0000
  C   C693      1.0  0.03437  0.00797  0.55509  1.0000
  C   C694      1.0  0.21427  0.04737  0.54033  1.0000
  C   C695      1.0  0.13766  0.18046  0.52849  1.0000
  S   S86       1.0  0.00611  0.41599  0.50531  1.0000
  H   H558      1.0  0.21263  0.10805  0.51568  1.0000
  C   C696      1.0  0.15892  0.98263  0.47998  1.0000
  H   H559      1.0  0.05269  0.03019  0.59895  1.0000
  H   H560      1.0  0.07049  0.16779  0.70855  1.0000
  H   H561      1.0  0.07543  0.14535  0.47706  1.0000
  C   C697      1.0  0.21392  0.05335  0.58217  1.0000
  H   H562      1.0  0.06669  0.05755  0.56980  1.0000
  H   H563      1.0  0.05533  0.06556  0.53322  1.0000
  C   C698      1.0  0.00043  0.20208  0.69654  1.0000
  H   H564      1.0  0.01628  0.18940  0.67395  1.0000
  S   S87       1.0  0.06494  0.46555  0.63289  1.0000
  C   C699      1.0  0.02986  0.03597  0.53260  1.0000
  C   C700      1.0  0.18201  0.39963  0.65056  1.0000
  C   C701      1.0  0.10941  0.39499  0.59271  1.0000
  H   H565      1.0  0.11962  0.16763  0.60369  1.0000
  H   H566      1.0  0.14814  0.33993  0.56885  1.0000
  C   C702      1.0  0.16324  0.23845  0.60759  1.0000
  H   H567      1.0  0.11633  0.21168  0.68494  1.0000
  H   H568      1.0  0.16463  0.22881  0.58317  1.0000
  C   C703      1.0  0.99371  0.15114  0.69679  1.0000
  C   C704      1.0  0.03585  0.43624  0.59596  1.0000
  C   C705      1.0  0.02689  0.14181  0.70882  1.0000
  Fe  Fe48      1.0  0.13634  0.07860  0.48905  1.0000
  C   C706      1.0  0.18384  0.14018  0.49156  1.0000
  C   C707      1.0  0.10458  0.13181  0.53803  1.0000
  C   C708      1.0  0.02955  0.99874  0.54419  1.0000
  C   C709      1.0  0.01468  0.20014  0.68125  1.0000
  H   H569      1.0  0.07053  0.01612  0.47643  1.0000
  C   C710      1.0  0.21815  0.32856  0.61629  1.0000
  H   H570      1.0  0.01717  0.33498  0.49571  1.0000
  C   C711      1.0  0.99607  0.99165  0.69830  1.0000
  H   H571      1.0  0.11757  0.19840  0.54469  1.0000
  H   H572      1.0  0.01902  0.11543  0.54396  1.0000
  C   C712      1.0  0.22885  0.21488  0.63176  1.0000
  H   H573      1.0  0.11447  0.12014  0.53407  1.0000
  H   H574      1.0  0.17503  0.45290  0.59039  1.0000
  C   C713      1.0  0.21597  0.13571  0.50454  1.0000
  C   C714      1.0  0.12614  0.19438  0.59550  1.0000
  H   H575      1.0  0.07269  0.23295  0.68360  1.0000
  C   C715      1.0  0.01214  0.02706  0.59060  1.0000
  H   H576      1.0  0.11921  0.02497  0.55173  1.0000
  H   H577      1.0  0.07448  0.21254  0.66287  1.0000
  S   S88       1.0  0.05497  0.44185  0.68684  1.0000
  C   C716      1.0  0.20309  0.32709  0.60993  1.0000
  H   H578      1.0  0.18288  0.31120  0.64526  1.0000
  C   C717      1.0  0.03817  0.09148  0.53687  1.0000
  C   C718      1.0  0.08113  0.37597  0.61067  1.0000
  C   C719      1.0  0.09940  0.36789  0.61194  1.0000
  P   P26       1.0  0.06299  0.36404  0.62312  1.0000
  C   C720      1.0  0.06988  0.34003  0.62302  1.0000
  C   C721      1.0  0.05686  0.36920  0.64560  1.0000
  C   C722      1.0  0.04540  0.38591  0.64841  1.0000
  C   C723      1.0  0.04109  0.39047  0.66560  1.0000
  C   C724      1.0  0.04824  0.37840  0.68006  1.0000
  C   C725      1.0  0.14738  0.27241  0.58878  1.0000
  C   C726      1.0  0.06436  0.35732  0.66008  1.0000
  C   C727      1.0  0.08244  0.33393  0.60806  1.0000
  C   C728      1.0  0.08642  0.31552  0.60709  1.0000
  C   C729      1.0  0.07758  0.30317  0.62081  1.0000
  C   C730      1.0  0.06485  0.30918  0.63556  1.0000
  C   C731      1.0  0.06093  0.32755  0.63665  1.0000
  C   C732      1.0  0.04350  0.37080  0.61223  1.0000
  C   C733      1.0  0.04610  0.37466  0.59311  1.0000
  C   C734      1.0  0.03109  0.37830  0.58469  1.0000
  H   H579      1.0  0.02344  0.36708  0.63753  1.0000
  H   H580      1.0  0.00119  0.12468  0.68981  1.0000
  C   C735      1.0  0.02576  0.37033  0.62278  1.0000
  S   S89       1.0  0.08825  0.13148  0.51045  1.0000
  H   H581      1.0  0.10274  0.35449  0.62033  1.0000
  H   H582      1.0  0.04011  0.39560  0.63722  1.0000
  H   H583      1.0  0.03014  0.05028  0.52769  1.0000
  C   C736      1.0  0.99871  0.21612  0.70574  1.0000
  H   H584      1.0  0.17597  0.39441  0.66459  1.0000
  C   C737      1.0  0.13584  0.32712  0.59575  1.0000
  H   H585      1.0  0.08882  0.34346  0.59693  1.0000
  H   H586      1.0  0.09605  0.31083  0.59554  1.0000
  H   H587      1.0  0.08038  0.28898  0.61987  1.0000
  H   H588      1.0  0.05788  0.29959  0.64609  1.0000
  H   H589      1.0  0.05065  0.33204  0.64793  1.0000
  H   H590      1.0  0.05968  0.37481  0.58469  1.0000
  H   H591      1.0  0.03299  0.38174  0.56994  1.0000
  H   H592      1.0  0.02167  0.34951  0.55318  1.0000
  C   C738      1.0  0.00452  0.00618  0.68804  1.0000
  H   H593      1.0  0.15387  0.16294  0.50995  1.0000
  H   H594      1.0  0.20961  0.39192  0.65513  1.0000
  C   C739      1.0  0.14537  0.18372  0.56260  1.0000
  H   H595      1.0  0.02994  0.98422  0.54845  1.0000
  C   C740      1.0  0.01776  0.32890  0.54082  1.0000
  C   C741      1.0  0.13481  0.20661  0.58146  1.0000
  P   P27       1.0  0.01566  0.31194  0.56175  1.0000
  C   C742      1.0  0.07099  0.18204  0.70336  1.0000
  C   C743      1.0  0.03860  0.29956  0.56379  1.0000
  C   C744      1.0  0.04675  0.28509  0.55466  1.0000
  C   C745      1.0  0.06380  0.27437  0.55738  1.0000
  C   C746      1.0  0.07307  0.27831  0.56885  1.0000
  C   C747      1.0  0.04842  0.30406  0.57453  1.0000
  C   C748      1.0  0.02308  0.10074  0.54768  1.0000
  H   H596      1.0  0.15066  0.25868  0.56679  1.0000
  C   C749      1.0  0.07035  0.21208  0.70786  1.0000
  Fe  Fe49      1.0  0.06991  0.44318  0.65727  1.0000
  C   C750      1.0  0.99762  0.22784  0.53856  1.0000
  C   C751      1.0  0.04952  0.46174  0.69604  1.0000
  C   C752      1.0  0.20362  0.20020  0.63461  1.0000
  H   H597      1.0  0.07403  0.34480  0.65804  1.0000
  C   C753      1.0  0.99880  0.45322  0.49258  1.0000
  C   C754      1.0  0.00152  0.29658  0.56142  1.0000
  H   H598      1.0  0.20718  0.18287  0.57227  1.0000
  H   H599      1.0  0.11819  0.19872  0.60794  1.0000
  C   C755      1.0  0.10618  0.19282  0.52461  1.0000
  H   H600      1.0  0.03969  0.28171  0.54584  1.0000
  H   H601      1.0  0.06959  0.26273  0.55087  1.0000
  S   S90       1.0  0.16013  0.09085  0.47140  1.0000
  H   H602      1.0  0.22361  0.36721  0.63789  1.0000
  H   H603      1.0  0.07332  0.17994  0.67551  1.0000
  H   H604      1.0  0.17258  0.34771  0.57918  1.0000
  C   C756      1.0  0.10362  0.04747  0.50084  1.0000
  H   H605      1.0  0.10115  0.06216  0.49874  1.0000
  C   C757      1.0  0.99788  0.32193  0.61360  1.0000
  C   C758      1.0  0.23153  0.44711  0.64188  1.0000
  H   H606      1.0  0.98958  0.01840  0.61136  1.0000
  C   C759      1.0  0.16073  0.24036  0.58979  1.0000
  C   C760      1.0  0.02028  0.35550  0.50848  1.0000
  Fe  Fe50      1.0  0.11487  0.11508  0.49787  1.0000
  H   H607      1.0  0.13327  0.21637  0.62696  1.0000
  H   H608      1.0  0.22598  0.24272  0.61724  1.0000
  C   C761      1.0  0.12160  0.03737  0.49933  1.0000
  S   S91       1.0  0.10021  0.33140  0.69861  1.0000
  C   C762      1.0  0.17067  0.40829  0.63803  1.0000
  C   C763      1.0  0.20900  0.40463  0.62687  1.0000
  H   H609      1.0  0.01620  0.27293  0.57764  1.0000
  C   C764      1.0  0.12036  0.19137  0.53355  1.0000
  H   H610      1.0  0.19356  0.31144  0.59579  1.0000
  C   C765      1.0  0.03372  0.06270  0.55736  1.0000
  C   C766      1.0  0.12717  0.21185  0.67283  1.0000
  C   C767      1.0  0.17258  0.19116  0.52808  1.0000
  C   C768      1.0  0.02490  0.22625  0.68412  1.0000
  H   H611      1.0  0.12027  0.40248  0.58605  1.0000
  S   S92       1.0  0.07133  0.42058  0.64295  1.0000
  C   C769      1.0  0.02641  0.08838  0.60649  1.0000
  H   H612      1.0  0.08606  0.26967  0.57131  1.0000
  C   C770      1.0  0.15764  0.25364  0.61591  1.0000
  H   H613      1.0  0.19976  0.05290  0.61010  1.0000
  H   H614      1.0  0.99703  0.37422  0.62241  1.0000
  H   H615      1.0  0.00149  0.01893  0.69256  1.0000
  C   C771      1.0  0.07220  0.21875  0.68908  1.0000
  C   C772      1.0  0.00504  0.27823  0.57035  1.0000
  C   C773      1.0  0.00093  0.15566  0.56069  1.0000
  H   H616      1.0  0.99769  0.25199  0.57580  1.0000
  H   H617      1.0  0.10055  0.05194  0.56409  1.0000
  H   H618      1.0  0.03259  0.40358  0.66756  1.0000
  C   C774      1.0  0.22087  0.19951  0.63796  1.0000
  H   H619      1.0  0.22826  0.07026  0.50825  1.0000
  C   C775      1.0  0.99169  0.17270  0.61383  1.0000
  C   C776      1.0  0.23084  0.45800  0.51321  1.0000
  C   C777      1.0  0.22193  0.30123  0.59710  1.0000
  C   C778      1.0  0.22787  0.43547  0.63264  1.0000
  C   C779      1.0  0.00327  0.02124  0.60853  1.0000
  C   C780      1.0  0.02125  0.43521  0.47255  1.0000
  S   S93       1.0  0.11512  0.10026  0.47626  1.0000
  H   H620      1.0  0.03006  0.98698  0.65214  1.0000
  H   H621      1.0  0.98928  0.45413  0.50542  1.0000
  C   C781      1.0  0.21307  0.02910  0.54244  1.0000
  H   H622      1.0  0.08430  0.44434  0.70989  1.0000
  C   C782      1.0  0.21585  0.45057  0.52400  1.0000
  H   H623      1.0  0.22831  0.13385  0.50967  1.0000
  H   H624      1.0  0.21704  0.44044  0.62490  1.0000
  H   H625      1.0  0.21479  0.10371  0.58015  1.0000
  H   H626      1.0  0.16734  0.98443  0.48849  1.0000
  H   H627      1.0  0.00175  0.09825  0.57188  1.0000
  C   C783      1.0  0.99655  0.08337  0.62427  1.0000
  H   H628      1.0  0.98776  0.34529  0.56557  1.0000
  H   H629      1.0  0.22333  0.29038  0.59001  1.0000
  S   S94       1.0  0.00973  0.97124  0.62480  1.0000
  H   H630      1.0  0.03963  0.13806  0.71367  1.0000
  C   C784      1.0  0.13830  0.46759  0.56959  1.0000
  H   H631      1.0  0.08878  0.97646  0.57093  1.0000
  C   C785      1.0  0.98538  0.40881  0.47043  1.0000
  C   C786      1.0  0.14157  0.46615  0.62519  1.0000
  C   C787      1.0  0.00138  0.39560  0.46766  1.0000
  C   C788      1.0  0.07938  0.02313  0.46502  1.0000
  C   C789      1.0  0.16000  0.46397  0.62637  1.0000
  H   H632      1.0  0.22356  0.46090  0.64113  1.0000
  H   H633      1.0  0.23000  0.26307  0.64003  1.0000
  H   H634      1.0  0.22803  0.18712  0.64540  1.0000
  C   C790      1.0  0.98575  0.16223  0.64660  1.0000
  H   H635      1.0  0.98548  0.42041  0.47586  1.0000
  H   H636      1.0  0.98483  0.20672  0.66609  1.0000
  C   C791      1.0  0.98564  0.33867  0.61109  1.0000
  C   C792      1.0  0.10639  0.97541  0.58907  1.0000
  S   S95       1.0  0.01651  0.02985  0.93045  1.0000
  Fe  Fe51      1.0  0.04602  0.99853  0.87994  1.0000
  S   S96       1.0  0.05827  0.01600  0.85385  1.0000
  S   S97       1.0  0.01630  0.01058  0.88805  1.0000
  C   C793      1.0  0.98851  0.36526  0.86789  1.0000
  C   C794      1.0  0.18494  0.97720  0.87492  1.0000
  Fe  Fe52      1.0  0.21349  0.14236  0.92581  1.0000
  S   S98       1.0  0.19672  0.17059  0.92667  1.0000
  S   S99       1.0  0.20345  0.11697  0.94295  1.0000
  Fe  Fe53      1.0  0.20961  0.17713  0.89695  1.0000
  S   S100      1.0  0.19565  0.19631  0.87505  1.0000
  Fe  Fe54      1.0  0.22201  0.17688  0.93143  1.0000
  S   S101      1.0  0.22446  0.14839  0.89553  1.0000
  C   C795      1.0  0.12302  0.24625  0.74996  1.0000
  H   H637      1.0  0.12171  0.07555  0.81418  1.0000
  H   H638      1.0  0.01225  0.00961  0.84837  1.0000
  H   H639      1.0  0.98981  0.09823  0.92411  1.0000
  H   H640      1.0  0.00897  0.23551  0.77387  1.0000
  S   S102      1.0  0.21818  0.19293  0.95326  1.0000
  C   C796      1.0  0.04256  0.16170  0.74704  1.0000
  C   C797      1.0  0.01130  0.45453  0.93542  1.0000
  P   P28       1.0  0.06689  0.18531  0.73956  1.0000
  C   C798      1.0  0.02894  0.00744  0.79707  1.0000
  C   C799      1.0  0.14310  0.01834  0.83879  1.0000
  H   H641      1.0  0.07966  0.16551  0.77310  1.0000
  Fe  Fe55      1.0  0.04263  0.38499  0.92107  1.0000
  S   S103      1.0  0.01263  0.39813  0.92496  1.0000
  H   H642      1.0  0.09915  0.99988  0.84161  1.0000
  Fe  Fe56      1.0  0.04103  0.36799  0.88985  1.0000
  S   S104      1.0  0.01111  0.38004  0.89102  1.0000
  S   S105      1.0  0.05704  0.35205  0.86793  1.0000
  Fe  Fe57      1.0  0.01782  0.40540  0.89428  1.0000
  S   S106      1.0  0.00369  0.43249  0.87998  1.0000
  Fe  Fe58      1.0  0.00820  0.37175  0.92130  1.0000
  S   S107      1.0  0.04814  0.39427  0.89052  1.0000
  S   S108      1.0  0.03783  0.35770  0.92008  1.0000
  Fe  Fe59      1.0  0.06532  0.22708  0.84310  1.0000
  S   S109      1.0  0.09498  0.21738  0.83103  1.0000
  S   S110      1.0  0.04010  0.22199  0.83673  1.0000
  Fe  Fe60      1.0  0.07410  0.24938  0.86612  1.0000
  S   S111      1.0  0.10442  0.24144  0.85626  1.0000
  S   S112      1.0  0.06091  0.26658  0.88746  1.0000
  Fe  Fe61      1.0  0.09758  0.24617  0.82868  1.0000
  S   S113      1.0  0.11214  0.26383  0.80442  1.0000
  Fe  Fe62      1.0  0.09952  0.21328  0.85950  1.0000
  S   S114      1.0  0.11681  0.18725  0.87234  1.0000
  S   S115      1.0  0.06756  0.25628  0.83832  1.0000
  S   S116      1.0  0.06954  0.22075  0.87187  1.0000
  Fe  Fe63      1.0  0.00321  0.11329  0.82824  1.0000
  S   S117      1.0  0.02697  0.11410  0.80455  1.0000
  S   S118      1.0  0.00338  0.09229  0.85436  1.0000
  Fe  Fe64      1.0  0.11448  0.03918  0.94550  1.0000
  Fe  Fe65      1.0  0.00567  0.12224  0.78722  1.0000
  S   S119      1.0  0.01023  0.10980  0.76257  1.0000
  Fe  Fe66      1.0  0.02187  0.14387  0.80482  1.0000
  S   S120      1.0  0.04734  0.15528  0.80035  1.0000
  H   H643      1.0  0.04598  0.38091  0.83281  1.0000
  H   H644      1.0  0.01870  0.29571  0.80696  1.0000
  C   C800      1.0  0.00655  0.44747  0.78993  1.0000
  C   C801      1.0  0.05189  0.12892  0.75047  1.0000
  C   C802      1.0  0.19376  0.10425  0.93323  1.0000
  C   C803      1.0  0.00111  0.31790  0.91699  1.0000
  C   C804      1.0  0.16398  0.24219  0.78775  1.0000
  C   C805      1.0  0.11565  0.25690  0.78365  1.0000
  C   C806      1.0  0.21569  0.23517  0.84730  1.0000
  C   C807      1.0  0.07573  0.43367  0.86858  1.0000
  Fe  Fe67      1.0  0.01223  0.98182  0.89590  1.0000
  H   H645      1.0  0.11267  0.28435  0.76790  1.0000
  C   C808      1.0  0.04225  0.20275  0.82758  1.0000
  C   C809      1.0  0.05943  0.19195  0.82229  1.0000
  C   C810      1.0  0.06085  0.17731  0.81406  1.0000
  C   C811      1.0  0.04506  0.17309  0.81154  1.0000
  C   C812      1.0  0.02781  0.18348  0.81740  1.0000
  C   C813      1.0  0.02644  0.19837  0.82528  1.0000
  H   H646      1.0  0.07163  0.19488  0.82451  1.0000
  H   H647      1.0  0.07420  0.16919  0.80970  1.0000
  H   H648      1.0  0.01558  0.18031  0.81545  1.0000
  H   H649      1.0  0.01309  0.20657  0.82951  1.0000
  C   C814      1.0  0.05787  0.32833  0.87334  1.0000
  C   C815      1.0  0.04860  0.32001  0.89016  1.0000
  C   C816      1.0  0.04975  0.30106  0.89432  1.0000
  C   C817      1.0  0.05998  0.29030  0.88165  1.0000
  C   C818      1.0  0.06915  0.29860  0.86473  1.0000
  C   C819      1.0  0.06812  0.31758  0.86061  1.0000
  H   H650      1.0  0.04057  0.32815  0.90001  1.0000
  H   H651      1.0  0.04264  0.29472  0.90742  1.0000
  H   H652      1.0  0.07714  0.29038  0.85492  1.0000
  H   H653      1.0  0.07539  0.32393  0.84760  1.0000
  H   H654      1.0  0.17743  0.19933  0.81792  1.0000
  H   H655      1.0  0.03954  0.39564  0.80199  1.0000
  C   C820      1.0  0.03303  0.43238  0.85086  1.0000
  C   C821      1.0  0.01556  0.44134  0.85821  1.0000
  C   C822      1.0  0.09017  0.17279  0.76452  1.0000
  H   H656      1.0  0.05604  0.43327  0.82817  1.0000
  H   H657      1.0  0.03940  0.41965  0.85840  1.0000
  C   C823      1.0  0.11156  0.06763  0.81519  1.0000
  H   H658      1.0  0.99575  0.10342  0.89031  1.0000
  C   C824      1.0  0.16248  0.99189  0.89796  1.0000
  C   C825      1.0  0.07948  0.23648  0.75570  1.0000
  H   H659      1.0  0.98796  0.05560  0.84493  1.0000
  H   H660      1.0  0.09663  0.41800  0.75426  1.0000
  H   H661      1.0  0.09334  0.21132  0.76999  1.0000
  H   H662      1.0  0.15015  0.00162  0.90167  1.0000
  H   H663      1.0  0.11470  0.44177  0.73814  1.0000
  C   C826      1.0  0.99168  0.11669  0.75126  1.0000
  S   S121      1.0  0.00241  0.15217  0.78554  1.0000
  C   C827      1.0  0.17212  0.98139  0.91139  1.0000
  S   S122      1.0  0.16343  0.98278  0.93448  1.0000
  C   C828      1.0  0.04244  0.44006  0.83371  1.0000
  H   H664      1.0  0.07688  0.03800  0.81724  1.0000
  C   C829      1.0  0.99741  0.30467  0.90965  1.0000
  H   H665      1.0  0.03364  0.00669  0.78279  1.0000
  H   H666      1.0  0.05510  0.99411  0.80420  1.0000
  C   C830      1.0  0.17429  0.19295  0.87372  1.0000
  C   C831      1.0  0.16435  0.20551  0.86141  1.0000
  C   C832      1.0  0.14692  0.20352  0.86053  1.0000
  C   C833      1.0  0.13936  0.18898  0.87197  1.0000
  C   C834      1.0  0.14969  0.17597  0.88371  1.0000
  C   C835      1.0  0.16705  0.17805  0.88474  1.0000
  H   H667      1.0  0.17013  0.21684  0.85263  1.0000
  H   H668      1.0  0.13927  0.21330  0.85107  1.0000
  H   H669      1.0  0.14404  0.16465  0.89255  1.0000
  H   H670      1.0  0.17474  0.16822  0.89416  1.0000
  C   C836      1.0  0.18877  0.08795  0.94377  1.0000
  H   H671      1.0  0.13119  0.01204  0.84374  1.0000
  C   C837      1.0  0.01962  0.07180  0.85337  1.0000
  C   C838      1.0  0.02677  0.06543  0.83706  1.0000
  C   C839      1.0  0.03891  0.04842  0.83703  1.0000
  C   C840      1.0  0.04412  0.03791  0.85326  1.0000
  C   C841      1.0  0.03729  0.04460  0.86939  1.0000
  C   C842      1.0  0.02497  0.06136  0.86948  1.0000
  H   H672      1.0  0.02253  0.07335  0.82460  1.0000
  H   H673      1.0  0.04373  0.04319  0.82459  1.0000
  H   H674      1.0  0.04114  0.03664  0.88200  1.0000
  H   H675      1.0  0.01953  0.06618  0.88214  1.0000
  C   C843      1.0  0.03630  0.03543  0.93366  1.0000
  C   C844      1.0  0.05169  0.02208  0.93773  1.0000
  H   H676      1.0  0.99172  0.06032  0.90806  1.0000
  H   H677      1.0  0.05149  0.00786  0.93936  1.0000
  C   C845      1.0  0.98749  0.07624  0.79709  1.0000
  C   C846      1.0  0.06013  0.31680  0.73330  1.0000
  C   C847      1.0  0.02387  0.43071  0.76022  1.0000
  C   C848      1.0  0.04074  0.30207  0.72396  1.0000
  C   C849      1.0  0.11100  0.01177  0.89633  1.0000
  H   H678      1.0  0.08894  0.14814  0.74323  1.0000
  H   H679      1.0  0.04830  0.11571  0.75277  1.0000
  H   H680      1.0  0.03525  0.21934  0.78884  1.0000
  H   H681      1.0  0.08584  0.23348  0.74230  1.0000
  H   H682      1.0  0.05700  0.30978  0.83021  1.0000
  C   C850      1.0  0.10570  0.98751  0.84966  1.0000
  H   H683      1.0  0.07989  0.41968  0.87539  1.0000
  C   C851      1.0  0.06704  0.02709  0.94067  1.0000
  C   C852      1.0  0.08034  0.43864  0.84958  1.0000
  Fe  Fe68      1.0  0.02285  0.00679  0.91557  1.0000
  C   C853      1.0  0.08139  0.03026  0.89196  1.0000
  H   H684      1.0  0.00318  0.44775  0.94766  1.0000
  C   C854      1.0  0.03628  0.30347  0.81988  1.0000
  C   C855      1.0  0.11951  0.02222  0.88042  1.0000
  C   C856      1.0  0.10893  0.03626  0.86971  1.0000
  C   C857      1.0  0.08984  0.04060  0.87592  1.0000
  P   P29       1.0  0.11992  0.04954  0.84900  1.0000
  C   C858      1.0  0.12267  0.06960  0.85506  1.0000
  C   C859      1.0  0.14181  0.03645  0.83991  1.0000
  C   C860      1.0  0.15740  0.04437  0.83305  1.0000
  C   C861      1.0  0.12625  0.13500  0.90499  1.0000
  C   C862      1.0  0.99704  0.44871  0.77631  1.0000
  C   C863      1.0  0.11190  0.08678  0.84960  1.0000
  C   C864      1.0  0.11407  0.10212  0.85468  1.0000
  C   C865      1.0  0.12678  0.10036  0.86548  1.0000
  C   C866      1.0  0.13729  0.08325  0.87125  1.0000
  C   C867      1.0  0.13515  0.06790  0.86619  1.0000
  C   C868      1.0  0.10737  0.05438  0.83092  1.0000
  C   C869      1.0  0.09496  0.04359  0.83141  1.0000
  C   C870      1.0  0.17992  0.07806  0.93695  1.0000
  H   H685      1.0  0.06664  0.03354  0.89672  1.0000
  C   C871      1.0  0.08145  0.40329  0.81631  1.0000
  H   H686      1.0  0.06929  0.47017  0.91190  1.0000
  H   H687      1.0  0.13430  0.01933  0.87653  1.0000
  H   H688      1.0  0.08144  0.05179  0.86828  1.0000
  H   H689      1.0  0.15669  0.05847  0.83322  1.0000
  H   H690      1.0  0.11044  0.97134  0.92701  1.0000
  C   C872      1.0  0.11960  0.23841  0.78298  1.0000
  H   H691      1.0  0.10162  0.08834  0.84172  1.0000
  H   H692      1.0  0.10569  0.11532  0.85049  1.0000
  H   H693      1.0  0.12828  0.11216  0.86968  1.0000
  H   H694      1.0  0.14688  0.08182  0.87993  1.0000
  H   H695      1.0  0.14313  0.05469  0.87112  1.0000
  H   H696      1.0  0.09199  0.03275  0.84298  1.0000
  H   H697      1.0  0.12325  0.30691  0.92873  1.0000
  H   H698      1.0  0.17378  0.23475  0.81280  1.0000
  S   S123      1.0  0.98549  0.35741  0.93868  1.0000
  H   H699      1.0  0.04673  0.11990  0.96307  1.0000
  C   C873      1.0  0.07485  0.45666  0.84083  1.0000
  H   H700      1.0  0.98797  0.21790  0.71763  1.0000
  C   C874      1.0  0.03720  0.29166  0.74165  1.0000
  H   H701      1.0  0.00669  0.29814  0.77005  1.0000
  C   C875      1.0  0.04195  0.41254  0.95548  1.0000
  H   H702      1.0  0.03880  0.44800  0.72305  1.0000
  C   C876      1.0  0.10017  0.44562  0.74362  1.0000
  H   H703      1.0  0.12694  0.21879  0.76559  1.0000
  H   H704      1.0  0.07824  0.36742  0.72531  1.0000
  H   H705      1.0  0.18862  0.00764  0.82028  1.0000
  H   H706      1.0  0.21155  0.21648  0.76620  1.0000
  C   C877      1.0  0.03365  0.42977  0.77363  1.0000
  C   C878      1.0  0.00445  0.01626  0.82201  1.0000
  C   C879      1.0  0.20563  0.26084  0.82431  1.0000
  H   H707      1.0  0.03276  0.20773  0.72935  1.0000
  H   H708      1.0  0.15066  0.24934  0.79369  1.0000
  C   C880      1.0  0.01934  0.22262  0.75062  1.0000
  H   H709      1.0  0.16089  0.99719  0.86959  1.0000
  H   H710      1.0  0.12765  0.19955  0.73502  1.0000
  H   H711      1.0  0.99770  0.24138  0.81552  1.0000
  H   H712      1.0  0.99414  0.98747  0.78091  1.0000
  P   P30       1.0  0.05784  0.41958  0.77111  1.0000
  C   C881      1.0  0.01668  0.00917  0.83401  1.0000
  C   C882      1.0  0.06258  0.45566  0.75751  1.0000
  C   C883      1.0  0.01727  0.34791  0.85419  1.0000
  H   H713      1.0  0.98857  0.16525  0.74129  1.0000
  C   C884      1.0  0.11212  0.97292  0.95392  1.0000
  C   C885      1.0  0.07466  0.14733  0.74536  1.0000
  H   H714      1.0  0.98460  0.05925  0.87607  1.0000
  H   H715      1.0  0.18597  0.97756  0.77437  1.0000
  H   H716      1.0  0.06648  0.37917  0.77874  1.0000
  C   C886      1.0  0.03449  0.45672  0.82390  1.0000
  C   C887      1.0  0.18917  0.22805  0.92011  1.0000
  H   H717      1.0  0.07870  0.01676  0.94420  1.0000
  S   S124      1.0  0.12874  0.05697  0.95378  1.0000
  C   C888      1.0  0.07775  0.41188  0.79901  1.0000
  C   C889      1.0  0.15990  0.00807  0.83160  1.0000
  C   C890      1.0  0.00264  0.10182  0.91606  1.0000
  H   H718      1.0  0.11483  0.46351  0.94755  1.0000
  H   H719      1.0  0.09888  0.15271  0.94081  1.0000
  C   C891      1.0  0.01187  0.33172  0.86426  1.0000
  H   H720      1.0  0.04413  0.99544  0.83696  1.0000
  C   C892      1.0  0.04101  0.00031  0.80912  1.0000
  H   H721      1.0  0.17981  0.10465  0.89464  1.0000
  C   C893      1.0  0.00857  0.31276  0.93270  1.0000
  H   H722      1.0  0.06353  0.30794  0.76094  1.0000
  H   H723      1.0  0.03031  0.42451  0.74853  1.0000
  S   S125      1.0  0.08486  0.05277  0.94443  1.0000
  C   C894      1.0  0.98692  0.29174  0.86365  1.0000
  S   S126      1.0  0.99954  0.14258  0.82999  1.0000
  C   C895      1.0  0.06690  0.04542  0.93969  1.0000
  H   H724      1.0  0.09312  0.40539  0.82040  1.0000
  C   C896      1.0  0.06994  0.39219  0.82847  1.0000
  C   C897      1.0  0.00566  0.44023  0.76154  1.0000
  C   C898      1.0  0.05146  0.05863  0.93579  1.0000
  C   C899      1.0  0.08989  0.43221  0.75275  1.0000
  C   C900      1.0  0.08770  0.18360  0.74741  1.0000
  H   H725      1.0  0.05122  0.07280  0.93516  1.0000
  H   H726      1.0  0.10605  0.08090  0.78850  1.0000
  C   C901      1.0  0.11551  0.27004  0.76745  1.0000
  C   C902      1.0  0.99463  0.33219  0.87611  1.0000
  C   C903      1.0  0.17423  0.03401  0.82593  1.0000
  H   H727      1.0  0.03087  0.34747  0.84561  1.0000
  C   C904      1.0  0.17095  0.38170  0.96013  1.0000
  H   H728      1.0  0.07528  0.35698  0.75869  1.0000
  C   C905      1.0  0.16859  0.98941  0.87987  1.0000
  C   C906      1.0  0.19003  0.35544  0.94836  1.0000
  C   C907      1.0  0.99709  0.29419  0.87532  1.0000
  H   H729      1.0  0.01157  0.32307  0.93814  1.0000
  H   H730      1.0  0.99835  0.33220  0.91065  1.0000
  H   H731      1.0  0.16482  0.39607  0.95763  1.0000
  H   H732      1.0  0.03362  0.97282  0.95294  1.0000
  C   C908      1.0  0.01471  0.28344  0.87576  1.0000
  C   C909      1.0  0.02176  0.27007  0.86523  1.0000
  C   C910      1.0  0.01158  0.26763  0.85371  1.0000
  H   H733      1.0  0.01005  0.37717  0.84859  1.0000
  C   C911      1.0  0.07260  0.37144  0.75287  1.0000
  H   H734      1.0  0.10738  0.16045  0.90721  1.0000
  H   H735      1.0  0.00340  0.05443  0.81327  1.0000
  C   C912      1.0  0.13438  0.11824  0.91442  1.0000
  C   C913      1.0  0.21108  0.23000  0.81918  1.0000
  H   H736      1.0  0.08852  0.99317  0.87510  1.0000
  C   C914      1.0  0.05430  0.30384  0.82013  1.0000
  H   H737      1.0  0.03202  0.43752  0.79906  1.0000
  H   H738      1.0  0.06234  0.44261  0.89359  1.0000
  C   C915      1.0  0.02385  0.45817  0.90298  1.0000
  H   H739      1.0  0.14395  0.10853  0.90691  1.0000
  H   H740      1.0  0.99838  0.44139  0.75084  1.0000
  C   C916      1.0  0.05914  0.40117  0.95180  1.0000
  H   H741      1.0  0.98908  0.14608  0.86825  1.0000
  H   H742      1.0  0.00283  0.09752  0.73340  1.0000
  C   C917      1.0  0.99158  0.10837  0.73714  1.0000
  H   H743      1.0  0.07700  0.28190  0.78549  1.0000
  H   H744      1.0  0.02302  0.28526  0.88432  1.0000
  H   H745      1.0  0.03512  0.26148  0.86619  1.0000
  H   H746      1.0  0.01717  0.25721  0.84558  1.0000
  C   C918      1.0  0.00816  0.28125  0.93436  1.0000
  C   C919      1.0  0.08385  0.22404  0.77125  1.0000
  C   C920      1.0  0.07294  0.40142  0.96069  1.0000
  C   C921      1.0  0.06754  0.38414  0.76421  1.0000
  H   H747      1.0  0.11857  0.27496  0.73820  1.0000
  H   H748      1.0  0.99816  0.08418  0.79268  1.0000
  C   C922      1.0  0.07432  0.37734  0.73399  1.0000
  H   H749      1.0  0.20164  0.27541  0.81967  1.0000
  C   C923      1.0  0.18846  0.18969  0.82351  1.0000
  C   C924      1.0  0.05963  0.46473  0.87013  1.0000
  H   H750      1.0  0.06946  0.32617  0.72988  1.0000
  C   C925      1.0  0.00733  0.45764  0.84802  1.0000
  C   C926      1.0  0.00067  0.28633  0.91866  1.0000
  C   C927      1.0  0.99041  0.05931  0.80882  1.0000
  H   H751      1.0  0.01805  0.29057  0.95343  1.0000
  C   C928      1.0  0.11988  0.97525  0.84112  1.0000
  C   C929      1.0  0.12357  0.23309  0.76611  1.0000
  S   S127      1.0  0.01452  0.97962  0.92477  1.0000
  H   H752      1.0  0.01098  0.26704  0.94102  1.0000
  H   H753      1.0  0.01360  0.10080  0.93940  1.0000
  C   C930      1.0  0.21035  0.25395  0.84141  1.0000
  H   H754      1.0  0.98625  0.27657  0.84400  1.0000
  C   C931      1.0  0.03486  0.00114  0.82755  1.0000
  C   C932      1.0  0.01999  0.22600  0.76735  1.0000
  S   S128      1.0  0.05276  0.99590  0.90710  1.0000
  H   H755      1.0  0.99399  0.02313  0.72597  1.0000
  C   C933      1.0  0.06217  0.08441  0.84426  1.0000
  C   C934      1.0  0.06640  0.09621  0.82758  1.0000
  C   C935      1.0  0.06883  0.11358  0.82719  1.0000
  C   C936      1.0  0.06671  0.11933  0.84349  1.0000
  C   C937      1.0  0.06209  0.10765  0.86037  1.0000
  C   C938      1.0  0.05981  0.09013  0.86060  1.0000
  P   P31       1.0  0.05784  0.11537  0.88155  1.0000
  C   C939      1.0  0.07559  0.10417  0.89450  1.0000
  C   C940      1.0  0.05639  0.13974  0.87647  1.0000
  C   C941      1.0  0.07230  0.14691  0.87323  1.0000
  C   C942      1.0  0.07119  0.16576  0.86928  1.0000
  C   C943      1.0  0.05429  0.17754  0.86810  1.0000
  C   C944      1.0  0.03853  0.17054  0.87064  1.0000
  C   C945      1.0  0.03953  0.15170  0.87483  1.0000
  C   C946      1.0  0.07912  0.11281  0.90687  1.0000
  C   C947      1.0  0.09280  0.10427  0.91692  1.0000
  C   C948      1.0  0.10301  0.08702  0.91482  1.0000
  C   C949      1.0  0.09916  0.07804  0.90308  1.0000
  C   C950      1.0  0.08548  0.08652  0.89301  1.0000
  C   C951      1.0  0.03612  0.11039  0.89509  1.0000
  C   C952      1.0  0.03273  0.10755  0.91422  1.0000
  C   C953      1.0  0.01602  0.10332  0.92465  1.0000
  C   C954      1.0  0.06415  0.40290  0.75673  1.0000
  C   C955      1.0  0.00592  0.10474  0.89706  1.0000
  C   C956      1.0  0.02245  0.10918  0.88658  1.0000
  H   H756      1.0  0.06015  0.07100  0.84453  1.0000
  H   H757      1.0  0.06735  0.09205  0.81497  1.0000
  H   H758      1.0  0.07178  0.12285  0.81423  1.0000
  H   H759      1.0  0.06812  0.13309  0.84272  1.0000
  H   H760      1.0  0.05561  0.08109  0.87340  1.0000
  H   H761      1.0  0.08558  0.13800  0.87374  1.0000
  H   H762      1.0  0.08344  0.17130  0.86699  1.0000
  H   H763      1.0  0.05343  0.19214  0.86486  1.0000
  H   H764      1.0  0.02559  0.17980  0.86910  1.0000
  H   H765      1.0  0.02720  0.14655  0.87655  1.0000
  H   H766      1.0  0.07117  0.12607  0.90893  1.0000
  H   H767      1.0  0.09530  0.11085  0.92659  1.0000
  H   H768      1.0  0.11350  0.08031  0.92272  1.0000
  H   H769      1.0  0.10651  0.06429  0.90217  1.0000
  H   H770      1.0  0.08271  0.07914  0.88424  1.0000
  H   H771      1.0  0.04301  0.10834  0.92116  1.0000
  C   C957      1.0  0.08398  0.97300  0.94521  1.0000
  C   C958      1.0  0.99580  0.41739  0.83561  1.0000
  H   H772      1.0  0.19179  0.08284  0.95727  1.0000
  H   H773      1.0  0.02452  0.11146  0.87185  1.0000
  H   H774      1.0  0.07268  0.38562  0.84195  1.0000
  C   C959      1.0  0.19813  0.16138  0.84391  1.0000
  C   C960      1.0  0.18445  0.17378  0.83572  1.0000
  C   C961      1.0  0.21595  0.16465  0.83960  1.0000
  H   H775      1.0  0.19479  0.14949  0.85398  1.0000
  H   H776      1.0  0.17049  0.17149  0.83947  1.0000
  H   H777      1.0  0.00795  0.39962  0.81651  1.0000
  C   C962      1.0  0.01670  0.46527  0.83084  1.0000
  C   C963      1.0  0.19122  0.23214  0.90115  1.0000
  C   C964      1.0  0.17628  0.24169  0.89307  1.0000
  C   C965      1.0  0.15909  0.24729  0.90399  1.0000
  C   C966      1.0  0.15702  0.24256  0.92308  1.0000
  P   P32       1.0  0.13906  0.25721  0.89391  1.0000
  C   C967      1.0  0.14605  0.26248  0.86937  1.0000
  C   C968      1.0  0.12496  0.24008  0.90067  1.0000
  C   C969      1.0  0.10573  0.24491  0.90292  1.0000
  C   C970      1.0  0.09519  0.23143  0.90783  1.0000
  C   C971      1.0  0.10366  0.21305  0.91068  1.0000
  C   C972      1.0  0.12270  0.20811  0.90881  1.0000
  C   C973      1.0  0.13335  0.22150  0.90357  1.0000
  C   C974      1.0  0.15323  0.27821  0.86074  1.0000
  C   C975      1.0  0.15756  0.28294  0.84166  1.0000
  C   C976      1.0  0.15469  0.27203  0.83112  1.0000
  C   C977      1.0  0.14782  0.25623  0.83968  1.0000
  C   C978      1.0  0.14379  0.25136  0.85872  1.0000
  C   C979      1.0  0.12623  0.27855  0.90022  1.0000
  C   C980      1.0  0.13032  0.28528  0.91369  1.0000
  P   P33       1.0  0.98785  0.31124  0.88929  1.0000
  H   H778      1.0  0.18808  0.23087  0.74744  1.0000
  C   C981      1.0  0.10217  0.30555  0.89552  1.0000
  C   C982      1.0  0.11231  0.28906  0.89090  1.0000
  H   H779      1.0  0.06439  0.26239  0.74506  1.0000
  H   H780      1.0  0.04811  0.45998  0.76288  1.0000
  H   H781      1.0  0.20430  0.22735  0.89275  1.0000
  H   H782      1.0  0.17810  0.24396  0.87838  1.0000
  H   H783      1.0  0.14366  0.24570  0.93178  1.0000
  H   H784      1.0  0.09866  0.25896  0.90072  1.0000
  H   H785      1.0  0.08040  0.23528  0.90917  1.0000
  H   H786      1.0  0.09551  0.20265  0.91404  1.0000
  C   C983      1.0  0.12017  0.30183  0.91823  1.0000
  H   H787      1.0  0.14816  0.21725  0.90153  1.0000
  H   H788      1.0  0.15514  0.28698  0.86875  1.0000
  H   H789      1.0  0.16274  0.29528  0.83505  1.0000
  H   H790      1.0  0.15750  0.27591  0.81636  1.0000
  H   H791      1.0  0.14513  0.24796  0.83160  1.0000
  H   H792      1.0  0.13853  0.23911  0.86514  1.0000
  H   H793      1.0  0.14138  0.27799  0.92063  1.0000
  C   C984      1.0  0.09960  0.98367  0.86857  1.0000
  C   C985      1.0  0.20608  0.24894  0.81318  1.0000
  H   H794      1.0  0.09126  0.31341  0.88847  1.0000
  H   H795      1.0  0.10915  0.28448  0.88009  1.0000
  C   C986      1.0  0.04170  0.46077  0.71467  1.0000
  H   H796      1.0  0.18637  0.03997  0.82105  1.0000
  H   H797      1.0  0.02444  0.06401  0.92981  1.0000
  C   C987      1.0  0.09162  0.46402  0.74124  1.0000
  H   H798      1.0  0.00002  0.45416  0.80135  1.0000
  H   H799      1.0  0.01972  0.16830  0.71556  1.0000
  C   C988      1.0  0.11363  0.14743  0.91460  1.0000
  C   C989      1.0  0.06559  0.44670  0.87886  1.0000
  C   C990      1.0  0.04510  0.29377  0.75535  1.0000
  H   H800      1.0  0.00777  0.22952  0.74420  1.0000
  P   P34       1.0  0.04303  0.27815  0.77724  1.0000
  C   C991      1.0  0.02024  0.27301  0.78524  1.0000
  C   C992      1.0  0.05964  0.25732  0.77472  1.0000
  C   C993      1.0  0.06469  0.24497  0.79020  1.0000
  C   C994      1.0  0.07654  0.22832  0.78842  1.0000
  H   H801      1.0  0.09807  0.32467  0.91281  1.0000
  C   C995      1.0  0.03352  0.21024  0.74227  1.0000
  C   C996      1.0  0.08654  0.46608  0.96155  1.0000
  C   C997      1.0  0.01738  0.25719  0.79839  1.0000
  H   H802      1.0  0.00152  0.02098  0.79398  1.0000
  S   S129      1.0  0.04702  0.46661  0.80304  1.0000
  H   H803      1.0  0.00607  0.43954  0.91785  1.0000
  C   C998      1.0  0.07102  0.43713  0.75988  1.0000
  C   C999      1.0  0.04739  0.28796  0.79426  1.0000
  H   H804      1.0  0.08290  0.29613  0.80804  1.0000
  H   H805      1.0  0.12013  0.22820  0.79539  1.0000
  C   C1000     1.0  0.10607  0.17150  0.77084  1.0000
  C   C1001     1.0  0.03476  0.21690  0.77579  1.0000
  C   C1002     1.0  0.99622  0.40975  0.82092  1.0000
  C   C1003     1.0  0.06888  0.29620  0.80759  1.0000
  H   H806      1.0  0.02894  0.28143  0.74443  1.0000
  C   C1004     1.0  0.10288  0.07055  0.80052  1.0000
  H   H807      1.0  0.05937  0.24807  0.80368  1.0000
  H   H808      1.0  0.08028  0.21880  0.80035  1.0000
  C   C1005     1.0  0.06548  0.28808  0.79485  1.0000
  C   C1006     1.0  0.05117  0.39797  0.80594  1.0000
  C   C1007     1.0  0.17208  0.23322  0.93108  1.0000
  H   H809      1.0  0.02865  0.24763  0.80362  1.0000
  C   C1008     1.0  0.16795  0.24110  0.76935  1.0000
  C   C1009     1.0  0.06084  0.16317  0.74506  1.0000
  C   C1010     1.0  0.18211  0.37401  0.94554  1.0000
  H   H810      1.0  0.99377  0.46450  0.85348  1.0000
  H   H811      1.0  0.23288  0.18389  0.78808  1.0000
  C   C1011     1.0  0.17713  0.23399  0.79850  1.0000
  C   C1012     1.0  0.19064  0.11019  0.91542  1.0000
  H   H812      1.0  0.00720  0.41324  0.84264  1.0000
  Fe  Fe69      1.0  0.15207  0.05012  0.93107  1.0000
  C   C1013     1.0  0.06982  0.19364  0.71516  1.0000
  H   H813      1.0  0.15769  0.24745  0.76104  1.0000
  S   S130      1.0  0.12775  0.23938  0.72902  1.0000
  C   C1014     1.0  0.04847  0.20106  0.75065  1.0000
  H   H814      1.0  0.17586  0.06568  0.94535  1.0000
  H   H815      1.0  0.11914  0.00075  0.90444  1.0000
  H   H816      1.0  0.17048  0.22957  0.94580  1.0000
  C   C1015     1.0  0.04885  0.20437  0.76758  1.0000
  S   S131      1.0  0.16518  0.07210  0.91055  1.0000
  H   H817      1.0  0.21942  0.22970  0.86051  1.0000
  H   H818      1.0  0.19936  0.99612  0.92694  1.0000
  H   H819      1.0  0.03164  0.17364  0.74657  1.0000
  C   C1016     1.0  0.19836  0.22361  0.77242  1.0000
  H   H820      1.0  0.19454  0.03185  0.91095  1.0000
  C   C1017     1.0  0.11730  0.19183  0.74314  1.0000
  H   H821      1.0  0.05988  0.19731  0.77465  1.0000
  C   C1018     1.0  0.10142  0.19313  0.73676  1.0000
  C   C1019     1.0  0.03817  0.14464  0.74961  1.0000
  C   C1020     1.0  0.18260  0.03252  0.88850  1.0000
  C   C1021     1.0  0.18487  0.02655  0.87234  1.0000
  C   C1022     1.0  0.20130  0.01531  0.86591  1.0000
  C   C1023     1.0  0.98730  0.28181  0.78644  1.0000
  C   C1024     1.0  0.06737  0.25303  0.75739  1.0000
  C   C1025     1.0  0.19673  0.02726  0.89830  1.0000
  H   H822      1.0  0.20258  0.25456  0.79990  1.0000
  S   S132      1.0  0.16636  0.02592  0.94887  1.0000
  C   C1026     1.0  0.06613  0.40870  0.73770  1.0000
  C   C1027     1.0  0.17660  0.08408  0.91926  1.0000
  H   H823      1.0  0.13186  0.18025  0.76514  1.0000
  P   P35       1.0  0.21140  0.21454  0.80497  1.0000
  S   S133      1.0  0.19232  0.97464  0.85207  1.0000
  S   S134      1.0  0.98967  0.97192  0.88956  1.0000
  S   S135      1.0  0.06387  0.38645  0.93627  1.0000
  C   C1028     1.0  0.23123  0.02795  0.91523  1.0000
  C   C1029     1.0  0.17549  0.01584  0.82534  1.0000
  H   H824      1.0  0.02142  0.31894  0.86318  1.0000
  H   H825      1.0  0.08542  0.00741  0.91420  1.0000
  H   H826      1.0  0.13624  0.10066  0.94053  1.0000
  C   C1030     1.0  0.13002  0.11389  0.93350  1.0000
  H   H827      1.0  0.16985  0.04114  0.89356  1.0000
  H   H828      1.0  0.17374  0.03017  0.86508  1.0000
  C   C1031     1.0  0.05667  0.30640  0.75097  1.0000
  H   H829      1.0  0.02408  0.14353  0.75095  1.0000
  C   C1032     1.0  0.01074  0.01547  0.80346  1.0000
  S   S136      1.0  0.13694  0.03431  0.92119  1.0000
  H   H830      1.0  0.10773  0.16332  0.78416  1.0000
  C   C1033     1.0  0.03627  0.05368  0.93280  1.0000
  C   C1034     1.0  0.07014  0.13026  0.74831  1.0000
  C   C1035     1.0  0.08640  0.04645  0.81670  1.0000
  Fe  Fe70      1.0  0.14950  0.01049  0.94071  1.0000
  C   C1036     1.0  0.21346  0.01627  0.89172  1.0000
  C   C1037     1.0  0.21610  0.22326  0.83624  1.0000
  H   H831      1.0  0.08660  0.42073  0.79004  1.0000
  H   H832      1.0  0.02508  0.45422  0.89016  1.0000
  C   C1038     1.0  0.10289  0.97237  0.94070  1.0000
  C   C1039     1.0  0.11966  0.18100  0.76014  1.0000
  H   H833      1.0  0.08348  0.06223  0.78998  1.0000
  C   C1040     1.0  0.09024  0.06000  0.80131  1.0000
  C   C1041     1.0  0.10908  0.14309  0.93366  1.0000
  H   H834      1.0  0.19452  0.12269  0.90716  1.0000
  H   H835      1.0  0.08798  0.42850  0.84161  1.0000
  C   C1042     1.0  0.20630  0.19324  0.81930  1.0000
  C   C1043     1.0  0.22005  0.18043  0.82723  1.0000
  H   H836      1.0  0.02502  0.30909  0.82984  1.0000
  C   C1044     1.0  0.18226  0.09999  0.90839  1.0000
  C   C1045     1.0  0.05479  0.38957  0.82329  1.0000
  H   H837      1.0  0.12978  0.13842  0.89021  1.0000
  C   C1046     1.0  0.17806  0.97104  0.78692  1.0000
  H   H838      1.0  0.16102  0.99389  0.83136  1.0000
  C   C1047     1.0  0.11889  0.26474  0.75065  1.0000
  C   C1048     1.0  0.99419  0.27854  0.85286  1.0000
  C   C1049     1.0  0.07109  0.39598  0.72640  1.0000
  C   C1050     1.0  0.06262  0.40920  0.79364  1.0000
  H   H839      1.0  0.18458  0.38245  0.93201  1.0000
  C   C1051     1.0  0.01302  0.44980  0.91870  1.0000
  C   C1052     1.0  0.00500  0.28546  0.77955  1.0000
  C   C1053     1.0  0.03279  0.29570  0.80692  1.0000
  C   C1054     1.0  0.09196  0.01564  0.90196  1.0000
  H   H840      1.0  0.99760  0.27592  0.91346  1.0000
  H   H841      1.0  0.03125  0.41250  0.94871  1.0000
  H   H842      1.0  0.01998  0.97329  0.85822  1.0000
  H   H843      1.0  0.12926  0.19386  0.91096  1.0000
  H   H844      1.0  0.20996  0.26312  0.85008  1.0000
  H   H845      1.0  0.06376  0.42309  0.73154  1.0000
  C   C1055     1.0  0.99969  0.25363  0.80532  1.0000
  C   C1056     1.0  0.18511  0.23176  0.76171  1.0000
  H   H846      1.0  0.14913  0.11968  0.96063  1.0000
  C   C1057     1.0  0.02010  0.46794  0.93636  1.0000
  C   C1058     1.0  0.02474  0.43799  0.78861  1.0000
  H   H847      1.0  0.22019  0.20882  0.84124  1.0000
  C   C1059     1.0  0.23334  0.03814  0.94182  1.0000
  H   H848      1.0  0.22642  0.15527  0.84634  1.0000
  C   C1060     1.0  0.10603  0.31189  0.90924  1.0000
  H   H849      1.0  0.09997  0.20173  0.72363  1.0000
  C   C1061     1.0  0.19451  0.22485  0.79087  1.0000
  C   C1062     1.0  0.22913  0.98939  0.92132  1.0000
  H   H850      1.0  0.08078  0.11806  0.74884  1.0000
  C   C1063     1.0  0.00555  0.36465  0.85589  1.0000
  C   C1064     1.0  0.21149  0.98652  0.93041  1.0000
  C   C1065     1.0  0.11739  0.12635  0.94327  1.0000
  H   H851      1.0  0.19869  0.34950  0.93705  1.0000
  C   C1066     1.0  0.98836  0.99016  0.75432  1.0000
  C   C1067     1.0  0.99399  0.98400  0.73779  1.0000
  C   C1068     1.0  0.21549  0.01010  0.87560  1.0000
  H   H852      1.0  0.20290  0.01016  0.85367  1.0000
  C   C1069     1.0  0.98466  0.26588  0.79928  1.0000
  C   C1070     1.0  0.01215  0.29446  0.94134  1.0000
  C   C1071     1.0  0.07428  0.97416  0.96294  1.0000
  H   H853      1.0  0.08629  0.39269  0.95785  1.0000
  H   H854      1.0  0.98526  0.99403  0.81492  1.0000
  H   H855      1.0  0.12419  0.97841  0.82644  1.0000
  H   H856      1.0  0.12680  0.97253  0.95041  1.0000
  H   H857      1.0  0.20076  0.22048  0.92631  1.0000
  H   H858      1.0  0.22347  0.04962  0.89296  1.0000
  H   H859      1.0  0.22716  0.10463  0.85655  1.0000
  S   S137      1.0  0.23344  0.18587  0.90174  1.0000
  H   H860      1.0  0.23378  0.18302  0.82430  1.0000
  C   C1072     1.0  0.22492  0.06029  0.91549  1.0000
  C   C1073     1.0  0.99860  0.98294  0.76804  1.0000
  H   H861      1.0  0.22793  0.00119  0.87047  1.0000
  H   H862      1.0  0.22696  0.06720  0.94011  1.0000
  C   C1074     1.0  0.05225  0.31459  0.71978  1.0000
  C   C1075     1.0  0.22642  0.04623  0.90653  1.0000
  C   C1076     1.0  0.22838  0.05626  0.93311  1.0000
  H   H863      1.0  0.07811  0.46047  0.82606  1.0000
  C   C1077     1.0  0.23397  0.21080  0.79054  1.0000
  H   H864      1.0  0.22061  0.07434  0.90899  1.0000
  H   H865      1.0  0.06934  0.22134  0.71668  1.0000
  H   H866      1.0  0.07678  0.97239  0.93506  1.0000
  C   C1078     1.0  0.07282  0.46899  0.74799  1.0000
  P   P36       1.0  0.23195  0.00973  0.90412  1.0000
  H   H867      1.0  0.07194  0.13455  0.96292  1.0000
  C   C1079     1.0  0.20931  0.97108  0.94416  1.0000
  C   C1080     1.0  0.06465  0.46970  0.85106  1.0000
  H   H868      1.0  0.12449  0.15284  0.96097  1.0000
  Fe  Fe71      1.0  0.07608  0.92595  0.13895  1.0000
  S   S138      1.0  0.10292  0.91803  0.12031  1.0000
  S   S139      1.0  0.04858  0.92978  0.13125  1.0000
  Fe  Fe72      1.0  0.09467  0.92741  0.16907  1.0000
  S   S140      1.0  0.12300  0.91966  0.15250  1.0000
  S   S141      1.0  0.09243  0.92691  0.19892  1.0000
  Fe  Fe73      1.0  0.11194  0.93932  0.12916  1.0000
  H   H869      1.0  0.07430  0.64207  0.97250  1.0000
  Fe  Fe74      1.0  0.11146  0.89910  0.14526  1.0000
  S   S142      1.0  0.12898  0.87098  0.14402  1.0000
  S   S143      1.0  0.08434  0.94878  0.14625  1.0000
  S   S144      1.0  0.08385  0.90545  0.16341  1.0000
  Fe  Fe75      1.0  0.01648  0.89372  0.06398  1.0000
  S   S145      1.0  0.01784  0.89045  0.03557  1.0000
  S   S146      1.0  0.04220  0.88469  0.07575  1.0000
  S   S147      1.0  0.15651  0.60482  0.97700  1.0000
  S   S148      1.0  0.99255  0.88013  0.07620  1.0000
  H   H870      1.0  0.10534  0.66945  0.99999  1.0000
  C   C1081     1.0  0.08713  0.69427  0.00585  1.0000
  H   H871      1.0  0.08156  0.73449  0.97541  1.0000
  Fe  Fe76      1.0  0.99840  0.91762  0.03326  1.0000
  S   S149      1.0  0.00144  0.94273  0.01111  1.0000
  C   C1082     1.0  0.14360  0.67054  0.97173  1.0000
  S   S150      1.0  0.99868  0.92154  0.06105  1.0000
  H   H872      1.0  0.11453  0.66909  0.15070  1.0000
  H   H873      1.0  0.04787  0.57755  0.97971  1.0000
  S   S151      1.0  0.08969  0.72501  0.17879  1.0000
  S   S152      1.0  0.09325  0.80468  0.19277  1.0000
  H   H874      1.0  0.07494  0.90166  0.11387  1.0000
  S   S153      1.0  0.11769  0.76560  0.16518  1.0000
  H   H875      1.0  0.09967  0.48945  0.03108  1.0000
  Fe  Fe77      1.0  0.13254  0.60192  0.00034  1.0000
  S   S154      1.0  0.11180  0.62672  0.00724  1.0000
  S   S155      1.0  0.14940  0.58199  0.01928  1.0000
  Fe  Fe78      1.0  0.07229  0.69608  0.09891  1.0000
  S   S156      1.0  0.06424  0.67089  0.11780  1.0000
  S   S157      1.0  0.09384  0.71035  0.10088  1.0000
  Fe  Fe79      1.0  0.04918  0.69601  0.07214  1.0000
  S   S158      1.0  0.03953  0.67056  0.08854  1.0000
  S   S159      1.0  0.04236  0.70944  0.04445  1.0000
  Fe  Fe80      1.0  0.03581  0.68320  0.11270  1.0000
  S   S160      1.0  0.01132  0.68285  0.13623  1.0000
  Fe  Fe81      1.0  0.06859  0.66024  0.09230  1.0000
  S   S161      1.0  0.08418  0.63174  0.09024  1.0000
  S   S162      1.0  0.04340  0.70966  0.09596  1.0000
  S   S163      1.0  0.07868  0.68452  0.07372  1.0000
  C   C1083     1.0  0.19026  0.74789  0.16228  1.0000
  C   C1084     1.0  0.02930  0.92642  0.98587  1.0000
  H   H876      1.0  0.99012  0.89374  0.11547  1.0000
  S   S164      1.0  0.13163  0.53767  0.02847  1.0000
  H   H877      1.0  0.22175  0.95646  0.08813  1.0000
  C   C1085     1.0  0.99617  0.97056  0.06292  1.0000
  Fe  Fe82      1.0  0.14244  0.56099  0.00810  1.0000
  Fe  Fe83      1.0  0.14956  0.58192  0.96891  1.0000
  H   H878      1.0  0.13325  0.69543  0.09811  1.0000
  C   C1086     1.0  0.01816  0.94253  0.99067  1.0000
  C   C1087     1.0  0.15837  0.67900  0.08565  1.0000
  C   C1088     1.0  0.10368  0.62728  0.03047  1.0000
  C   C1089     1.0  0.10979  0.61298  0.04409  1.0000
  C   C1090     1.0  0.10370  0.61428  0.06251  1.0000
  C   C1091     1.0  0.09149  0.62990  0.06730  1.0000
  C   C1092     1.0  0.08501  0.64395  0.05371  1.0000
  C   C1093     1.0  0.09097  0.64257  0.03535  1.0000
  H   H879      1.0  0.11918  0.60095  0.04047  1.0000
  H   H880      1.0  0.10852  0.60325  0.07303  1.0000
  H   H881      1.0  0.07525  0.65584  0.05734  1.0000
  H   H882      1.0  0.08575  0.65342  0.02495  1.0000
  C   C1094     1.0  0.09086  0.72149  0.15692  1.0000
  C   C1095     1.0  0.07953  0.71077  0.15490  1.0000
  C   C1096     1.0  0.08029  0.70739  0.13770  1.0000
  C   C1097     1.0  0.09249  0.71462  0.12248  1.0000
  C   C1098     1.0  0.10383  0.72537  0.12447  1.0000
  C   C1099     1.0  0.10292  0.72893  0.14166  1.0000
  H   H883      1.0  0.07146  0.69914  0.13626  1.0000
  H   H884      1.0  0.11322  0.73107  0.11268  1.0000
  H   H885      1.0  0.11150  0.73740  0.14312  1.0000
  C   C1100     1.0  0.02015  0.72301  0.04547  1.0000
  C   C1101     1.0  0.00135  0.65449  0.12783  1.0000
  C   C1102     1.0  0.05142  0.52589  0.06268  1.0000
  C   C1103     1.0  0.99640  0.78591  0.02740  1.0000
  H   H886      1.0  0.02804  0.91349  0.99503  1.0000
  C   C1104     1.0  0.11512  0.49772  0.00407  1.0000
  C   C1105     1.0  0.10842  0.49856  0.02249  1.0000
  C   C1106     1.0  0.11347  0.51095  0.02991  1.0000
  C   C1107     1.0  0.12487  0.52278  0.01883  1.0000
  C   C1108     1.0  0.13115  0.52228  0.00032  1.0000
  C   C1109     1.0  0.12644  0.50962  0.99302  1.0000
  H   H887      1.0  0.10856  0.51133  0.04423  1.0000
  C   C1110     1.0  0.04179  0.92705  0.96892  1.0000
  C   C1111     1.0  0.20790  0.62670  0.02453  1.0000
  C   C1112     1.0  0.18885  0.60881  0.01861  1.0000
  C   C1113     1.0  0.19090  0.62162  0.02761  1.0000
  H   H888      1.0  0.17573  0.60492  0.02110  1.0000
  H   H889      1.0  0.17931  0.62751  0.03705  1.0000
  H   H890      1.0  0.22186  0.72286  0.06429  1.0000
  H   H891      1.0  0.05746  0.50585  0.96831  1.0000
  C   C1114     1.0  0.07399  0.57906  0.04592  1.0000
  C   C1115     1.0  0.07118  0.60749  0.02356  1.0000
  H   H892      1.0  0.16748  0.63463  0.99764  1.0000
  C   C1116     1.0  0.11710  0.64710  0.11000  1.0000
  H   H893      1.0  0.07011  0.70507  0.16667  1.0000
  C   C1117     1.0  0.05773  0.93383  0.04133  1.0000
  C   C1118     1.0  0.15372  0.68373  0.97065  1.0000
  C   C1119     1.0  0.12968  0.66452  0.12413  1.0000
  C   C1120     1.0  0.20374  0.60118  0.00633  1.0000
  H   H894      1.0  0.14005  0.67176  0.12411  1.0000
  C   C1121     1.0  0.14391  0.47905  0.08302  1.0000
  C   C1122     1.0  0.07781  0.94345  0.21076  1.0000
  H   H895      1.0  0.01094  0.68846  0.04614  1.0000
  H   H896      1.0  0.08600  0.66859  0.97322  1.0000
  C   C1123     1.0  0.21899  0.69134  0.14623  1.0000
  H   H897      1.0  0.11928  0.96904  0.03348  1.0000
  C   C1124     1.0  0.05420  0.54306  0.06277  1.0000
  H   H898      1.0  0.14376  0.95179  0.13800  1.0000
  C   C1125     1.0  0.01995  0.95919  0.97869  1.0000
  P   P37       1.0  0.07277  0.56682  0.06931  1.0000
  C   C1126     1.0  0.11080  0.56411  0.06219  1.0000
  C   C1127     1.0  0.06242  0.95037  0.03131  1.0000
  C   C1128     1.0  0.03113  0.49657  0.11483  1.0000
  H   H899      1.0  0.12995  0.70216  0.16020  1.0000
  H   H900      1.0  0.20913  0.72881  0.12889  1.0000
  C   C1129     1.0  0.08032  0.71254  0.99891  1.0000
  C   C1130     1.0  0.18219  0.95614  0.06393  1.0000
  H   H901      1.0  0.11573  0.69417  0.20370  1.0000
  C   C1131     1.0  0.04579  0.60423  0.10131  1.0000
  C   C1132     1.0  0.11907  0.85253  0.15771  1.0000
  C   C1133     1.0  0.12964  0.83479  0.15939  1.0000
  C   C1134     1.0  0.12184  0.81993  0.17005  1.0000
  C   C1135     1.0  0.10355  0.82286  0.17942  1.0000
  C   C1136     1.0  0.09315  0.84060  0.17809  1.0000
  C   C1137     1.0  0.10082  0.85533  0.16709  1.0000
  H   H902      1.0  0.14384  0.83251  0.15235  1.0000
  H   H903      1.0  0.12998  0.80625  0.17104  1.0000
  H   H904      1.0  0.07900  0.84293  0.18528  1.0000
  H   H905      1.0  0.09251  0.86881  0.16582  1.0000
  C   C1138     1.0  0.04748  0.91762  0.11518  1.0000
  C   C1139     1.0  0.03112  0.92086  0.10889  1.0000
  C   C1140     1.0  0.02961  0.91114  0.09645  1.0000
  C   C1141     1.0  0.04434  0.89786  0.09040  1.0000
  C   C1142     1.0  0.06077  0.89460  0.09661  1.0000
  C   C1143     1.0  0.06236  0.90449  0.10892  1.0000
  H   H906      1.0  0.01951  0.93079  0.11377  1.0000
  H   H907      1.0  0.01692  0.91372  0.09179  1.0000
  H   H908      1.0  0.07222  0.88428  0.09206  1.0000
  C   C1144     1.0  0.15913  0.58404  0.09946  1.0000
  C   C1145     1.0  0.14942  0.59512  0.08627  1.0000
  C   C1146     1.0  0.15524  0.59308  0.06813  1.0000
  C   C1147     1.0  0.17064  0.57986  0.06321  1.0000
  C   C1148     1.0  0.18024  0.56833  0.07645  1.0000
  C   C1149     1.0  0.17449  0.57069  0.09460  1.0000
  P   P38       1.0  0.19986  0.55105  0.06969  1.0000
  H   H909      1.0  0.99840  0.73428  0.11368  1.0000
  C   C1150     1.0  0.19415  0.54283  0.05236  1.0000
  C   C1151     1.0  0.17852  0.53505  0.05660  1.0000
  C   C1152     1.0  0.17357  0.52910  0.04324  1.0000
  C   C1153     1.0  0.18379  0.53140  0.02541  1.0000
  H   H910      1.0  0.10855  0.88813  0.19902  1.0000
  C   C1154     1.0  0.15250  0.94840  0.18367  1.0000
  H   H911      1.0  0.98883  0.48710  0.13479  1.0000
  H   H912      1.0  0.18292  0.60591  0.12691  1.0000
  C   C1155     1.0  0.00436  0.64613  0.06955  1.0000
  H   H913      1.0  0.00660  0.48016  0.09306  1.0000
  H   H914      1.0  0.20798  0.48664  0.10329  1.0000
  C   C1156     1.0  0.10657  0.69123  0.97616  1.0000
  C   C1157     1.0  0.07044  0.47808  0.96732  1.0000
  H   H915      1.0  0.00019  0.97051  0.08934  1.0000
  S   S165      1.0  0.16749  0.56001  0.98553  1.0000
  C   C1158     1.0  0.01401  0.67398  0.05180  1.0000
  C   C1159     1.0  0.98483  0.66345  0.15627  1.0000
  H   H916      1.0  0.15471  0.58580  0.11348  1.0000
  H   H917      1.0  0.13737  0.60529  0.09011  1.0000
  H   H918      1.0  0.14775  0.60169  0.05787  1.0000
  H   H919      1.0  0.17499  0.57857  0.04904  1.0000
  H   H920      1.0  0.18167  0.56223  0.10508  1.0000
  H   H921      1.0  0.17017  0.53356  0.07026  1.0000
  H   H922      1.0  0.16161  0.52298  0.04659  1.0000
  H   H923      1.0  0.17963  0.52713  0.01500  1.0000
  H   H924      1.0  0.05676  0.47791  0.11697  1.0000
  H   H925      1.0  0.00352  0.51206  0.11474  1.0000
  H   H926      1.0  0.98491  0.47997  0.17171  1.0000
  C   C1160     1.0  0.20514  0.92182  0.11974  1.0000
  H   H927      1.0  0.08205  0.68835  0.01999  1.0000
  H   H928      1.0  0.23213  0.60078  0.99340  1.0000
  C   C1161     1.0  0.20482  0.53262  0.08870  1.0000
  C   C1162     1.0  0.02258  0.63669  0.06632  1.0000
  H   H929      1.0  0.06759  0.94301  0.98841  1.0000
  H   H930      1.0  0.21947  0.94300  0.14567  1.0000
  C   C1163     1.0  0.19360  0.61784  0.08067  1.0000
  C   C1164     1.0  0.19480  0.60799  0.09828  1.0000
  C   C1165     1.0  0.18187  0.61340  0.11322  1.0000
  C   C1166     1.0  0.16777  0.62867  0.11054  1.0000
  C   C1167     1.0  0.16637  0.63856  0.09281  1.0000
  C   C1168     1.0  0.17948  0.63304  0.07795  1.0000
  P   P39       1.0  0.14878  0.65892  0.08929  1.0000
  C   C1169     1.0  0.13029  0.65718  0.10904  1.0000
  C   C1170     1.0  0.99093  0.64101  0.13133  1.0000
  C   C1171     1.0  0.14758  0.69481  0.09157  1.0000
  C   C1172     1.0  0.18769  0.91512  0.08896  1.0000
  C   C1173     1.0  0.13953  0.66075  0.06941  1.0000
  C   C1174     1.0  0.14170  0.64552  0.06174  1.0000
  C   C1175     1.0  0.13490  0.64728  0.04609  1.0000
  C   C1176     1.0  0.12550  0.66416  0.03822  1.0000
  C   C1177     1.0  0.12281  0.67929  0.04603  1.0000
  C   C1178     1.0  0.12971  0.67760  0.06162  1.0000
  H   H931      1.0  0.20382  0.61398  0.06908  1.0000
  H   H932      1.0  0.20589  0.59633  0.10032  1.0000
  H   H933      1.0  0.15812  0.63276  0.12235  1.0000
  H   H934      1.0  0.17893  0.64067  0.06423  1.0000
  H   H935      1.0  0.11731  0.64111  0.09869  1.0000
  H   H936      1.0  0.14858  0.63228  0.06779  1.0000
  H   H937      1.0  0.13670  0.63554  0.04014  1.0000
  H   H938      1.0  0.12006  0.66541  0.02625  1.0000
  H   H939      1.0  0.11511  0.69229  0.04020  1.0000
  H   H940      1.0  0.12717  0.68940  0.06768  1.0000
  C   C1179     1.0  0.18388  0.69485  0.07303  1.0000
  H   H941      1.0  0.04885  0.61565  0.10498  1.0000
  H   H942      1.0  0.17816  0.48822  0.00989  1.0000
  H   H943      1.0  0.16763  0.87769  0.14032  1.0000
  H   H944      1.0  0.98692  0.80000  0.08464  1.0000
  C   C1180     1.0  0.05518  0.56351  0.98131  1.0000
  C   C1181     1.0  0.06988  0.59819  0.04172  1.0000
  H   H945      1.0  0.14002  0.53131  0.99174  1.0000
  H   H946      1.0  0.04565  0.55515  0.05639  1.0000
  C   C1182     1.0  0.00933  0.75571  0.09338  1.0000
  C   C1183     1.0  0.22068  0.60641  0.00311  1.0000
  H   H947      1.0  0.17632  0.73460  0.18817  1.0000
  C   C1184     1.0  0.17561  0.88894  0.08887  1.0000
  C   C1185     1.0  0.15925  0.89540  0.10027  1.0000
  C   C1186     1.0  0.15708  0.91166  0.10601  1.0000
  C   C1187     1.0  0.17125  0.92141  0.10049  1.0000
  H   H948      1.0  0.16929  0.96357  0.14240  1.0000
  C   C1188     1.0  0.18217  0.69519  0.13831  1.0000
  H   H949      1.0  0.14819  0.88786  0.10472  1.0000
  H   H950      1.0  0.14434  0.91684  0.11464  1.0000
  H   H951      1.0  0.16934  0.93396  0.10515  1.0000
  C   C1189     1.0  0.05680  0.77649  0.14495  1.0000
  C   C1190     1.0  0.06182  0.77160  0.16197  1.0000
  C   C1191     1.0  0.07079  0.78270  0.16689  1.0000
  C   C1192     1.0  0.07542  0.79828  0.15456  1.0000
  C   C1193     1.0  0.07118  0.80286  0.13713  1.0000
  C   C1194     1.0  0.06114  0.79226  0.13268  1.0000
  P   P40       1.0  0.07830  0.82252  0.12117  1.0000
  C   C1195     1.0  0.07768  0.82276  0.09788  1.0000
  C   C1196     1.0  0.06357  0.84233  0.12914  1.0000
  C   C1197     1.0  0.04672  0.84995  0.12366  1.0000
  C   C1198     1.0  0.03581  0.86580  0.12912  1.0000
  C   C1199     1.0  0.04138  0.87388  0.14052  1.0000
  C   C1200     1.0  0.05776  0.86596  0.14665  1.0000
  C   C1201     1.0  0.06874  0.85015  0.14112  1.0000
  C   C1202     1.0  0.08317  0.80652  0.09121  1.0000
  C   C1203     1.0  0.08247  0.80668  0.07325  1.0000
  C   C1204     1.0  0.07680  0.82312  0.06168  1.0000
  C   C1205     1.0  0.07223  0.83943  0.06793  1.0000
  C   C1206     1.0  0.07288  0.83929  0.08587  1.0000
  C   C1207     1.0  0.10208  0.82192  0.12070  1.0000
  C   C1208     1.0  0.11406  0.80527  0.12532  1.0000
  C   C1209     1.0  0.13241  0.80491  0.12514  1.0000
  C   C1210     1.0  0.13899  0.82112  0.12004  1.0000
  C   C1211     1.0  0.12725  0.83769  0.11506  1.0000
  C   C1212     1.0  0.10891  0.83810  0.11519  1.0000
  H   H952      1.0  0.04971  0.76791  0.14126  1.0000
  H   H953      1.0  0.05884  0.75917  0.17133  1.0000
  H   H954      1.0  0.07450  0.77906  0.18017  1.0000
  H   H955      1.0  0.08266  0.80655  0.15849  1.0000
  H   H956      1.0  0.05687  0.79593  0.11974  1.0000
  H   H957      1.0  0.04226  0.84402  0.11470  1.0000
  H   H958      1.0  0.02341  0.87222  0.12390  1.0000
  H   H959      1.0  0.03329  0.88656  0.14420  1.0000
  H   H960      1.0  0.06217  0.87233  0.15534  1.0000
  H   H961      1.0  0.08141  0.84422  0.14593  1.0000
  H   H962      1.0  0.08803  0.79374  0.09987  1.0000
  H   H963      1.0  0.08645  0.79409  0.06826  1.0000
  H   H964      1.0  0.07614  0.82329  0.04780  1.0000
  H   H965      1.0  0.06806  0.85228  0.05895  1.0000
  H   H966      1.0  0.06964  0.85217  0.09024  1.0000
  H   H967      1.0  0.10927  0.79255  0.12923  1.0000
  H   H968      1.0  0.14146  0.79207  0.12926  1.0000
  H   H969      1.0  0.15308  0.82085  0.12031  1.0000
  H   H970      1.0  0.13222  0.85032  0.11155  1.0000
  H   H971      1.0  0.10001  0.85108  0.11130  1.0000
  H   H972      1.0  0.12195  0.85752  0.19192  1.0000
  H   H973      1.0  0.06997  0.72065  0.00769  1.0000
  H   H974      1.0  0.22804  0.96244  0.11539  1.0000
  H   H975      1.0  0.06612  0.60602  0.05232  1.0000
  H   H976      1.0  0.20438  0.72372  0.20136  1.0000
  H   H977      1.0  0.01166  0.65613  0.11551  1.0000
  H   H978      1.0  0.02627  0.79123  0.10178  1.0000
  C   C1213     1.0  0.06622  0.53510  0.00075  1.0000
  C   C1214     1.0  0.05519  0.57973  0.08432  1.0000
  C   C1215     1.0  0.03806  0.57472  0.09189  1.0000
  C   C1216     1.0  0.13816  0.47747  0.10200  1.0000
  C   C1217     1.0  0.02496  0.58440  0.10409  1.0000
  H   H979      1.0  0.05459  0.93121  0.05614  1.0000
  H   H980      1.0  0.06051  0.49683  0.07010  1.0000
  C   C1218     1.0  0.22178  0.95098  0.11660  1.0000
  H   H981      1.0  0.00430  0.95811  0.12194  1.0000
  H   H982      1.0  0.14893  0.67094  0.16181  1.0000
  H   H983      1.0  0.02847  0.84811  0.08784  1.0000
  H   H984      1.0  0.99240  0.77662  0.05629  1.0000
  C   C1219     1.0  0.08878  0.64225  0.96765  1.0000
  H   H985      1.0  0.11292  0.55847  0.11296  1.0000
  H   H986      1.0  0.07809  0.60506  0.99540  1.0000
  C   C1220     1.0  0.18154  0.86995  0.13727  1.0000
  S   S166      1.0  0.11037  0.48143  0.99459  1.0000
  C   C1221     1.0  0.99520  0.97027  0.12581  1.0000
  C   C1222     1.0  0.20859  0.92544  0.13526  1.0000
  H   H987      1.0  0.03479  0.56326  0.08866  1.0000
  C   C1223     1.0  0.20305  0.84573  0.12395  1.0000
  H   H988      1.0  0.21246  0.81350  0.14721  1.0000
  H   H989      1.0  0.21515  0.78378  0.16851  1.0000
  C   C1224     1.0  0.00930  0.72640  0.06217  1.0000
  C   C1225     1.0  0.22721  0.78973  0.16233  1.0000
  C   C1226     1.0  0.08681  0.72028  0.98070  1.0000
  C   C1227     1.0  0.07433  0.52741  0.98537  1.0000
  H   H990      1.0  0.04070  0.52470  0.05645  1.0000
  C   C1228     1.0  0.20966  0.93302  0.10254  1.0000
  H   H991      1.0  0.22397  0.52391  0.12616  1.0000
  C   C1229     1.0  0.06817  0.54459  0.07074  1.0000
  H   H992      1.0  0.04300  0.67169  0.04071  1.0000
  C   C1230     1.0  0.02778  0.83581  0.08396  1.0000
  C   C1231     1.0  0.02665  0.83645  0.06608  1.0000
  H   H993      1.0  0.20587  0.58864  0.05417  1.0000
  S   S167      1.0  0.13665  0.72721  0.18986  1.0000
  C   C1232     1.0  0.11236  0.55989  0.09880  1.0000
  P   P41       1.0  0.20664  0.69185  0.12907  1.0000
  H   H994      1.0  0.05826  0.47283  0.97490  1.0000
  H   H995      1.0  0.11249  0.96876  0.16964  1.0000
  C   C1233     1.0  0.99507  0.74046  0.03033  1.0000
  H   H996      1.0  0.02827  0.81903  0.11071  1.0000
  C   C1234     1.0  0.21028  0.68992  0.16469  1.0000
  S   S168      1.0  0.21017  0.64234  0.03645  1.0000
  H   H997      1.0  0.14289  0.49768  0.05682  1.0000
  C   C1235     1.0  0.21690  0.94004  0.13369  1.0000
  C   C1236     1.0  0.12828  0.49266  0.10937  1.0000
  C   C1237     1.0  0.13546  0.95033  0.17928  1.0000
  C   C1238     1.0  0.02341  0.79868  0.01272  1.0000
  C   C1239     1.0  0.00739  0.79394  0.01161  1.0000
  H   H998      1.0  0.22434  0.86690  0.14396  1.0000
  C   C1240     1.0  0.00110  0.78304  0.04436  1.0000
  C   C1241     1.0  0.01692  0.78821  0.04568  1.0000
  C   C1242     1.0  0.02834  0.79555  0.02964  1.0000
  P   P42       1.0  0.02366  0.78377  0.06742  1.0000
  C   C1243     1.0  0.00633  0.77428  0.08521  1.0000
  C   C1244     1.0  0.04508  0.76734  0.06608  1.0000
  C   C1245     1.0  0.04851  0.75411  0.05544  1.0000
  C   C1246     1.0  0.06480  0.74104  0.05462  1.0000
  C   C1247     1.0  0.07767  0.74087  0.06460  1.0000
  C   C1248     1.0  0.07430  0.75380  0.07541  1.0000
  C   C1249     1.0  0.05812  0.76707  0.07610  1.0000
  C   C1250     1.0  0.19903  0.53964  0.02094  1.0000
  C   C1251     1.0  0.02660  0.80373  0.09162  1.0000
  C   C1252     1.0  0.19574  0.87386  0.14299  1.0000
  C   C1253     1.0  0.12770  0.56150  0.06718  1.0000
  C   C1254     1.0  0.06527  0.94056  0.00314  1.0000
  C   C1255     1.0  0.02565  0.80421  0.07356  1.0000
  C   C1256     1.0  0.02542  0.82081  0.06091  1.0000
  C   C1257     1.0  0.21742  0.84953  0.12970  1.0000
  H   H999      1.0  0.20014  0.64688  0.09697  1.0000
  C   C1258     1.0  0.20040  0.94863  0.06597  1.0000
  C   C1259     1.0  0.07920  0.52865  0.07867  1.0000
  H   H1000     1.0  0.03199  0.80481  0.00046  1.0000
  C   C1260     1.0  0.04196  0.47980  0.12112  1.0000
  C   C1261     1.0  0.12937  0.51114  0.07893  1.0000
  C   C1262     1.0  0.13926  0.49601  0.07152  1.0000
  H   H1001     1.0  0.04099  0.79895  0.03025  1.0000
  H   H1002     1.0  0.03847  0.75360  0.04800  1.0000
  H   H1003     1.0  0.06726  0.73075  0.04657  1.0000
  H   H1004     1.0  0.09008  0.73042  0.06432  1.0000
  H   H1005     1.0  0.08410  0.75318  0.08360  1.0000
  H   H1006     1.0  0.05581  0.77681  0.08466  1.0000
  H   H1007     1.0  0.02204  0.74664  0.08907  1.0000
  C   C1263     1.0  0.99842  0.66574  0.14032  1.0000
  C   C1264     1.0  0.10026  0.68367  0.99454  1.0000
  C   C1265     1.0  0.16492  0.96782  0.12947  1.0000
  C   C1266     1.0  0.07980  0.56944  0.03160  1.0000
  C   C1267     1.0  0.06053  0.92407  0.01322  1.0000
  H   H1008     1.0  0.17840  0.47971  0.04285  1.0000
  C   C1268     1.0  0.06641  0.95380  0.01211  1.0000
  H   H1009     1.0  0.99048  0.91015  0.16452  1.0000
  H   H1010     1.0  0.14049  0.64273  0.98373  1.0000
  C   C1269     1.0  0.05677  0.92070  0.03228  1.0000
  H   H1011     1.0  0.05941  0.91402  0.00624  1.0000
  H   H1012     1.0  0.17725  0.87633  0.08443  1.0000
  C   C1270     1.0  0.05889  0.59462  0.08912  1.0000
  C   C1271     1.0  0.22020  0.68944  0.17775  1.0000
  C   C1272     1.0  0.23014  0.91391  0.05330  1.0000
  H   H1013     1.0  0.02592  0.62226  0.07198  1.0000
  H   H1014     1.0  0.01180  0.58042  0.11005  1.0000
  H   H1015     1.0  0.21622  0.69640  0.08871  1.0000
  C   C1273     1.0  0.06260  0.51012  0.07040  1.0000
  H   H1016     1.0  0.11052  0.56578  0.04793  1.0000
  H   H1017     1.0  0.17671  0.68931  0.97816  1.0000
  H   H1018     1.0  0.05058  0.63856  0.05357  1.0000
  C   C1274     1.0  0.03220  0.66448  0.04858  1.0000
  C   C1275     1.0  0.02885  0.59908  0.10886  1.0000
  H   H1019     1.0  0.08523  0.49925  0.08427  1.0000
  C   C1276     1.0  0.05654  0.55312  0.99874  1.0000
  C   C1277     1.0  0.21515  0.74234  0.10086  1.0000
  H   H1020     1.0  0.13185  0.50879  0.97885  1.0000
  H   H1021     1.0  0.05288  0.90800  0.04006  1.0000
  C   C1278     1.0  0.07645  0.51150  0.07845  1.0000
  C   C1279     1.0  0.17646  0.67934  0.07593  1.0000
  C   C1280     1.0  0.02772  0.81945  0.09676  1.0000
  H   H1022     1.0  0.09013  0.52940  0.08474  1.0000
  C   C1281     1.0  0.20299  0.66629  0.11119  1.0000
  C   C1282     1.0  0.18926  0.73787  0.18018  1.0000
  H   H1023     1.0  0.11621  0.52123  0.10355  1.0000
  C   C1283     1.0  0.16900  0.47969  0.01897  1.0000
  H   H1024     1.0  0.12575  0.52408  0.06987  1.0000
  C   C1284     1.0  0.14854  0.65292  0.98182  1.0000
  C   C1285     1.0  0.16897  0.67910  0.97894  1.0000
  C   C1286     1.0  0.17399  0.68010  0.14725  1.0000
  C   C1287     1.0  0.17131  0.71279  0.13772  1.0000
  Fe  Fe84      1.0  0.11031  0.77681  0.19073  1.0000
  C   C1288     1.0  0.21539  0.70921  0.09237  1.0000
  Fe  Fe85      1.0  0.14478  0.75345  0.17369  1.0000
  Fe  Fe86      1.0  0.10887  0.74046  0.18336  1.0000
  S   S169      1.0  0.17070  0.75519  0.15248  1.0000
  H   H1025     1.0  0.17094  0.94983  0.07217  1.0000
  H   H1026     1.0  0.17910  0.72213  0.07765  1.0000
  H   H1027     1.0  0.19901  0.91026  0.12118  1.0000
  C   C1289     1.0  0.18981  0.89875  0.08320  1.0000
  C   C1290     1.0  0.99141  0.73675  0.06295  1.0000
  H   H1028     1.0  0.06855  0.62225  0.02036  1.0000
  C   C1291     1.0  0.11548  0.66265  0.13948  1.0000
  C   C1292     1.0  0.10337  0.64465  0.12565  1.0000
  H   H1029     1.0  0.09313  0.63698  0.12616  1.0000
  H   H1030     1.0  0.17403  0.85276  0.12363  1.0000
  C   C1293     1.0  0.15513  0.71018  0.08893  1.0000
  C   C1294     1.0  0.20331  0.51473  0.08922  1.0000
  C   C1295     1.0  0.21903  0.57953  0.05467  1.0000
  C   C1296     1.0  0.10233  0.65271  0.14024  1.0000
  H   H1031     1.0  0.08313  0.56218  0.10446  1.0000
  C   C1297     1.0  0.14446  0.70016  0.15399  1.0000
  S   S170      1.0  0.12404  0.58094  0.99066  1.0000
  C   C1298     1.0  0.22287  0.74606  0.15958  1.0000
  H   H1032     1.0  0.08627  0.68741  0.20249  1.0000
  C   C1299     1.0  0.09998  0.70970  0.96935  1.0000
  C   C1300     1.0  0.21362  0.86370  0.13926  1.0000
  C   C1301     1.0  0.21175  0.72739  0.11482  1.0000
  C   C1302     1.0  0.01311  0.73026  0.02949  1.0000
  C   C1303     1.0  0.16380  0.64831  0.98998  1.0000
  H   H1033     1.0  0.02148  0.72771  0.01651  1.0000
  C   C1304     1.0  0.07662  0.59781  0.00946  1.0000
  C   C1305     1.0  0.12849  0.55942  0.08545  1.0000
  H   H1034     1.0  0.06759  0.52703  0.01420  1.0000
  C   C1306     1.0  0.22578  0.80658  0.15015  1.0000
  H   H1035     1.0  0.09118  0.65145  0.15202  1.0000
  H   H1036     1.0  0.18492  0.66778  0.07038  1.0000
  C   C1307     1.0  0.14475  0.96668  0.11034  1.0000
  C   C1308     1.0  0.12395  0.50950  0.09784  1.0000
  C   C1309     1.0  0.20512  0.73182  0.18768  1.0000
  H   H1037     1.0  0.19033  0.67548  0.10860  1.0000
  C   C1310     1.0  0.18519  0.85588  0.12778  1.0000
  Fe  Fe87      1.0  0.17273  0.58302  0.99511  1.0000
  C   C1311     1.0  0.21397  0.67077  0.12077  1.0000
  H   H1038     1.0  0.14159  0.55747  0.08926  1.0000
  H   H1039     1.0  0.20561  0.83470  0.11678  1.0000
  C   C1312     1.0  0.09547  0.56214  0.09390  1.0000
  C   C1313     1.0  0.20838  0.65003  0.10476  1.0000
  H   H1040     1.0  0.21992  0.92127  0.04522  1.0000
  H   H1041     1.0  0.18574  0.65774  0.99518  1.0000
  H   H1042     1.0  0.01880  0.60640  0.11852  1.0000
  H   H1043     1.0  0.14676  0.72217  0.09385  1.0000
  H   H1044     1.0  0.19583  0.68947  0.16904  1.0000
  H   H1045     1.0  0.18218  0.66642  0.14849  1.0000
  C   C1314     1.0  0.08085  0.57878  0.01349  1.0000
  C   C1315     1.0  0.01200  0.49923  0.11986  1.0000
  C   C1316     1.0  0.20706  0.75206  0.15204  1.0000
  H   H1046     1.0  0.19280  0.88466  0.15052  1.0000
  P   P43       1.0  0.20597  0.92782  0.08238  1.0000
  S   S171      1.0  0.13816  0.76683  0.19780  1.0000
  C   C1317     1.0  0.17331  0.71017  0.07976  1.0000
  H   H1047     1.0  0.99322  0.63245  0.12156  1.0000
  H   H1048     1.0  0.12982  0.93841  0.18069  1.0000
  H   H1049     1.0  0.05025  0.55906  0.01067  1.0000
  C   C1318     1.0  0.06334  0.55586  0.96589  1.0000
  H   H1050     1.0  0.17720  0.72476  0.13160  1.0000
  H   H1051     1.0  0.19787  0.69495  0.06554  1.0000
  H   H1052     1.0  0.07201  0.59874  0.08362  1.0000
  H   H1053     1.0  0.15660  0.47779  0.99765  1.0000
  C   C1319     1.0  0.15692  0.47375  0.01204  1.0000
  S   S172      1.0  0.20159  0.58507  0.99491  1.0000
  H   H1054     1.0  0.99862  0.68282  0.08871  1.0000
  C   C1320     1.0  0.15518  0.68259  0.15490  1.0000
  C   C1321     1.0  0.21158  0.71078  0.11071  1.0000
  H   H1055     1.0  0.01459  0.72091  0.07454  1.0000
  H   H1056     1.0  0.08397  0.55472  0.03432  1.0000
  C   C1322     1.0  0.09454  0.56449  0.07550  1.0000
  C   C1323     1.0  0.15256  0.71523  0.14547  1.0000
  H   H1057     1.0  0.14443  0.72890  0.14520  1.0000
  H   H1058     1.0  0.08558  0.57126  0.00254  1.0000
  C   C1324     1.0  0.11452  0.85881  0.20560  1.0000
  H   H1059     1.0  0.14019  0.56100  0.05680  1.0000
  H   H1060     1.0  0.04251  0.96542  0.21035  1.0000
  H   H1061     1.0  0.20783  0.76006  0.13832  1.0000
  H   H1062     1.0  0.10820  0.53809  0.96719  1.0000
  H   H1063     1.0  0.21469  0.54914  0.10157  1.0000
  H   H1064     1.0  0.16017  0.93493  0.18832  1.0000
  C   C1325     1.0  0.21447  0.95761  0.05511  1.0000
  H   H1065     1.0  0.12389  0.49132  0.12403  1.0000
  C   C1326     1.0  0.21804  0.94762  0.10111  1.0000
  C   C1327     1.0  0.21853  0.74079  0.08264  1.0000
  H   H1066     1.0  0.20659  0.54202  0.00695  1.0000
  C   C1328     1.0  0.21865  0.72424  0.07841  1.0000
  C   C1329     1.0  0.22277  0.61915  0.01217  1.0000
  H   H1067     1.0  0.07373  0.47719  0.17213  1.0000
  H   H1068     1.0  0.06260  0.96060  0.03855  1.0000
  C   C1330     1.0  0.21232  0.53575  0.10218  1.0000
  H   H1069     1.0  0.02364  0.82211  0.04720  1.0000
  H   H1070     1.0  0.21339  0.68883  0.19192  1.0000
  H   H1071     1.0  0.20234  0.89349  0.07440  1.0000
  C   C1331     1.0  0.98573  0.69252  0.08993  1.0000
  H   H1072     1.0  0.02616  0.84927  0.05629  1.0000
  C   C1332     1.0  0.07273  0.53763  0.96783  1.0000
  C   C1333     1.0  0.99585  0.74863  0.10731  1.0000
  H   H1073     1.0  0.03751  0.50744  0.10584  1.0000
  C   C1334     1.0  0.03648  0.64585  0.05586  1.0000
  C   C1335     1.0  0.99994  0.66488  0.06226  1.0000
  H   H1074     1.0  0.21586  0.55204  0.03045  1.0000
  C   C1336     1.0  0.10701  0.87607  0.20962  1.0000
  S   S173      1.0  0.09901  0.75269  0.20831  1.0000
  H   H1075     1.0  0.08203  0.51352  0.98721  1.0000
  C   C1337     1.0  0.00370  0.48517  0.13124  1.0000
  C   C1338     1.0  0.16906  0.47486  0.03764  1.0000
  H   H1076     1.0  0.99390  0.63866  0.07765  1.0000
  H   H1077     1.0  0.00344  0.79646  0.99855  1.0000
  C   C1339     1.0  0.22199  0.73582  0.17737  1.0000
  C   C1340     1.0  0.17406  0.66135  0.98856  1.0000
  S   S174      1.0  0.12694  0.95846  0.10654  1.0000
  H   H1078     1.0  0.20482  0.91695  0.14851  1.0000
  C   C1341     1.0  0.21773  0.52144  0.11612  1.0000
  H   H1079     1.0  0.19861  0.51147  0.07863  1.0000
  C   C1342     1.0  0.15046  0.96117  0.12702  1.0000
  C   C1343     1.0  0.98956  0.78564  0.09096  1.0000
  C   C1344     1.0  0.22025  0.56068  0.06088  1.0000
  H   H1080     1.0  0.22081  0.49263  0.12710  1.0000
  H   H1081     1.0  0.09843  0.95762  0.02152  1.0000
  C   C1345     1.0  0.21602  0.50379  0.11660  1.0000
  H   H1082     1.0  0.22138  0.75230  0.07180  1.0000
  Fe  Fe88      1.0  0.12750  0.74165  0.21343  1.0000
  C   C1346     1.0  0.22463  0.63797  0.10805  1.0000
  C   C1347     1.0  0.20425  0.54532  0.03435  1.0000
  C   C1348     1.0  0.20880  0.50044  0.10318  1.0000
  H   H1083     1.0  0.21523  0.75508  0.10423  1.0000
  C   C1349     1.0  0.07511  0.96607  0.20120  1.0000
  C   C1350     1.0  0.22691  0.91430  0.07193  1.0000
  C   C1351     1.0  0.99104  0.89985  0.14093  1.0000
  H   H1084     1.0  0.17285  0.96231  0.18540  1.0000
  C   C1352     1.0  0.15959  0.96382  0.18207  1.0000
  C   C1353     1.0  0.09555  0.65725  0.96815  1.0000
  H   H1085     1.0  0.22862  0.95229  0.05653  1.0000
  H   H1086     1.0  0.23222  0.85835  0.09097  1.0000
  C   C1354     1.0  0.12558  0.96765  0.17309  1.0000
  H   H1087     1.0  0.98899  0.96863  0.03831  1.0000
  H   H1088     1.0  0.98504  0.51174  0.15476  1.0000
  C   C1355     1.0  0.23040  0.65864  0.12387  1.0000
  C   C1356     1.0  0.98477  0.96743  0.05298  1.0000
  H   H1089     1.0  0.99219  0.70347  0.10995  1.0000
  H   H1090     1.0  0.08182  0.96932  0.18709  1.0000
  H   H1091     1.0  0.99632  0.88586  0.14689  1.0000
  C   C1357     1.0  0.99101  0.96830  0.08194  1.0000
  H   H1092     1.0  0.98959  0.74571  0.01802  1.0000
  H   H1093     1.0  0.22893  0.62546  0.10288  1.0000
  Fe  Fe89      1.0  0.99214  0.87900  0.04761  1.0000
  C   C1358     1.0  0.98769  0.91352  0.15088  1.0000
  S   S175      1.0  0.98793  0.85134  0.04692  1.0000
  H   H1094     1.0  0.05006  0.91456  0.96505  1.0000
  C   C1359     1.0  0.98755  0.90425  0.12329  1.0000
  H   H1095     1.0  0.23394  0.60143  0.04500  1.0000
  Fe  Fe90      1.0  0.08244  0.74166  0.33596  1.0000
  S   S176      1.0  0.09585  0.71216  0.34113  1.0000
  S   S177      1.0  0.07928  0.75793  0.30789  1.0000
  Fe  Fe91      1.0  0.07314  0.74310  0.37614  1.0000
  S   S178      1.0  0.08610  0.71358  0.38439  1.0000
  S   S179      1.0  0.05841  0.75854  0.39858  1.0000
  Fe  Fe92      1.0  0.10881  0.71960  0.36047  1.0000
  S   S180      1.0  0.13921  0.70784  0.35764  1.0000
  Fe  Fe93      1.0  0.07197  0.70884  0.36440  1.0000
  S   S181      1.0  0.05850  0.68438  0.37161  1.0000
  S   S182      1.0  0.09701  0.74957  0.35367  1.0000
  S   S183      1.0  0.05735  0.73786  0.35783  1.0000
  S   S184      1.0  0.00577  0.68429  0.32027  1.0000
  C   C1360     1.0  0.98699  0.52326  0.41671  1.0000
  C   C1361     1.0  0.08981  0.88674  0.41370  1.0000
  C   C1362     1.0  0.13167  0.76618  0.29524  1.0000
  H   H1096     1.0  0.09033  0.94580  0.25986  1.0000
  H   H1097     1.0  0.16733  0.80269  0.24259  1.0000
  S   S185      1.0  0.13388  0.72726  0.24110  1.0000
  H   H1098     1.0  0.06807  0.56730  0.43553  1.0000
  Fe  Fe94      1.0  0.03993  0.85738  0.40841  1.0000
  S   S186      1.0  0.01014  0.86973  0.40924  1.0000
  S   S187      1.0  0.05540  0.84347  0.38489  1.0000
  Fe  Fe95      1.0  0.04081  0.87305  0.44067  1.0000
  S   S188      1.0  0.01113  0.88673  0.44379  1.0000
  C   C1363     1.0  0.05952  0.55829  0.43510  1.0000
  H   H1099     1.0  0.15126  0.63067  0.40384  1.0000
  C   C1364     1.0  0.01780  0.73950  0.39528  1.0000
  Fe  Fe96      1.0  0.01714  0.89462  0.41324  1.0000
  S   S189      1.0  0.00389  0.92220  0.39919  1.0000
  S   S190      1.0  0.03605  0.84610  0.43864  1.0000
  S   S191      1.0  0.04733  0.88312  0.41030  1.0000
  H   H1100     1.0  0.00371  0.61172  0.40556  1.0000
  H   H1101     1.0  0.13491  0.49452  0.39340  1.0000
  H   H1102     1.0  0.01679  0.69447  0.40316  1.0000
  C   C1365     1.0  0.14822  0.67322  0.30298  1.0000
  C   C1366     1.0  0.03079  0.59467  0.40239  1.0000
  P   P44       1.0  0.06511  0.57115  0.39715  1.0000
  Fe  Fe97      1.0  0.03729  0.50299  0.37848  1.0000
  C   C1367     1.0  0.13791  0.81191  0.24789  1.0000
  S   S192      1.0  0.02628  0.52495  0.35619  1.0000
  Fe  Fe98      1.0  0.03361  0.48475  0.41851  1.0000
  H   H1103     1.0  0.10238  0.86624  0.39756  1.0000
  H   H1104     1.0  0.08874  0.96755  0.22593  1.0000
  Fe  Fe99      1.0  0.07141  0.48510  0.39460  1.0000
  C   C1368     1.0  0.08839  0.68925  0.21521  1.0000
  P   P45       1.0  0.12054  0.65063  0.42641  1.0000
  C   C1369     1.0  0.16437  0.70326  0.29852  1.0000
  S   S193      1.0  0.04757  0.50753  0.40130  1.0000
  C   C1370     1.0  0.00242  0.77814  0.42288  1.0000
  H   H1105     1.0  0.03881  0.71510  0.39480  1.0000
  C   C1371     1.0  0.99440  0.48406  0.23813  1.0000
  C   C1372     1.0  0.02375  0.66915  0.34904  1.0000
  P   P46       1.0  0.17490  0.72244  0.29586  1.0000
  Fe  Fe100     1.0  0.21136  0.68979  0.41508  1.0000
  C   C1373     1.0  0.13649  0.77788  0.24274  1.0000
  S   S194      1.0  0.18210  0.70562  0.41838  1.0000
  C   C1374     1.0  0.12079  0.80753  0.24956  1.0000
  H   H1106     1.0  0.01539  0.76357  0.36033  1.0000
  H   H1107     1.0  0.05407  0.72324  0.23515  1.0000
  H   H1108     1.0  0.01167  0.78590  0.44340  1.0000
  C   C1375     1.0  0.16898  0.65622  0.44837  1.0000
  Fe  Fe101     1.0  0.14908  0.52880  0.44067  1.0000
  S   S195      1.0  0.16380  0.54629  0.41661  1.0000
  S   S196      1.0  0.11946  0.52733  0.44379  1.0000
  C   C1376     1.0  0.09748  0.87778  0.22725  1.0000
  S   S197      1.0  0.19877  0.53483  0.43748  1.0000
  Fe  Fe102     1.0  0.17288  0.55618  0.43711  1.0000
  S   S198      1.0  0.16909  0.58661  0.43404  1.0000
  Fe  Fe103     1.0  0.18833  0.52346  0.41894  1.0000
  S   S199      1.0  0.20649  0.51592  0.39296  1.0000
  C   C1377     1.0  0.15344  0.78223  0.24133  1.0000
  S   S200      1.0  0.17277  0.50501  0.44137  1.0000
  C   C1378     1.0  0.07693  0.70082  0.44052  1.0000
  H   H1109     1.0  0.02321  0.94262  0.23654  1.0000
  H   H1110     1.0  0.02769  0.74827  0.39172  1.0000
  C   C1379     1.0  0.01696  0.60897  0.39656  1.0000
  C   C1380     1.0  0.12020  0.79044  0.24684  1.0000
  H   H1111     1.0  0.00891  0.63001  0.37423  1.0000
  C   C1381     1.0  0.15617  0.47937  0.34131  1.0000
  H   H1112     1.0  0.18107  0.65790  0.33087  1.0000
  H   H1113     1.0  0.17069  0.66492  0.28170  1.0000
  C   C1382     1.0  0.18169  0.66274  0.35687  1.0000
  C   C1383     1.0  0.07768  0.96010  0.23266  1.0000
  C   C1384     1.0  0.11958  0.59683  0.44877  1.0000
  C   C1385     1.0  0.20609  0.58485  0.43070  1.0000
  C   C1386     1.0  0.18868  0.59594  0.43059  1.0000
  C   C1387     1.0  0.18670  0.61488  0.42782  1.0000
  C   C1388     1.0  0.20200  0.62269  0.42556  1.0000
  C   C1389     1.0  0.01973  0.68425  0.33525  1.0000
  H   H1114     1.0  0.20778  0.57027  0.43268  1.0000
  H   H1115     1.0  0.17328  0.62350  0.42764  1.0000
  H   H1116     1.0  0.20047  0.63726  0.42361  1.0000
  C   C1390     1.0  0.10615  0.49766  0.40594  1.0000
  C   C1391     1.0  0.12419  0.49993  0.40385  1.0000
  C   C1392     1.0  0.12845  0.50907  0.41535  1.0000
  C   C1393     1.0  0.11466  0.51590  0.42904  1.0000
  C   C1394     1.0  0.09659  0.51384  0.43095  1.0000
  C   C1395     1.0  0.09233  0.50478  0.41942  1.0000
  C   C1396     1.0  0.15507  0.64780  0.46013  1.0000
  H   H1117     1.0  0.14240  0.51071  0.41370  1.0000
  H   H1118     1.0  0.08587  0.51913  0.44148  1.0000
  H   H1119     1.0  0.07839  0.50311  0.42114  1.0000
  C   C1397     1.0  0.00464  0.56898  0.38013  1.0000
  C   C1398     1.0  0.18527  0.73349  0.23986  1.0000
  H   H1120     1.0  0.02242  0.63348  0.27190  1.0000
  H   H1121     1.0  0.13808  0.94410  0.44134  1.0000
  H   H1122     1.0  0.10727  0.78679  0.24761  1.0000
  C   C1399     1.0  0.02340  0.80835  0.36806  1.0000
  H   H1123     1.0  0.13408  0.48391  0.36438  1.0000
  H   H1124     1.0  0.15307  0.66692  0.40906  1.0000
  C   C1400     1.0  0.23264  0.57776  0.36853  1.0000
  H   H1125     1.0  0.15983  0.73487  0.33057  1.0000
  S   S201      1.0  0.22022  0.66950  0.43930  1.0000
  H   H1126     1.0  0.00644  0.73909  0.28859  1.0000
  C   C1401     1.0  0.01424  0.86073  0.35448  1.0000
  C   C1402     1.0  0.10279  0.84476  0.23695  1.0000
  C   C1403     1.0  0.01867  0.95642  0.35167  1.0000
  C   C1404     1.0  0.05051  0.60113  0.37263  1.0000
  C   C1405     1.0  0.19158  0.71639  0.31041  1.0000
  C   C1406     1.0  0.02909  0.64466  0.27072  1.0000
  C   C1407     1.0  0.20996  0.72547  0.32675  1.0000
  C   C1408     1.0  0.10751  0.69621  0.23201  1.0000
  H   H1127     1.0  0.00922  0.76123  0.25896  1.0000
  C   C1409     1.0  0.20389  0.64000  0.34192  1.0000
  H   H1128     1.0  0.20892  0.74218  0.22095  1.0000
  H   H1129     1.0  0.21290  0.63949  0.38312  1.0000
  H   H1130     1.0  0.10325  0.67253  0.39555  1.0000
  S   S202      1.0  0.00026  0.63314  0.32205  1.0000
  P   P47       1.0  0.99069  0.77125  0.39450  1.0000
  H   H1131     1.0  0.08435  0.65463  0.45195  1.0000
  H   H1132     1.0  0.12031  0.69949  0.23241  1.0000
  H   H1133     1.0  0.03874  0.65754  0.37082  1.0000
  C   C1410     1.0  0.22137  0.59266  0.42840  1.0000
  S   S203      1.0  0.02130  0.48197  0.39609  1.0000
  C   C1411     1.0  0.08689  0.66799  0.44489  1.0000
  C   C1412     1.0  0.07890  0.94653  0.25375  1.0000
  C   C1413     1.0  0.14017  0.68627  0.31377  1.0000
  C   C1414     1.0  0.05095  0.80282  0.24920  1.0000
  C   C1415     1.0  0.02417  0.72068  0.39720  1.0000
  C   C1416     1.0  0.08748  0.59646  0.39239  1.0000
  H   H1134     1.0  0.13600  0.76480  0.24041  1.0000
  C   C1417     1.0  0.01692  0.93219  0.37868  1.0000
  C   C1418     1.0  0.03509  0.92408  0.37232  1.0000
  C   C1419     1.0  0.04508  0.93221  0.35571  1.0000
  C   C1420     1.0  0.03678  0.94824  0.34523  1.0000
  C   C1421     1.0  0.03669  0.61549  0.36691  1.0000
  C   C1422     1.0  0.03390  0.80095  0.35307  1.0000
  H   H1135     1.0  0.04143  0.91148  0.38005  1.0000
  H   H1136     1.0  0.05908  0.92580  0.35073  1.0000
  H   H1137     1.0  0.19223  0.74432  0.30996  1.0000
  C   C1423     1.0  0.09106  0.61030  0.43839  1.0000
  C   C1424     1.0  0.03542  0.66937  0.36038  1.0000
  C   C1425     1.0  0.05564  0.55751  0.41853  1.0000
  C   C1426     1.0  0.20593  0.50449  0.30201  1.0000
  C   C1427     1.0  0.01532  0.54691  0.36034  1.0000
  C   C1428     1.0  0.01370  0.55146  0.37716  1.0000
  C   C1429     1.0  0.11230  0.84322  0.21912  1.0000
  H   H1138     1.0  0.13456  0.75935  0.33974  1.0000
  H   H1139     1.0  0.01948  0.54149  0.38781  1.0000
  Fe  Fe104     1.0  0.00673  0.86067  0.43947  1.0000
  C   C1430     1.0  0.05801  0.78208  0.39451  1.0000
  C   C1431     1.0  0.04856  0.79179  0.40829  1.0000
  C   C1432     1.0  0.04763  0.81062  0.40543  1.0000
  C   C1433     1.0  0.05643  0.81983  0.38884  1.0000
  C   C1434     1.0  0.06601  0.81013  0.37505  1.0000
  C   C1435     1.0  0.06677  0.79129  0.37786  1.0000
  H   H1140     1.0  0.04204  0.78469  0.42128  1.0000
  H   H1141     1.0  0.04019  0.81796  0.41611  1.0000
  H   H1142     1.0  0.07285  0.81719  0.36220  1.0000
  H   H1143     1.0  0.07408  0.78392  0.36718  1.0000
  C   C1436     1.0  0.15086  0.70895  0.37410  1.0000
  C   C1437     1.0  0.17010  0.70431  0.37063  1.0000
  C   C1438     1.0  0.17979  0.70342  0.38407  1.0000
  C   C1439     1.0  0.17030  0.70746  0.40100  1.0000
  C   C1440     1.0  0.15108  0.71281  0.40423  1.0000
  C   C1441     1.0  0.14137  0.71361  0.39077  1.0000
  H   H1144     1.0  0.17755  0.70138  0.35750  1.0000
  H   H1145     1.0  0.19461  0.69978  0.38128  1.0000
  H   H1146     1.0  0.14369  0.71614  0.41725  1.0000
  H   H1147     1.0  0.12656  0.71761  0.39336  1.0000
  C   C1442     1.0  0.09417  0.74863  0.28962  1.0000
  C   C1443     1.0  0.09094  0.75570  0.27193  1.0000
  C   C1444     1.0  0.10291  0.74904  0.25703  1.0000
  C   C1445     1.0  0.11810  0.73507  0.25972  1.0000
  C   C1446     1.0  0.12116  0.72770  0.27745  1.0000
  C   C1447     1.0  0.10933  0.73457  0.29236  1.0000
  H   H1148     1.0  0.07920  0.76639  0.26968  1.0000
  H   H1149     1.0  0.10049  0.75498  0.24345  1.0000
  H   H1150     1.0  0.13287  0.71689  0.27960  1.0000
  H   H1151     1.0  0.11223  0.72931  0.30586  1.0000
  C   C1448     1.0  0.04302  0.68474  0.35802  1.0000
  C   C1449     1.0  0.02703  0.69973  0.33318  1.0000
  C   C1450     1.0  0.03858  0.70000  0.34455  1.0000
  H   H1152     1.0  0.02387  0.71153  0.32268  1.0000
  H   H1153     1.0  0.04438  0.71188  0.34258  1.0000
  H   H1154     1.0  0.13867  0.82516  0.24956  1.0000
  H   H1155     1.0  0.07099  0.92129  0.23830  1.0000
  C   C1451     1.0  0.16151  0.47246  0.32519  1.0000
  H   H1156     1.0  0.04873  0.79129  0.27796  1.0000
  C   C1452     1.0  0.13816  0.47973  0.35134  1.0000
  H   H1157     1.0  0.22688  0.50456  0.45765  1.0000
  H   H1158     1.0  0.02604  0.82051  0.37056  1.0000
  C   C1453     1.0  0.21461  0.48030  0.41075  1.0000
  H   H1159     1.0  0.03980  0.79730  0.24792  1.0000
  C   C1454     1.0  0.04988  0.96349  0.24849  1.0000
  H   H1160     1.0  0.04532  0.85156  0.24801  1.0000
  C   C1455     1.0  0.02905  0.88116  0.27712  1.0000
  C   C1456     1.0  0.03312  0.86483  0.27089  1.0000
  H   H1161     1.0  0.11124  0.47553  0.35239  1.0000
  C   C1457     1.0  0.15253  0.74386  0.32035  1.0000
  C   C1458     1.0  0.12483  0.61376  0.44318  1.0000
  C   C1459     1.0  0.99168  0.91932  0.27371  1.0000
  C   C1460     1.0  0.05592  0.79952  0.26610  1.0000
  H   H1162     1.0  0.09173  0.89127  0.23021  1.0000
  C   C1461     1.0  0.15697  0.74124  0.30229  1.0000
  C   C1462     1.0  0.19868  0.69805  0.31729  1.0000
  C   C1463     1.0  0.14640  0.75256  0.28977  1.0000
  C   C1464     1.0  0.02700  0.96182  0.42464  1.0000
  H   H1163     1.0  0.16378  0.72464  0.26152  1.0000
  H   H1164     1.0  0.03903  0.91061  0.44908  1.0000
  H   H1165     1.0  0.23316  0.54879  0.37656  1.0000
  C   C1465     1.0  0.08061  0.81621  0.25222  1.0000
  H   H1166     1.0  0.17839  0.73330  0.22927  1.0000
  S   S204      1.0  0.01636  0.48813  0.44628  1.0000
  C   C1466     1.0  0.04057  0.96991  0.42654  1.0000
  H   H1167     1.0  0.21237  0.47324  0.34871  1.0000
  C   C1467     1.0  0.01450  0.87409  0.36356  1.0000
  C   C1468     1.0  0.18569  0.72886  0.27211  1.0000
  C   C1469     1.0  0.09635  0.62722  0.43264  1.0000
  H   H1168     1.0  0.18032  0.65774  0.45346  1.0000
  H   H1169     1.0  0.11903  0.68950  0.41416  1.0000
  H   H1170     1.0  0.07816  0.60885  0.43616  1.0000
  C   C1470     1.0  0.17265  0.68985  0.28803  1.0000
  H   H1171     1.0  0.06328  0.59800  0.36306  1.0000
  C   C1471     1.0  0.21565  0.49259  0.39401  1.0000
  H   H1172     1.0  0.04032  0.54569  0.40618  1.0000
  C   C1472     1.0  0.19745  0.73008  0.31513  1.0000
  C   C1473     1.0  0.16450  0.67497  0.29016  1.0000
  C   C1474     1.0  0.04804  0.95874  0.22265  1.0000
  C   C1475     1.0  0.12839  0.94403  0.43332  1.0000
  C   C1476     1.0  0.13387  0.94565  0.41441  1.0000
  C   C1477     1.0  0.12145  0.94521  0.40410  1.0000
  C   C1478     1.0  0.10333  0.94353  0.41262  1.0000
  C   C1479     1.0  0.09817  0.94126  0.43167  1.0000
  P   P48       1.0  0.08768  0.94165  0.39956  1.0000
  C   C1480     1.0  0.09229  0.91786  0.39857  1.0000
  C   C1481     1.0  0.06406  0.94889  0.41021  1.0000
  C   C1482     1.0  0.05032  0.94090  0.40826  1.0000
  C   C1483     1.0  0.03189  0.94730  0.41556  1.0000
  C   C1484     1.0  0.10639  0.68764  0.42384  1.0000
  C   C1485     1.0  0.11582  0.66373  0.39034  1.0000
  C   C1486     1.0  0.05904  0.96353  0.41929  1.0000
  C   C1487     1.0  0.10297  0.91152  0.38292  1.0000
  C   C1488     1.0  0.10650  0.89297  0.38252  1.0000
  C   C1489     1.0  0.08601  0.90528  0.41407  1.0000
  C   C1490     1.0  0.09021  0.95653  0.37734  1.0000
  C   C1491     1.0  0.99792  0.86000  0.35002  1.0000
  C   C1492     1.0  0.04832  0.91069  0.45749  1.0000
  H   H1173     1.0  0.99481  0.95492  0.37339  1.0000
  H   H1174     1.0  0.99773  0.84962  0.34298  1.0000
  C   C1493     1.0  0.08412  0.95291  0.36319  1.0000
  H   H1175     1.0  0.14161  0.71127  0.31992  1.0000
  C   C1494     1.0  0.98643  0.73501  0.40370  1.0000
  H   H1176     1.0  0.14785  0.94689  0.40778  1.0000
  H   H1177     1.0  0.12605  0.94589  0.38954  1.0000
  H   H1178     1.0  0.02672  0.85094  0.35102  1.0000
  H   H1179     1.0  0.05373  0.92982  0.40101  1.0000
  H   H1180     1.0  0.02137  0.94097  0.41418  1.0000
  H   H1181     1.0  0.18308  0.58313  0.39737  1.0000
  C   C1495     1.0  0.20638  0.64367  0.37139  1.0000
  C   C1496     1.0  0.99726  0.58212  0.36625  1.0000
  H   H1182     1.0  0.10862  0.92078  0.37104  1.0000
  H   H1183     1.0  0.11441  0.88814  0.37033  1.0000
  H   H1184     1.0  0.07815  0.90976  0.42646  1.0000
  H   H1185     1.0  0.22451  0.74250  0.24518  1.0000
  H   H1186     1.0  0.01215  0.96873  0.34366  1.0000
  H   H1187     1.0  0.03472  0.49381  0.24015  1.0000
  S   S205      1.0  0.10125  0.48592  0.39152  1.0000
  H   H1188     1.0  0.07792  0.94120  0.36539  1.0000
  H   H1189     1.0  0.11565  0.77885  0.31758  1.0000
  C   C1497     1.0  0.00732  0.78310  0.37806  1.0000
  H   H1190     1.0  0.20159  0.55246  0.39493  1.0000
  C   C1498     1.0  0.19077  0.65763  0.37149  1.0000
  C   C1499     1.0  0.02470  0.48577  0.24106  1.0000
  C   C1500     1.0  0.20288  0.73397  0.26727  1.0000
  C   C1501     1.0  0.04817  0.64246  0.26541  1.0000
  H   H1191     1.0  0.14174  0.66186  0.30444  1.0000
  C   C1502     1.0  0.05251  0.54718  0.45139  1.0000
  H   H1192     1.0  0.05629  0.62954  0.26246  1.0000
  H   H1193     1.0  0.99896  0.89708  0.37525  1.0000
  H   H1194     1.0  0.16940  0.67336  0.35710  1.0000
  C   C1503     1.0  0.22354  0.49609  0.30514  1.0000
  C   C1504     1.0  0.01989  0.61934  0.37885  1.0000
  C   C1505     1.0  0.22571  0.48475  0.32195  1.0000
  H   H1195     1.0  0.00332  0.57240  0.39319  1.0000
  P   P49       1.0  0.17252  0.48618  0.35012  1.0000
  H   H1196     1.0  0.00947  0.95595  0.27229  1.0000
  P   P50       1.0  0.23170  0.61518  0.35763  1.0000
  H   H1197     1.0  0.22532  0.49582  0.36489  1.0000
  H   H1198     1.0  0.99535  0.90480  0.27428  1.0000
  H   H1199     1.0  0.18527  0.69100  0.27806  1.0000
  C   C1506     1.0  0.14043  0.64594  0.45346  1.0000
  H   H1200     1.0  0.00137  0.52320  0.41082  1.0000
  C   C1507     1.0  0.98719  0.77730  0.41641  1.0000
  H   H1201     1.0  0.20427  0.51344  0.28903  1.0000
  H   H1202     1.0  0.10457  0.61585  0.38904  1.0000
  S   S206      1.0  0.04918  0.95768  0.32405  1.0000
  C   C1508     1.0  0.99956  0.94804  0.27263  1.0000
  C   C1509     1.0  0.99990  0.78456  0.43889  1.0000
  C   C1510     1.0  0.13801  0.75769  0.32568  1.0000
  S   S207      1.0  0.15614  0.54046  0.46122  1.0000
  C   C1511     1.0  0.00883  0.94852  0.36846  1.0000
  C   C1512     1.0  0.11055  0.94179  0.44196  1.0000
  C   C1513     1.0  0.04763  0.59052  0.39039  1.0000
  H   H1203     1.0  0.21428  0.73606  0.33054  1.0000
  C   C1514     1.0  0.03688  0.53509  0.43500  1.0000
  C   C1515     1.0  0.07422  0.68864  0.23064  1.0000
  C   C1516     1.0  0.08519  0.57833  0.39914  1.0000
  C   C1517     1.0  0.09858  0.56582  0.40789  1.0000
  C   C1518     1.0  0.11399  0.57123  0.40966  1.0000
  C   C1519     1.0  0.11625  0.58919  0.40274  1.0000
  C   C1520     1.0  0.07117  0.55668  0.38052  1.0000
  C   C1521     1.0  0.05926  0.55810  0.36884  1.0000
  C   C1522     1.0  0.06346  0.54633  0.35666  1.0000
  C   C1523     1.0  0.07933  0.53278  0.35625  1.0000
  C   C1524     1.0  0.09118  0.53115  0.36787  1.0000
  C   C1525     1.0  0.08711  0.54295  0.38001  1.0000
  H   H1204     1.0  0.09696  0.55192  0.41378  1.0000
  H   H1205     1.0  0.12401  0.56148  0.41672  1.0000
  H   H1206     1.0  0.12810  0.59338  0.40439  1.0000
  H   H1207     1.0  0.04641  0.56791  0.36935  1.0000
  H   H1208     1.0  0.05409  0.54741  0.34786  1.0000
  H   H1209     1.0  0.08221  0.52329  0.34724  1.0000
  H   H1210     1.0  0.10326  0.52036  0.36785  1.0000
  H   H1211     1.0  0.09620  0.54085  0.38929  1.0000
  H   H1212     1.0  0.03914  0.77904  0.33875  1.0000
  C   C1526     1.0  0.15416  0.79925  0.24391  1.0000
  H   H1213     1.0  0.04232  0.96420  0.26235  1.0000
  C   C1527     1.0  0.00764  0.49434  0.23654  1.0000
  C   C1528     1.0  0.03391  0.89705  0.26531  1.0000
  C   C1529     1.0  0.04256  0.89637  0.24709  1.0000
  P   P51       1.0  0.02857  0.91808  0.27358  1.0000
  C   C1530     1.0  0.00488  0.92918  0.27338  1.0000
  C   C1531     1.0  0.03268  0.91274  0.29651  1.0000
  C   C1532     1.0  0.02085  0.92179  0.30999  1.0000
  C   C1533     1.0  0.02386  0.91706  0.32783  1.0000
  C   C1534     1.0  0.03874  0.90343  0.33231  1.0000
  C   C1535     1.0  0.05063  0.89443  0.31899  1.0000
  C   C1536     1.0  0.04764  0.89905  0.30114  1.0000
  H   H1214     1.0  0.00213  0.80559  0.39193  1.0000
  C   C1537     1.0  0.21117  0.73874  0.24888  1.0000
  H   H1215     1.0  0.03316  0.75307  0.23236  1.0000
  C   C1538     1.0  0.08571  0.96460  0.34607  1.0000
  H   H1216     1.0  0.15995  0.63163  0.37067  1.0000
  C   C1539     1.0  0.04292  0.93337  0.25876  1.0000
  C   C1540     1.0  0.03575  0.94459  0.23901  1.0000
  H   H1217     1.0  0.12308  0.77428  0.28573  1.0000
  C   C1541     1.0  0.06236  0.93436  0.26538  1.0000
  H   H1218     1.0  0.11787  0.82998  0.21550  1.0000
  H   H1219     1.0  0.13866  0.51462  0.34622  1.0000
  C   C1542     1.0  0.22436  0.48630  0.37786  1.0000
  C   C1543     1.0  0.10266  0.59511  0.44649  1.0000
  H   H1220     1.0  0.04610  0.90840  0.23748  1.0000
  H   H1221     1.0  0.00936  0.93255  0.30684  1.0000
  H   H1222     1.0  0.01483  0.92417  0.33817  1.0000
  H   H1223     1.0  0.04117  0.89999  0.34610  1.0000
  H   H1224     1.0  0.06226  0.88400  0.32252  1.0000
  H   H1225     1.0  0.05709  0.89209  0.29090  1.0000
  C   C1544     1.0  0.04209  0.86422  0.25285  1.0000
  C   C1545     1.0  0.09333  0.70295  0.42811  1.0000
  H   H1226     1.0  0.21650  0.67934  0.33433  1.0000
  C   C1546     1.0  0.10313  0.67005  0.43193  1.0000
  C   C1547     1.0  0.06079  0.81274  0.23381  1.0000
  H   H1227     1.0  0.01624  0.77436  0.41522  1.0000
  H   H1228     1.0  0.06449  0.92645  0.27859  1.0000
  C   C1548     1.0  0.03184  0.74344  0.24528  1.0000
  C   C1549     1.0  0.01840  0.74805  0.26026  1.0000
  C   C1550     1.0  0.01683  0.73562  0.27692  1.0000
  C   C1551     1.0  0.02870  0.71863  0.27861  1.0000
  C   C1552     1.0  0.04219  0.71385  0.26364  1.0000
  C   C1553     1.0  0.04369  0.72640  0.24692  1.0000
  P   P52       1.0  0.05762  0.69195  0.26635  1.0000
  C   C1554     1.0  0.07658  0.69181  0.24693  1.0000
  C   C1555     1.0  0.06566  0.68904  0.28711  1.0000
  C   C1556     1.0  0.07146  0.70346  0.29055  1.0000
  C   C1557     1.0  0.07739  0.70150  0.30671  1.0000
  C   C1558     1.0  0.07745  0.68521  0.31963  1.0000
  C   C1559     1.0  0.07132  0.67095  0.31651  1.0000
  C   C1560     1.0  0.06542  0.67283  0.30032  1.0000
  H   H1229     1.0  0.12892  0.58493  0.45443  1.0000
  C   C1561     1.0  0.21122  0.69349  0.32887  1.0000
  C   C1562     1.0  0.12086  0.66427  0.37156  1.0000
  C   C1563     1.0  0.14274  0.64018  0.39491  1.0000
  C   C1564     1.0  0.09338  0.69559  0.24751  1.0000
  C   C1565     1.0  0.04620  0.67366  0.26785  1.0000
  C   C1566     1.0  0.02703  0.67569  0.27333  1.0000
  C   C1567     1.0  0.01855  0.66123  0.27468  1.0000
  H   H1230     1.0  0.07153  0.65489  0.26008  1.0000
  H   H1231     1.0  0.13830  0.61458  0.44444  1.0000
  C   C1568     1.0  0.05671  0.65688  0.26402  1.0000
  H   H1232     1.0  0.06674  0.71276  0.44357  1.0000
  H   H1233     1.0  0.03876  0.62338  0.35309  1.0000
  C   C1569     1.0  0.04393  0.54613  0.41869  1.0000
  H   H1234     1.0  0.02735  0.70912  0.29161  1.0000
  C   C1570     1.0  0.20734  0.56435  0.38788  1.0000
  H   H1235     1.0  0.07133  0.71628  0.28079  1.0000
  H   H1236     1.0  0.08154  0.71282  0.30932  1.0000
  H   H1237     1.0  0.08153  0.68384  0.33241  1.0000
  H   H1238     1.0  0.07059  0.65867  0.32692  1.0000
  H   H1239     1.0  0.06030  0.66176  0.29843  1.0000
  C   C1571     1.0  0.99846  0.88671  0.36830  1.0000
  H   H1240     1.0  0.08319  0.82669  0.22306  1.0000
  C   C1572     1.0  0.15360  0.66112  0.42326  1.0000
  C   C1573     1.0  0.99932  0.57773  0.34928  1.0000
  H   H1241     1.0  0.09567  0.69837  0.25968  1.0000
  H   H1242     1.0  0.01852  0.68822  0.27680  1.0000
  H   H1243     1.0  0.00377  0.66278  0.27896  1.0000
  C   C1574     1.0  0.21930  0.61156  0.42613  1.0000
  H   H1244     1.0  0.19606  0.61030  0.38226  1.0000
  C   C1575     1.0  0.01002  0.79960  0.38040  1.0000
  C   C1576     1.0  0.22225  0.59529  0.36988  1.0000
  S   S208      1.0  0.06240  0.48225  0.37021  1.0000
  H   H1245     1.0  0.12752  0.68502  0.32369  1.0000
  H   H1246     1.0  0.09585  0.71652  0.42162  1.0000
  H   H1247     1.0  0.99374  0.58777  0.33849  1.0000
  H   H1248     1.0  0.08097  0.96173  0.33520  1.0000
  C   C1577     1.0  0.19256  0.48988  0.33254  1.0000
  C   C1578     1.0  0.00828  0.56017  0.34637  1.0000
  H   H1249     1.0  0.17559  0.47094  0.31776  1.0000
  C   C1579     1.0  0.11310  0.62917  0.43539  1.0000
  H   H1250     1.0  0.18559  0.66437  0.38302  1.0000
  C   C1580     1.0  0.19049  0.50149  0.31570  1.0000
  C   C1581     1.0  0.16818  0.66290  0.42998  1.0000
  H   H1251     1.0  0.20816  0.48509  0.42327  1.0000
  H   H1252     1.0  0.02712  0.87447  0.36723  1.0000
  C   C1582     1.0  0.04679  0.87999  0.24097  1.0000
  C   C1583     1.0  0.16334  0.50770  0.35749  1.0000
  C   C1584     1.0  0.14650  0.51859  0.35383  1.0000
  C   C1585     1.0  0.13955  0.53499  0.35997  1.0000
  C   C1586     1.0  0.14947  0.54084  0.36948  1.0000
  C   C1587     1.0  0.16659  0.53056  0.37237  1.0000
  C   C1588     1.0  0.17359  0.51416  0.36628  1.0000
  H   H1253     1.0  0.02933  0.85263  0.28005  1.0000
  H   H1254     1.0  0.14895  0.75054  0.27597  1.0000
  H   H1255     1.0  0.20854  0.63311  0.33054  1.0000
  H   H1256     1.0  0.17691  0.50822  0.31320  1.0000
  C   C1589     1.0  0.21682  0.70718  0.33365  1.0000
  C   C1590     1.0  0.12697  0.65198  0.40209  1.0000
  H   H1257     1.0  0.22646  0.70364  0.34275  1.0000
  H   H1258     1.0  0.00961  0.55681  0.33328  1.0000
  H   H1259     1.0  0.12645  0.54318  0.35739  1.0000
  H   H1260     1.0  0.14398  0.55340  0.37449  1.0000
  H   H1261     1.0  0.17447  0.53526  0.37943  1.0000
  H   H1262     1.0  0.18692  0.50639  0.36866  1.0000
  C   C1591     1.0  0.07535  0.84119  0.30231  1.0000
  C   C1592     1.0  0.08826  0.83306  0.31335  1.0000
  C   C1593     1.0  0.10493  0.82244  0.30641  1.0000
  C   C1594     1.0  0.10876  0.81995  0.28841  1.0000
  C   C1595     1.0  0.09592  0.82819  0.27715  1.0000
  C   C1596     1.0  0.07911  0.83868  0.28434  1.0000
  P   P53       1.0  0.10001  0.82432  0.25415  1.0000
  C   C1597     1.0  0.07554  0.81945  0.23529  1.0000
  H   H1263     1.0  0.07496  0.80251  0.28065  1.0000
  C   C1598     1.0  0.18826  0.65396  0.34209  1.0000
  C   C1599     1.0  0.07083  0.80598  0.26759  1.0000
  H   H1264     1.0  0.04469  0.80741  0.34388  1.0000
  H   H1265     1.0  0.02804  0.58667  0.41607  1.0000
  C   C1600     1.0  0.17699  0.72861  0.25822  1.0000
  C   C1601     1.0  0.14823  0.70120  0.31160  1.0000
  H   H1266     1.0  0.19448  0.68723  0.31385  1.0000
  C   C1602     1.0  0.09543  0.86222  0.24092  1.0000
  H   H1267     1.0  0.10629  0.94013  0.45668  1.0000
  H   H1268     1.0  0.07731  0.60662  0.38595  1.0000
  H   H1269     1.0  0.06234  0.84928  0.30776  1.0000
  H   H1270     1.0  0.08529  0.83484  0.32736  1.0000
  H   H1271     1.0  0.11485  0.81597  0.31507  1.0000
  H   H1272     1.0  0.12161  0.81134  0.28358  1.0000
  H   H1273     1.0  0.06883  0.84469  0.27608  1.0000
  H   H1274     1.0  0.21002  0.73419  0.27758  1.0000
  H   H1275     1.0  0.02816  0.52601  0.43498  1.0000
  S   S209      1.0  0.05853  0.87349  0.45988  1.0000
  C   C1603     1.0  0.09982  0.88060  0.39788  1.0000
  H   H1276     1.0  0.08809  0.86400  0.25442  1.0000
  H   H1277     1.0  0.08475  0.87711  0.42566  1.0000
  C   C1604     1.0  0.01746  0.77609  0.36261  1.0000
  C   C1605     1.0  0.13681  0.65280  0.36444  1.0000
  C   C1606     1.0  0.14764  0.64061  0.37614  1.0000
  H   H1278     1.0  0.01807  0.65724  0.35075  1.0000
  H   H1279     1.0  0.17891  0.66954  0.42093  1.0000
  H   H1280     1.0  0.06112  0.68174  0.45881  1.0000
  C   C1607     1.0  0.03082  0.78491  0.35025  1.0000
  C   C1608     1.0  0.12745  0.76873  0.31319  1.0000
  C   C1609     1.0  0.06813  0.93596  0.23303  1.0000
  H   H1281     1.0  0.11240  0.67371  0.36255  1.0000
  C   C1610     1.0  0.10297  0.60182  0.39415  1.0000
  C   C1611     1.0  0.20237  0.73854  0.23519  1.0000
  C   C1612     1.0  0.01172  0.70903  0.40205  1.0000
  H   H1282     1.0  0.14076  0.65340  0.34986  1.0000
  H   H1283     1.0  0.08464  0.93883  0.43865  1.0000
  C   C1613     1.0  0.19691  0.58168  0.38927  1.0000
  C   C1614     1.0  0.20436  0.59710  0.38052  1.0000
  H   H1284     1.0  0.00470  0.50900  0.23193  1.0000
  H   H1285     1.0  0.02206  0.88142  0.29113  1.0000
  C   C1615     1.0  0.10500  0.69311  0.21586  1.0000
  H   H1286     1.0  0.08752  0.63872  0.42578  1.0000
  S   S210      1.0  0.22381  0.67064  0.39571  1.0000
  H   H1287     1.0  0.98937  0.83913  0.42243  1.0000
  C   C1616     1.0  0.21314  0.63483  0.35653  1.0000
  C   C1617     1.0  0.13982  0.65224  0.43488  1.0000
  H   H1288     1.0  0.05367  0.87957  0.22692  1.0000
  H   H1289     1.0  0.01268  0.96664  0.43032  1.0000
  C   C1618     1.0  0.21031  0.48176  0.33566  1.0000
  H   H1290     1.0  0.16601  0.77248  0.23802  1.0000
  C   C1619     1.0  0.12521  0.47488  0.34459  1.0000
  Fe  Fe105     1.0  0.98964  0.66191  0.32612  1.0000
  C   C1620     1.0  0.07375  0.68335  0.44900  1.0000
  H   H1291     1.0  0.06124  0.68615  0.22970  1.0000
  H   H1292     1.0  0.06937  0.97003  0.42076  1.0000
  H   H1293     1.0  0.04132  0.93976  0.45542  1.0000
  C   C1621     1.0  0.22520  0.56235  0.37754  1.0000
  H   H1294     1.0  0.03611  0.52663  0.46385  1.0000
  H   H1295     1.0  0.06008  0.48121  0.33145  1.0000
  C   C1622     1.0  0.04132  0.53547  0.45131  1.0000
  H   H1296     1.0  0.17008  0.48289  0.38990  1.0000
  S   S211      1.0  0.98506  0.60364  0.37072  1.0000
  H   H1297     1.0  0.99109  0.49417  0.42329  1.0000
  Fe  Fe106     1.0  0.18122  0.51819  0.45992  1.0000
  C   C1623     1.0  0.99284  0.71616  0.40559  1.0000
  H   H1298     1.0  0.09881  0.58188  0.45055  1.0000
  H   H1299     1.0  0.05740  0.81481  0.22054  1.0000
  H   H1300     1.0  0.05596  0.54744  0.46406  1.0000
  H   H1301     1.0  0.12957  0.63972  0.46280  1.0000
  C   C1624     1.0  0.99889  0.74687  0.39774  1.0000
  H   H1302     1.0  0.22636  0.59444  0.33292  1.0000
  C   C1625     1.0  0.04970  0.92720  0.46100  1.0000
  H   H1303     1.0  0.17082  0.86979  0.62313  1.0000
  H   H1304     1.0  0.14878  0.48198  0.68331  1.0000
  P   P54       1.0  0.11117  0.49832  0.67780  1.0000
  C   C1626     1.0  0.00616  0.90012  0.49905  1.0000
  S   S212      1.0  0.17980  0.93516  0.57632  1.0000
  H   H1305     1.0  0.16874  0.93688  0.61583  1.0000
  C   C1627     1.0  0.20024  0.87849  0.50949  1.0000
  H   H1306     1.0  0.15562  0.64283  0.47442  1.0000
  Fe  Fe107     1.0  0.20626  0.91539  0.58126  1.0000
  C   C1628     1.0  0.21993  0.80533  0.51532  1.0000
  H   H1307     1.0  0.13996  0.61353  0.51987  1.0000
  C   C1629     1.0  0.15786  0.87829  0.62035  1.0000
  H   H1308     1.0  0.99802  0.93223  0.68519  1.0000
  H   H1309     1.0  0.05886  0.47934  0.67082  1.0000
  H   H1310     1.0  0.22085  0.62624  0.68569  1.0000
  H   H1311     1.0  0.18658  0.53917  0.48418  1.0000
  S   S213      1.0  0.19116  0.50056  0.48489  1.0000
  C   C1630     1.0  0.20881  0.59905  0.52710  1.0000
  H   H1312     1.0  0.03707  0.92885  0.63600  1.0000
  C   C1631     1.0  0.02164  0.95893  0.60775  1.0000
  C   C1632     1.0  0.99503  0.95492  0.56663  1.0000
  C   C1633     1.0  0.99426  0.90299  0.48714  1.0000
  H   H1313     1.0  0.05667  0.96073  0.57049  1.0000
  H   H1314     1.0  0.22165  0.86009  0.52270  1.0000
  C   C1634     1.0  0.98674  0.87411  0.69545  1.0000
  H   H1315     1.0  0.23005  0.89273  0.67439  1.0000
  H   H1316     1.0  0.15336  0.52945  0.62658  1.0000
  H   H1317     1.0  0.19573  0.59802  0.47315  1.0000
  C   C1635     1.0  0.19834  0.64418  0.49359  1.0000
  C   C1636     1.0  0.19842  0.58651  0.53869  1.0000
  H   H1318     1.0  0.17918  0.48753  0.66549  1.0000
  C   C1637     1.0  0.10542  0.91847  0.68588  1.0000
  C   C1638     1.0  0.20642  0.80832  0.53078  1.0000
  Fe  Fe108     1.0  0.22246  0.53078  0.59987  1.0000
  H   H1319     1.0  0.16552  0.59675  0.46888  1.0000
  H   H1320     1.0  0.12357  0.97023  0.60868  1.0000
  H   H1321     1.0  0.18081  0.90422  0.62751  1.0000
  C   C1639     1.0  0.09610  0.96797  0.58134  1.0000
  H   H1322     1.0  0.19275  0.87530  0.54700  1.0000
  H   H1323     1.0  0.12295  0.52391  0.64372  1.0000
  Fe  Fe109     1.0  0.07679  0.94926  0.49765  1.0000
  H   H1324     1.0  0.18139  0.89803  0.68620  1.0000
  H   H1325     1.0  0.98813  0.80140  0.49202  1.0000
  Fe  Fe110     1.0  0.10837  0.94295  0.51764  1.0000
  S   S214      1.0  0.22201  0.87223  0.71076  1.0000
  S   S215      1.0  0.13806  0.92882  0.51740  1.0000
  Fe  Fe111     1.0  0.06976  0.94236  0.53900  1.0000
  S   S216      1.0  0.05207  0.92749  0.56289  1.0000
  C   C1640     1.0  0.15415  0.96580  0.48249  1.0000
  C   C1641     1.0  0.08391  0.88988  0.57769  1.0000
  S   S217      1.0  0.08793  0.92617  0.51858  1.0000
  C   C1642     1.0  0.21267  0.62883  0.49496  1.0000
  S   S218      1.0  0.22062  0.55174  0.61649  1.0000
  H   H1326     1.0  0.21372  0.94980  0.64922  1.0000
  H   H1327     1.0  0.17937  0.84645  0.48850  1.0000
  Fe  Fe112     1.0  0.20759  0.49713  0.60157  1.0000
  H   H1328     1.0  0.19116  0.67354  0.48687  1.0000
  C   C1643     1.0  0.11756  0.90889  0.69758  1.0000
  H   H1329     1.0  0.18205  0.90033  0.49505  1.0000
  C   C1644     1.0  0.13811  0.48941  0.48465  1.0000
  Fe  Fe113     1.0  0.21022  0.52615  0.56689  1.0000
  S   S219      1.0  0.19677  0.54220  0.54328  1.0000
  H   H1330     1.0  0.14522  0.95500  0.63642  1.0000
  S   S220      1.0  0.19567  0.52706  0.59581  1.0000
  H   H1331     1.0  0.08485  0.47695  0.70236  1.0000
  C   C1645     1.0  0.19492  0.53060  0.52720  1.0000
  C   C1646     1.0  0.19739  0.51164  0.53101  1.0000
  C   C1647     1.0  0.19610  0.50260  0.51793  1.0000
  C   C1648     1.0  0.19218  0.51245  0.50105  1.0000
  C   C1649     1.0  0.18954  0.53146  0.49723  1.0000
  C   C1650     1.0  0.19091  0.54053  0.51031  1.0000
  H   H1332     1.0  0.20019  0.50394  0.54405  1.0000
  H   H1333     1.0  0.19795  0.48794  0.52097  1.0000
  C   C1651     1.0  0.08366  0.91430  0.62716  1.0000
  H   H1334     1.0  0.18890  0.55524  0.50731  1.0000
  C   C1652     1.0  0.07554  0.50897  0.64320  1.0000
  H   H1335     1.0  0.13537  0.52826  0.51102  1.0000
  C   C1653     1.0  0.22555  0.96813  0.65748  1.0000
  C   C1654     1.0  0.01669  0.94299  0.60701  1.0000
  C   C1655     1.0  0.02641  0.93321  0.59339  1.0000
  C   C1656     1.0  0.04071  0.93968  0.58011  1.0000
  C   C1657     1.0  0.04563  0.95570  0.58072  1.0000
  H   H1336     1.0  0.05902  0.48693  0.58716  1.0000
  C   C1658     1.0  0.14909  0.48477  0.51260  1.0000
  H   H1337     1.0  0.02258  0.92083  0.59292  1.0000
  C   C1659     1.0  0.21182  0.83708  0.50107  1.0000
  H   H1338     1.0  0.13753  0.60427  0.49217  1.0000
  C   C1660     1.0  0.99348  0.97059  0.57324  1.0000
  H   H1339     1.0  0.21310  0.58142  0.57810  1.0000
  H   H1340     1.0  0.14960  0.85368  0.53838  1.0000
  H   H1341     1.0  0.98670  0.86985  0.53397  1.0000
  C   C1661     1.0  0.16107  0.49402  0.60762  1.0000
  C   C1662     1.0  0.14254  0.49639  0.60689  1.0000
  C   C1663     1.0  0.00372  0.92160  0.54640  1.0000
  S   S221      1.0  0.20582  0.86618  0.63635  1.0000
  H   H1342     1.0  0.16851  0.50477  0.60069  1.0000
  H   H1343     1.0  0.13572  0.50909  0.59965  1.0000
  H   H1344     1.0  0.99371  0.48225  0.48211  1.0000
  C   C1664     1.0  0.09608  0.89242  0.56087  1.0000
  C   C1665     1.0  0.21752  0.87338  0.51441  1.0000
  H   H1345     1.0  0.14671  0.55619  0.50702  1.0000
  C   C1666     1.0  0.20880  0.62314  0.69584  1.0000
  C   C1667     1.0  0.20728  0.90809  0.49365  1.0000
  C   C1668     1.0  0.20220  0.66171  0.48807  1.0000
  C   C1669     1.0  0.07983  0.48088  0.56381  1.0000
  C   C1670     1.0  0.08884  0.50015  0.65369  1.0000
  H   H1346     1.0  0.04151  0.91591  0.66771  1.0000
  C   C1671     1.0  0.17241  0.86445  0.54020  1.0000
  C   C1672     1.0  0.15978  0.84853  0.70722  1.0000
  C   C1673     1.0  0.08587  0.52805  0.66394  1.0000
  C   C1674     1.0  0.08615  0.90787  0.64525  1.0000
  H   H1347     1.0  0.07432  0.50907  0.59294  1.0000
  C   C1675     1.0  0.06195  0.92752  0.47160  1.0000
  C   C1676     1.0  0.19818  0.84020  0.51656  1.0000
  H   H1348     1.0  0.99633  0.84771  0.50736  1.0000
  S   S222      1.0  0.09088  0.95750  0.53968  1.0000
  H   H1349     1.0  0.08984  0.53569  0.67177  1.0000
  C   C1677     1.0  0.13937  0.88785  0.49494  1.0000
  H   H1350     1.0  0.00883  0.81858  0.49736  1.0000
  C   C1678     1.0  0.14149  0.87073  0.68003  1.0000
  H   H1351     1.0  0.04363  0.88982  0.54473  1.0000
  P   P55       1.0  0.20768  0.60617  0.50311  1.0000
  C   C1679     1.0  0.09399  0.50959  0.66425  1.0000
  C   C1680     1.0  0.16762  0.86858  0.50309  1.0000
  C   C1681     1.0  0.16656  0.60063  0.48106  1.0000
  H   H1352     1.0  0.20481  0.79720  0.54245  1.0000
  C   C1682     1.0  0.04849  0.49401  0.69291  1.0000
  C   C1683     1.0  0.09702  0.50586  0.57024  1.0000
  C   C1684     1.0  0.18376  0.60132  0.48360  1.0000
  H   H1353     1.0  0.00863  0.94727  0.56213  1.0000
  C   C1685     1.0  0.12102  0.49843  0.49272  1.0000
  H   H1354     1.0  0.05101  0.50690  0.68436  1.0000
  H   H1355     1.0  0.19209  0.57032  0.56574  1.0000
  C   C1686     1.0  0.15525  0.85929  0.54675  1.0000
  H   H1356     1.0  0.05248  0.91153  0.51606  1.0000
  H   H1357     1.0  0.17037  0.89964  0.60151  1.0000
  H   H1358     1.0  0.08223  0.91127  0.48704  1.0000
  H   H1359     1.0  0.01797  0.90661  0.49491  1.0000
  C   C1687     1.0  0.14329  0.93225  0.65920  1.0000
  H   H1360     1.0  0.23212  0.60981  0.46666  1.0000
  H   H1361     1.0  0.13358  0.94044  0.66827  1.0000
  C   C1688     1.0  0.98694  0.84034  0.50549  1.0000
  C   C1689     1.0  0.09525  0.94951  0.58700  1.0000
  H   H1362     1.0  0.16917  0.88947  0.65866  1.0000
  C   C1690     1.0  0.16805  0.93281  0.56035  1.0000
  C   C1691     1.0  0.15106  0.94442  0.55844  1.0000
  C   C1692     1.0  0.14160  0.94320  0.54552  1.0000
  C   C1693     1.0  0.14905  0.93032  0.53441  1.0000
  C   C1694     1.0  0.16588  0.91855  0.53653  1.0000
  C   C1695     1.0  0.17536  0.91975  0.54944  1.0000
  H   H1363     1.0  0.14530  0.95455  0.56683  1.0000
  H   H1364     1.0  0.12875  0.95246  0.54396  1.0000
  H   H1365     1.0  0.17164  0.90847  0.52815  1.0000
  H   H1366     1.0  0.18843  0.91073  0.55078  1.0000
  H   H1367     1.0  0.09515  0.48602  0.65337  1.0000
  C   C1696     1.0  0.16322  0.90363  0.65393  1.0000
  C   C1697     1.0  0.05327  0.91555  0.65644  1.0000
  S   S223      1.0  0.10984  0.48568  0.61347  1.0000
  H   H1368     1.0  0.13424  0.87919  0.66956  1.0000
  H   H1369     1.0  0.15196  0.89153  0.51522  1.0000
  C   C1698     1.0  0.15208  0.86889  0.57505  1.0000
  C   C1699     1.0  0.22265  0.81970  0.50048  1.0000
  H   H1370     1.0  0.18151  0.51131  0.63731  1.0000
  S   S224      1.0  0.22017  0.49592  0.57234  1.0000
  C   C1700     1.0  0.15294  0.88341  0.50533  1.0000
  H   H1371     1.0  0.03066  0.93993  0.50695  1.0000
  H   H1372     1.0  0.13912  0.95051  0.47407  1.0000
  H   H1373     1.0  0.19754  0.61442  0.67741  1.0000
  C   C1701     1.0  0.16938  0.61079  0.51235  1.0000
  H   H1374     1.0  0.18948  0.58112  0.53351  1.0000
  H   H1375     1.0  0.22900  0.61486  0.52580  1.0000
  C   C1702     1.0  0.15219  0.61010  0.50975  1.0000
  C   C1703     1.0  0.00317  0.88838  0.51602  1.0000
  H   H1376     1.0  0.99386  0.96405  0.69948  1.0000
  H   H1377     1.0  0.07964  0.88202  0.48111  1.0000
  H   H1378     1.0  0.00551  0.93807  0.61701  1.0000
  S   S225      1.0  0.05710  0.96424  0.51822  1.0000
  H   H1379     1.0  0.14060  0.48813  0.47053  1.0000
  H   H1380     1.0  0.12964  0.88075  0.47434  1.0000
  C   C1704     1.0  0.06727  0.52721  0.64322  1.0000
  P   P56       1.0  0.18462  0.86283  0.51720  1.0000
  H   H1381     1.0  0.18418  0.64272  0.49683  1.0000
  C   C1705     1.0  0.14724  0.87870  0.69150  1.0000
  S   S226      1.0  0.19298  0.47470  0.61872  1.0000
  C   C1706     1.0  0.20549  0.85913  0.69019  1.0000
  C   C1707     1.0  0.11841  0.50905  0.70702  1.0000
  C   C1708     1.0  0.15532  0.91032  0.70119  1.0000
  H   H1382     1.0  0.01523  0.96136  0.67010  1.0000
  C   C1709     1.0  0.14025  0.87741  0.48229  1.0000
  H   H1383     1.0  0.18535  0.82768  0.54366  1.0000
  H   H1384     1.0  0.09973  0.90279  0.64827  1.0000
  H   H1385     1.0  0.17024  0.61486  0.52448  1.0000
  H   H1386     1.0  0.12814  0.89937  0.49682  1.0000
  H   H1387     1.0  0.21421  0.84813  0.48953  1.0000
  C   C1710     1.0  0.03381  0.90197  0.54055  1.0000
  C   C1711     1.0  0.00370  0.84315  0.69603  1.0000
  H   H1388     1.0  0.20321  0.92163  0.48584  1.0000
  C   C1712     1.0  0.05075  0.92273  0.63856  1.0000
  H   H1389     1.0  0.05690  0.53393  0.63515  1.0000
  C   C1713     1.0  0.11123  0.47415  0.68366  1.0000
  C   C1714     1.0  0.03886  0.91425  0.52442  1.0000
  C   C1715     1.0  0.14510  0.86159  0.56407  1.0000
  C   C1716     1.0  0.23091  0.63134  0.49061  1.0000
  C   C1717     1.0  0.15080  0.60490  0.49417  1.0000
  C   C1718     1.0  0.14938  0.91354  0.66546  1.0000
  H   H1390     1.0  0.22340  0.67765  0.47945  1.0000
  H   H1391     1.0  0.09433  0.88752  0.54959  1.0000
  H   H1392     1.0  0.13282  0.50591  0.70099  1.0000
  C   C1719     1.0  0.17951  0.87136  0.55151  1.0000
  H   H1393     1.0  0.06604  0.55092  0.65359  1.0000
  S   S227      1.0  0.20804  0.88534  0.58543  1.0000
  H   H1394     1.0  0.11035  0.92238  0.67137  1.0000
  C   C1720     1.0  0.14955  0.49251  0.67106  1.0000
  H   H1395     1.0  0.01292  0.89606  0.56415  1.0000
  C   C1721     1.0  0.13347  0.50269  0.66507  1.0000
  C   C1722     1.0  0.20657  0.62563  0.71361  1.0000
  H   H1396     1.0  0.10369  0.51502  0.57351  1.0000
  C   C1723     1.0  0.16812  0.50907  0.64517  1.0000
  H   H1397     1.0  0.07180  0.50162  0.63494  1.0000
  C   C1724     1.0  0.19569  0.61645  0.69119  1.0000
  S   S228      1.0  0.06462  0.94867  0.47413  1.0000
  C   C1725     1.0  0.18534  0.60610  0.49944  1.0000
  C   C1726     1.0  0.13498  0.51607  0.64895  1.0000
  H   H1398     1.0  0.23136  0.60383  0.55800  1.0000
  H   H1399     1.0  0.16556  0.47611  0.48807  1.0000
  C   C1727     1.0  0.07260  0.91117  0.47901  1.0000
  H   H1400     1.0  0.02322  0.93001  0.70100  1.0000
  C   C1728     1.0  0.07245  0.53676  0.65357  1.0000
  C   C1729     1.0  0.08637  0.51127  0.70712  1.0000
  C   C1730     1.0  0.22417  0.58988  0.49102  1.0000
  C   C1731     1.0  0.16841  0.85813  0.49037  1.0000
  C   C1732     1.0  0.10497  0.50678  0.69880  1.0000
  H   H1401     1.0  0.22776  0.81297  0.57121  1.0000
  C   C1733     1.0  0.20212  0.85787  0.67354  1.0000
  C   C1734     1.0  0.16678  0.49565  0.66109  1.0000
  P   P57       1.0  0.10303  0.91473  0.60814  1.0000
  C   C1735     1.0  0.09987  0.90618  0.58972  1.0000
  C   C1736     1.0  0.10470  0.93837  0.60046  1.0000
  C   C1737     1.0  0.11455  0.94604  0.60858  1.0000
  H   H1402     1.0  0.14144  0.91893  0.59494  1.0000
  H   H1403     1.0  0.01159  0.83243  0.68887  1.0000
  C   C1738     1.0  0.15765  0.89510  0.60826  1.0000
  P   P58       1.0  0.14206  0.90313  0.68904  1.0000
  C   C1739     1.0  0.11221  0.90843  0.57286  1.0000
  C   C1740     1.0  0.11032  0.90155  0.55852  1.0000
  C   C1741     1.0  0.02651  0.93029  0.51932  1.0000
  C   C1742     1.0  0.20917  0.86890  0.65714  1.0000
  C   C1743     1.0  0.08585  0.89660  0.59214  1.0000
  C   C1744     1.0  0.12437  0.90072  0.61352  1.0000
  C   C1745     1.0  0.14106  0.90620  0.60474  1.0000
  H   H1404     1.0  0.15536  0.85437  0.47030  1.0000
  C   C1746     1.0  0.16980  0.47787  0.61749  1.0000
  C   C1747     1.0  0.14137  0.87238  0.62860  1.0000
  C   C1748     1.0  0.12469  0.88342  0.62500  1.0000
  H   H1405     1.0  0.17473  0.87931  0.57727  1.0000
  C   C1749     1.0  0.16931  0.87364  0.56881  1.0000
  C   C1750     1.0  0.18518  0.91243  0.70489  1.0000
  H   H1406     1.0  0.20042  0.85025  0.70271  1.0000
  H   H1407     1.0  0.07565  0.50973  0.70117  1.0000
  H   H1408     1.0  0.12154  0.93779  0.61932  1.0000
  C   C1751     1.0  0.15224  0.51929  0.63913  1.0000
  C   C1752     1.0  0.22439  0.90292  0.49867  1.0000
  H   H1409     1.0  0.07265  0.88312  0.57938  1.0000
  C   C1753     1.0  0.19988  0.58030  0.55701  1.0000
  H   H1410     1.0  0.12331  0.91553  0.57076  1.0000
  H   H1411     1.0  0.11981  0.90345  0.54552  1.0000
  C   C1754     1.0  0.22234  0.88294  0.67417  1.0000
  C   C1755     1.0  0.15001  0.94060  0.64126  1.0000
  H   H1412     1.0  0.07630  0.89437  0.60503  1.0000
  C   C1756     1.0  0.00907  0.93405  0.53033  1.0000
  H   H1413     1.0  0.22860  0.79193  0.51505  1.0000
  H   H1414     1.0  0.15889  0.95456  0.49292  1.0000
  H   H1415     1.0  0.14160  0.85913  0.63759  1.0000
  H   H1416     1.0  0.11210  0.87838  0.63099  1.0000
  C   C1757     1.0  0.19528  0.89590  0.49892  1.0000
  H   H1417     1.0  0.14081  0.84564  0.67308  1.0000
  C   C1758     1.0  0.05293  0.47843  0.68519  1.0000
  H   H1418     1.0  0.22441  0.89034  0.64498  1.0000
  C   C1759     1.0  0.13184  0.49356  0.52092  1.0000
  C   C1760     1.0  0.11789  0.50057  0.51076  1.0000
  P   P59       1.0  0.12839  0.49860  0.54326  1.0000
  C   C1761     1.0  0.10537  0.49670  0.55580  1.0000
  H   H1419     1.0  0.11037  0.50415  0.48477  1.0000
  C   C1762     1.0  0.21177  0.58650  0.56395  1.0000
  C   C1763     1.0  0.22067  0.60531  0.53426  1.0000
  H   H1420     1.0  0.19432  0.84809  0.67334  1.0000
  C   C1764     1.0  0.17457  0.90617  0.69643  1.0000
  C   C1765     1.0  0.15476  0.86256  0.48001  1.0000
  C   C1766     1.0  0.21905  0.88166  0.65752  1.0000
  C   C1767     1.0  0.21594  0.87143  0.69049  1.0000
  C   C1768     1.0  0.07096  0.90812  0.65978  1.0000
  Fe  Fe114     1.0  0.21836  0.88387  0.61059  1.0000
  C   C1769     1.0  0.11559  0.96446  0.60270  1.0000
  C   C1770     1.0  0.13342  0.52095  0.54043  1.0000
  C   C1771     1.0  0.13640  0.52624  0.55538  1.0000
  C   C1772     1.0  0.14303  0.54214  0.55292  1.0000
  C   C1773     1.0  0.14661  0.55300  0.53552  1.0000
  C   C1774     1.0  0.14397  0.48254  0.55666  1.0000
  C   C1775     1.0  0.13691  0.53210  0.52299  1.0000
  C   C1776     1.0  0.07959  0.91747  0.71152  1.0000
  C   C1777     1.0  0.98838  0.87942  0.52106  1.0000
  H   H1421     1.0  0.99690  0.91170  0.47377  1.0000
  C   C1778     1.0  0.06586  0.92216  0.62398  1.0000
  H   H1422     1.0  0.10473  0.50811  0.51660  1.0000
  C   C1779     1.0  0.22210  0.59907  0.55259  1.0000
  C   C1780     1.0  0.99413  0.82370  0.49988  1.0000
  C   C1781     1.0  0.15637  0.86747  0.70515  1.0000
  H   H1423     1.0  0.13175  0.85787  0.56892  1.0000
  H   H1424     1.0  0.16587  0.49760  0.54591  1.0000
  H   H1425     1.0  0.06361  0.92794  0.61021  1.0000
  H   H1426     1.0  0.08712  0.94396  0.58096  1.0000
  H   H1427     1.0  0.01268  0.88578  0.52502  1.0000
  H   H1428     1.0  0.14415  0.87087  0.58837  1.0000
  H   H1429     1.0  0.15243  0.56492  0.53353  1.0000
  H   H1430     1.0  0.13452  0.51757  0.56879  1.0000
  H   H1431     1.0  0.14605  0.54568  0.56439  1.0000
  H   H1432     1.0  0.20003  0.90892  0.70134  1.0000
  C   C1782     1.0  0.19552  0.82567  0.53143  1.0000
  C   C1783     1.0  0.14342  0.54806  0.52060  1.0000
  S   S229      1.0  0.21502  0.91402  0.60741  1.0000
  C   C1784     1.0  0.01632  0.90560  0.55153  1.0000
  C   C1785     1.0  0.99664  0.86020  0.68622  1.0000
  C   C1786     1.0  0.16334  0.93046  0.62969  1.0000
  C   C1787     1.0  0.17009  0.91206  0.63617  1.0000
  H   H1433     1.0  0.21774  0.56635  0.51173  1.0000
  C   C1788     1.0  0.16133  0.48603  0.55555  1.0000
  C   C1789     1.0  0.17247  0.47535  0.56765  1.0000
  C   C1790     1.0  0.14516  0.85177  0.68198  1.0000
  H   H1434     1.0  0.17023  0.60694  0.70075  1.0000
  C   C1791     1.0  0.15430  0.84068  0.69559  1.0000
  C   C1792     1.0  0.08028  0.50249  0.58138  1.0000
  S   S230      1.0  0.09904  0.96463  0.49441  1.0000
  C   C1793     1.0  0.09661  0.48414  0.55270  1.0000
  C   C1794     1.0  0.99627  0.92729  0.69978  1.0000
  C   C1795     1.0  0.22036  0.66407  0.48392  1.0000
  C   C1796     1.0  0.08654  0.92297  0.69291  1.0000
  H   H1435     1.0  0.22951  0.84437  0.57228  1.0000
  C   C1797     1.0  0.03631  0.96513  0.59478  1.0000
  H   H1436     1.0  0.07723  0.93065  0.68395  1.0000
  C   C1798     1.0  0.22442  0.95106  0.65540  1.0000
  C   C1799     1.0  0.01053  0.92597  0.70875  1.0000
  H   H1437     1.0  0.07287  0.90264  0.67368  1.0000
  C   C1800     1.0  0.15211  0.48255  0.49458  1.0000
  C   C1801     1.0  0.07172  0.48997  0.57821  1.0000
  H   H1438     1.0  0.99982  0.94677  0.52645  1.0000
  H   H1439     1.0  0.15700  0.82599  0.69729  1.0000
  H   H1440     1.0  0.23384  0.50528  0.52029  1.0000
  C   C1802     1.0  0.13280  0.48242  0.61546  1.0000
  H   H1441     1.0  0.18522  0.47902  0.56749  1.0000
  C   C1803     1.0  0.14304  0.96355  0.47177  1.0000
  H   H1442     1.0  0.99898  0.86271  0.67146  1.0000
  C   C1804     1.0  0.07120  0.89464  0.47556  1.0000
  H   H1443     1.0  0.22368  0.57748  0.63601  1.0000
  C   C1805     1.0  0.04079  0.49300  0.71158  1.0000
  C   C1806     1.0  0.18033  0.61224  0.70435  1.0000
  C   C1807     1.0  0.22563  0.57115  0.49840  1.0000
  H   H1444     1.0  0.22957  0.49369  0.48978  1.0000
  H   H1445     1.0  0.16040  0.48014  0.51971  1.0000
  H   H1446     1.0  0.10301  0.47631  0.54215  1.0000
  S   S231      1.0  0.23319  0.50069  0.60818  1.0000
  C   C1808     1.0  0.22953  0.88554  0.50895  1.0000
  C   C1809     1.0  0.05920  0.89437  0.46465  1.0000
  H   H1447     1.0  0.23335  0.81734  0.48865  1.0000
  C   C1810     1.0  0.23383  0.59554  0.47325  1.0000
  H   H1448     1.0  0.23364  0.91239  0.49474  1.0000
  H   H1449     1.0  0.07331  0.47088  0.56168  1.0000
  Fe  Fe115     1.0  0.08561  0.60402  0.87589  1.0000
  S   S232      1.0  0.10417  0.58117  0.86334  1.0000
  S   S233      1.0  0.08094  0.60326  0.90603  1.0000
  Fe  Fe116     1.0  0.07572  0.62535  0.83964  1.0000
  S   S234      1.0  0.09384  0.60418  0.82419  1.0000
  Fe  Fe117     1.0  0.08189  0.58416  0.84799  1.0000
  S   S235      1.0  0.07111  0.55952  0.84756  1.0000
  Fe  Fe118     1.0  0.11419  0.60350  0.84093  1.0000
  S   S236      1.0  0.14471  0.60201  0.82984  1.0000
  S   S237      1.0  0.06247  0.60544  0.86238  1.0000
  S   S238      1.0  0.09685  0.62619  0.85458  1.0000
  C   C1811     1.0  0.03442  0.68133  0.82708  1.0000
  C   C1812     1.0  0.16120  0.92949  0.85461  1.0000
  H   H1450     1.0  0.18836  0.91816  0.81262  1.0000
  S   S239      1.0  0.13731  0.86193  0.75084  1.0000
  C   C1813     1.0  0.01791  0.86476  0.74507  1.0000
  H   H1451     1.0  0.17201  0.70022  0.84129  1.0000
  S   S240      1.0  0.15287  0.58280  0.93883  1.0000
  C   C1814     1.0  0.20438  0.89734  0.79780  1.0000
  C   C1815     1.0  0.17668  0.92280  0.71824  1.0000
  C   C1816     1.0  0.08728  0.48905  0.90579  1.0000
  C   C1817     1.0  0.99043  0.85378  0.72448  1.0000
  Fe  Fe119     1.0  0.20239  0.67876  0.80046  1.0000
  S   S241      1.0  0.21569  0.68399  0.77064  1.0000
  S   S242      1.0  0.17269  0.67626  0.81167  1.0000
  C   C1818     1.0  0.02083  0.68474  0.76554  1.0000
  S   S243      1.0  0.18496  0.89253  0.79319  1.0000
  C   C1819     1.0  0.99651  0.82142  0.91746  1.0000
  C   C1820     1.0  0.98877  0.63064  0.77224  1.0000
  P   P60       1.0  0.00298  0.63944  0.79821  1.0000
  S   S244      1.0  0.20858  0.70360  0.80581  1.0000
  H   H1452     1.0  0.19869  0.90353  0.88286  1.0000
  C   C1821     1.0  0.18099  0.64365  0.91835  1.0000
  H   H1453     1.0  0.11986  0.64745  0.77126  1.0000
  H   H1454     1.0  0.05874  0.66567  0.78407  1.0000
  S   S245      1.0  0.01571  0.89876  0.82217  1.0000
  C   C1822     1.0  0.12619  0.64270  0.95506  1.0000
  S   S246      1.0  0.05687  0.94459  0.93449  1.0000
  H   H1455     1.0  0.99786  0.82999  0.94153  1.0000
  S   S247      1.0  0.06749  0.88120  0.81189  1.0000
  Fe  Fe120     1.0  0.19781  0.83268  0.77145  1.0000
  S   S248      1.0  0.18928  0.83906  0.74443  1.0000
  H   H1456     1.0  0.04529  0.52804  0.90600  1.0000
  Fe  Fe121     1.0  0.18867  0.87238  0.77514  1.0000
  Fe  Fe122     1.0  0.16521  0.85828  0.75733  1.0000
  S   S249      1.0  0.06091  0.65068  0.82345  1.0000
  S   S250      1.0  0.17925  0.88207  0.74851  1.0000
  S   S251      1.0  0.17253  0.85005  0.78493  1.0000
  H   H1457     1.0  0.16056  0.87320  0.71450  1.0000
  Fe  Fe123     1.0  0.02626  0.51272  0.75105  1.0000
  Fe  Fe124     1.0  0.02805  0.53399  0.77899  1.0000
  S   S252      1.0  0.03748  0.55899  0.78057  1.0000
  Fe  Fe125     1.0  0.03139  0.49283  0.78903  1.0000
  H   H1458     1.0  0.09948  0.47444  0.73398  1.0000
  S   S253      1.0  0.04746  0.51113  0.76705  1.0000
  S   S254      1.0  0.00783  0.53732  0.76120  1.0000
  C   C1823     1.0  0.03742  0.47630  0.72246  1.0000
  P   P61       1.0  0.04730  0.48174  0.88342  1.0000
  C   C1824     1.0  0.02785  0.51703  0.87209  1.0000
  C   C1825     1.0  0.03831  0.68266  0.76903  1.0000
  C   C1826     1.0  0.01579  0.52989  0.86207  1.0000
  H   H1459     1.0  0.20277  0.63538  0.77682  1.0000
  C   C1827     1.0  0.16621  0.58543  0.78963  1.0000
  C   C1828     1.0  0.08679  0.87565  0.79493  1.0000
  C   C1829     1.0  0.08487  0.87606  0.77730  1.0000
  C   C1830     1.0  0.10048  0.87147  0.76397  1.0000
  C   C1831     1.0  0.11805  0.86702  0.76804  1.0000
  C   C1832     1.0  0.11993  0.86667  0.78565  1.0000
  C   C1833     1.0  0.10430  0.87070  0.79914  1.0000
  H   H1460     1.0  0.07138  0.87970  0.77400  1.0000
  H   H1461     1.0  0.09897  0.87136  0.75047  1.0000
  H   H1462     1.0  0.13339  0.86311  0.78895  1.0000
  H   H1463     1.0  0.10581  0.86999  0.81283  1.0000
  C   C1834     1.0  0.99935  0.95544  0.83441  1.0000
  C   C1835     1.0  0.01436  0.96941  0.76542  1.0000
  H   H1464     1.0  0.00673  0.60213  0.74218  1.0000
  H   H1465     1.0  0.09387  0.66542  0.82126  1.0000
  C   C1836     1.0  0.06803  0.87536  0.85934  1.0000
  S   S255      1.0  0.04174  0.96966  0.88629  1.0000
  H   H1466     1.0  0.21474  0.71035  0.89396  1.0000
  C   C1837     1.0  0.21843  0.75362  0.76501  1.0000
  C   C1838     1.0  0.21523  0.77083  0.75356  1.0000
  C   C1839     1.0  0.21160  0.78676  0.76054  1.0000
  C   C1840     1.0  0.21126  0.78551  0.77898  1.0000
  H   H1467     1.0  0.03349  0.59692  0.75660  1.0000
  S   S256      1.0  0.99445  0.91651  0.78787  1.0000
  H   H1468     1.0  0.04266  0.89580  0.94031  1.0000
  H   H1469     1.0  0.20920  0.79997  0.75165  1.0000
  H   H1470     1.0  0.00253  0.50148  0.84297  1.0000
  H   H1471     1.0  0.10779  0.93377  0.85388  1.0000
  H   H1472     1.0  0.04657  0.69284  0.76222  1.0000
  H   H1473     1.0  0.02826  0.73899  0.87503  1.0000
  H   H1474     1.0  0.10437  0.64106  0.80379  1.0000
  C   C1841     1.0  0.18688  0.66197  0.73681  1.0000
  C   C1842     1.0  0.18555  0.63671  0.93555  1.0000
  C   C1843     1.0  0.21463  0.76829  0.79033  1.0000
  S   S257      1.0  0.01146  0.49269  0.77226  1.0000
  H   H1475     1.0  0.19326  0.59059  0.77770  1.0000
  H   H1476     1.0  0.15642  0.91761  0.81429  1.0000
  C   C1844     1.0  0.06181  0.55963  0.82881  1.0000
  C   C1845     1.0  0.06163  0.57422  0.81385  1.0000
  C   C1846     1.0  0.05415  0.57384  0.79913  1.0000
  C   C1847     1.0  0.04681  0.55891  0.79926  1.0000
  C   C1848     1.0  0.04681  0.54440  0.81429  1.0000
  C   C1849     1.0  0.05429  0.54479  0.82899  1.0000
  H   H1477     1.0  0.06727  0.58578  0.81360  1.0000
  H   H1478     1.0  0.05427  0.58506  0.78751  1.0000
  H   H1479     1.0  0.04118  0.53283  0.81455  1.0000
  H   H1480     1.0  0.05431  0.53350  0.84047  1.0000
  C   C1850     1.0  0.15260  0.62268  0.82380  1.0000
  C   C1851     1.0  0.17148  0.62267  0.81809  1.0000
  C   C1852     1.0  0.17796  0.63902  0.81422  1.0000
  C   C1853     1.0  0.16550  0.65542  0.81595  1.0000
  C   C1854     1.0  0.14665  0.65542  0.82124  1.0000
  C   C1855     1.0  0.14025  0.63917  0.82498  1.0000
  H   H1481     1.0  0.18110  0.60997  0.81688  1.0000
  H   H1482     1.0  0.19252  0.63891  0.81012  1.0000
  H   H1483     1.0  0.13689  0.66797  0.82262  1.0000
  H   H1484     1.0  0.12572  0.63941  0.82887  1.0000
  C   C1856     1.0  0.10106  0.59649  0.91500  1.0000
  C   C1857     1.0  0.11843  0.59512  0.90352  1.0000
  C   C1858     1.0  0.13427  0.59071  0.91097  1.0000
  C   C1859     1.0  0.13282  0.58751  0.92990  1.0000
  C   C1860     1.0  0.11549  0.58821  0.94138  1.0000
  C   C1861     1.0  0.09964  0.59283  0.93394  1.0000
  H   H1485     1.0  0.11966  0.59788  0.88887  1.0000
  H   H1486     1.0  0.14764  0.58994  0.90203  1.0000
  H   H1487     1.0  0.14069  0.64269  0.95000  1.0000
  H   H1488     1.0  0.08624  0.59359  0.94287  1.0000
  H   H1489     1.0  0.13562  0.69680  0.80343  1.0000
  Fe  Fe126     1.0  0.04147  0.89343  0.80122  1.0000
  P   P62       1.0  0.08467  0.52803  0.94800  1.0000
  H   H1490     1.0  0.11277  0.85497  0.85927  1.0000
  C   C1862     1.0  0.00990  0.96741  0.85541  1.0000
  S   S258      1.0  0.03668  0.92140  0.78391  1.0000
  H   H1491     1.0  0.21522  0.92506  0.81992  1.0000
  C   C1863     1.0  0.17260  0.61144  0.76558  1.0000
  H   H1492     1.0  0.01062  0.59926  0.80992  1.0000
  C   C1864     1.0  0.01540  0.63135  0.83067  1.0000
  C   C1865     1.0  0.02158  0.61973  0.84587  1.0000
  H   H1493     1.0  0.09191  0.91441  0.84492  1.0000
  C   C1866     1.0  0.17879  0.59538  0.77752  1.0000
  C   C1867     1.0  0.00956  0.97002  0.73550  1.0000
  C   C1868     1.0  0.98781  0.81172  0.91023  1.0000
  C   C1869     1.0  0.19111  0.60607  0.93041  1.0000
  H   H1494     1.0  0.10253  0.96430  0.89362  1.0000
  H   H1495     1.0  0.14033  0.89816  0.80586  1.0000
  C   C1870     1.0  0.00343  0.77266  0.89760  1.0000
  C   C1871     1.0  0.07432  0.68203  0.86389  1.0000
  C   C1872     1.0  0.98949  0.84651  0.81755  1.0000
  H   H1496     1.0  0.22802  0.89763  0.73412  1.0000
  H   H1497     1.0  0.01027  0.47787  0.82310  1.0000
  H   H1498     1.0  0.02410  0.47883  0.86018  1.0000
  H   H1499     1.0  0.03781  0.68511  0.81237  1.0000
  C   C1873     1.0  0.01377  0.60520  0.81971  1.0000
  H   H1500     1.0  0.16643  0.90450  0.84461  1.0000
  H   H1501     1.0  0.06570  0.68989  0.83827  1.0000
  C   C1874     1.0  0.03941  0.66019  0.85518  1.0000
  S   S259      1.0  0.22280  0.73384  0.75607  1.0000
  Fe  Fe127     1.0  0.99481  0.51707  0.78385  1.0000
  S   S260      1.0  0.03554  0.51294  0.72069  1.0000
  C   C1875     1.0  0.17258  0.67523  0.86142  1.0000
  C   C1876     1.0  0.18163  0.66308  0.87477  1.0000
  C   C1877     1.0  0.02052  0.83338  0.76141  1.0000
  P   P63       1.0  0.17593  0.64084  0.88462  1.0000
  C   C1878     1.0  0.18198  0.63186  0.90681  1.0000
  C   C1879     1.0  0.15168  0.64189  0.88702  1.0000
  C   C1880     1.0  0.13996  0.63975  0.90430  1.0000
  C   C1881     1.0  0.12156  0.63905  0.90591  1.0000
  C   C1882     1.0  0.11474  0.64056  0.89037  1.0000
  C   C1883     1.0  0.12624  0.64303  0.87318  1.0000
  C   C1884     1.0  0.14464  0.64345  0.87150  1.0000
  C   C1885     1.0  0.18803  0.62577  0.86906  1.0000
  C   C1886     1.0  0.20365  0.62972  0.85592  1.0000
  C   C1887     1.0  0.21242  0.61835  0.84347  1.0000
  C   C1888     1.0  0.20557  0.60311  0.84389  1.0000
  C   C1889     1.0  0.18998  0.59916  0.85682  1.0000
  C   C1890     1.0  0.18129  0.61036  0.86941  1.0000
  H   H1502     1.0  0.15760  0.68123  0.93481  1.0000
  H   H1503     1.0  0.16138  0.67207  0.85749  1.0000
  H   H1504     1.0  0.01614  0.85836  0.83519  1.0000
  H   H1505     1.0  0.14506  0.63796  0.91657  1.0000
  H   H1506     1.0  0.11268  0.63669  0.91923  1.0000
  H   H1507     1.0  0.10066  0.63935  0.89168  1.0000
  H   H1508     1.0  0.12103  0.64429  0.86109  1.0000
  H   H1509     1.0  0.15349  0.64446  0.85807  1.0000
  H   H1510     1.0  0.18668  0.60347  0.90503  1.0000
  H   H1511     1.0  0.17661  0.65818  0.91410  1.0000
  H   H1512     1.0  0.20890  0.64174  0.85492  1.0000
  H   H1513     1.0  0.13207  0.92467  0.71821  1.0000
  H   H1514     1.0  0.21208  0.59459  0.83393  1.0000
  H   H1515     1.0  0.18430  0.58766  0.85680  1.0000
  H   H1516     1.0  0.16906  0.60720  0.87914  1.0000
  C   C1891     1.0  0.06272  0.95012  0.84387  1.0000
  C   C1892     1.0  0.06196  0.94953  0.82616  1.0000
  C   C1893     1.0  0.05528  0.93554  0.82316  1.0000
  C   C1894     1.0  0.04928  0.92219  0.83785  1.0000
  C   C1895     1.0  0.04976  0.92284  0.85570  1.0000
  C   C1896     1.0  0.05690  0.93665  0.85857  1.0000
  P   P64       1.0  0.04478  0.90408  0.87411  1.0000
  C   C1897     1.0  0.03816  0.91089  0.89588  1.0000
  C   C1898     1.0  0.04400  0.89933  0.91141  1.0000
  C   C1899     1.0  0.03788  0.90449  0.92837  1.0000
  H   H1517     1.0  0.99671  0.67330  0.77144  1.0000
  C   C1900     1.0  0.01237  0.96302  0.83826  1.0000
  C   C1901     1.0  0.03557  0.86466  0.74694  1.0000
  C   C1902     1.0  0.06555  0.88706  0.87135  1.0000
  C   C1903     1.0  0.08040  0.88732  0.87873  1.0000
  C   C1904     1.0  0.09729  0.87555  0.87463  1.0000
  C   C1905     1.0  0.09957  0.86377  0.86281  1.0000
  C   C1906     1.0  0.99475  0.90332  0.86524  1.0000
  H   H1518     1.0  0.19416  0.61246  0.95491  1.0000
  H   H1519     1.0  0.05475  0.93495  0.80945  1.0000
  H   H1520     1.0  0.04460  0.91118  0.83522  1.0000
  H   H1521     1.0  0.05829  0.93681  0.87210  1.0000
  H   H1522     1.0  0.05306  0.88627  0.91055  1.0000
  H   H1523     1.0  0.19618  0.65848  0.72458  1.0000
  H   H1524     1.0  0.08604  0.90310  0.73753  1.0000
  C   C1907     1.0  0.02551  0.92723  0.89774  1.0000
  H   H1525     1.0  0.00353  0.56761  0.81164  1.0000
  H   H1526     1.0  0.07913  0.89699  0.88718  1.0000
  H   H1527     1.0  0.10875  0.87590  0.88024  1.0000
  C   C1908     1.0  0.14743  0.59137  0.78986  1.0000
  S   S261      1.0  0.99914  0.70227  0.86903  1.0000
  H   H1528     1.0  0.13769  0.58389  0.79964  1.0000
  C   C1909     1.0  0.00963  0.50588  0.85103  1.0000
  C   C1910     1.0  0.16140  0.96679  0.78696  1.0000
  C   C1911     1.0  0.11939  0.62767  0.95475  1.0000
  H   H1529     1.0  0.02030  0.93608  0.88610  1.0000
  C   C1912     1.0  0.09473  0.52021  0.73127  1.0000
  H   H1530     1.0  0.11428  0.58523  0.95598  1.0000
  C   C1913     1.0  0.02568  0.67178  0.86510  1.0000
  C   C1914     1.0  0.23150  0.77782  0.82887  1.0000
  C   C1915     1.0  0.21719  0.91471  0.81207  1.0000
  C   C1916     1.0  0.21342  0.62540  0.77060  1.0000
  C   C1917     1.0  0.12161  0.95505  0.87047  1.0000
  C   C1918     1.0  0.11037  0.90298  0.71617  1.0000
  C   C1919     1.0  0.08576  0.50370  0.95374  1.0000
  H   H1531     1.0  0.06057  0.48360  0.84402  1.0000
  H   H1532     1.0  0.02410  0.96601  0.82776  1.0000
  H   H1533     1.0  0.12655  0.61196  0.77846  1.0000
  C   C1920     1.0  0.08823  0.68076  0.87308  1.0000
  C   C1921     1.0  0.02105  0.60649  0.76082  1.0000
  C   C1922     1.0  0.06486  0.49088  0.88779  1.0000
  H   H1534     1.0  0.02215  0.96367  0.77614  1.0000
  H   H1535     1.0  0.06657  0.95984  0.81474  1.0000
  C   C1923     1.0  0.09318  0.50425  0.89380  1.0000
  C   C1924     1.0  0.08533  0.51247  0.87853  1.0000
  C   C1925     1.0  0.07146  0.50562  0.87537  1.0000
  H   H1536     1.0  0.10784  0.89685  0.82090  1.0000
  H   H1537     1.0  0.04663  0.64761  0.86227  1.0000
  H   H1538     1.0  0.04128  0.87687  0.74148  1.0000
  H   H1539     1.0  0.11938  0.89495  0.72536  1.0000
  C   C1926     1.0  0.18318  0.90202  0.86376  1.0000
  H   H1540     1.0  0.03155  0.95185  0.74750  1.0000
  H   H1541     1.0  0.23279  0.62684  0.78581  1.0000
  H   H1542     1.0  0.00576  0.85881  0.88559  1.0000
  C   C1927     1.0  0.01385  0.78504  0.86559  1.0000
  C   C1928     1.0  0.01940  0.84799  0.84690  1.0000
  H   H1543     1.0  0.19754  0.97000  0.80312  1.0000
  C   C1929     1.0  0.02502  0.89645  0.87255  1.0000
  C   C1930     1.0  0.04375  0.66492  0.83615  1.0000
  C   C1931     1.0  0.02310  0.87836  0.88004  1.0000
  C   C1932     1.0  0.98985  0.62157  0.75835  1.0000
  H   H1544     1.0  0.10398  0.50953  0.89616  1.0000
  H   H1545     1.0  0.09002  0.52414  0.86903  1.0000
  H   H1546     1.0  0.06611  0.51174  0.86310  1.0000
  Fe  Fe128     1.0  0.22224  0.96212  0.84407  1.0000
  C   C1933     1.0  0.22880  0.70612  0.89585  1.0000
  C   C1934     1.0  0.01678  0.65644  0.78711  1.0000
  C   C1935     1.0  0.00594  0.60939  0.75275  1.0000
  H   H1547     1.0  0.13863  0.54634  0.95694  1.0000
  C   C1936     1.0  0.04297  0.94375  0.95666  1.0000
  H   H1548     1.0  0.23305  0.73360  0.89099  1.0000
  Fe  Fe129     1.0  0.22387  0.70740  0.77674  1.0000
  C   C1937     1.0  0.00678  0.52433  0.85144  1.0000
  C   C1938     1.0  0.07330  0.48228  0.90274  1.0000
  C   C1939     1.0  0.13267  0.54246  0.94753  1.0000
  H   H1549     1.0  0.03380  0.86864  0.88615  1.0000
  C   C1940     1.0  0.23038  0.62045  0.77591  1.0000
  H   H1550     1.0  0.18495  0.92721  0.72512  1.0000
  H   H1551     1.0  0.19889  0.70756  0.84814  1.0000
  C   C1941     1.0  0.01018  0.84918  0.75242  1.0000
  H   H1552     1.0  0.23225  0.60785  0.91737  1.0000
  C   C1942     1.0  0.19498  0.96713  0.88823  1.0000
  H   H1553     1.0  0.21709  0.63051  0.71693  1.0000
  C   C1943     1.0  0.12795  0.68748  0.93806  1.0000
  C   C1944     1.0  0.14606  0.68704  0.92813  1.0000
  C   C1945     1.0  0.14947  0.69369  0.90924  1.0000
  C   C1946     1.0  0.13485  0.70061  0.90011  1.0000
  C   C1947     1.0  0.11681  0.70090  0.90985  1.0000
  C   C1948     1.0  0.11336  0.69428  0.92873  1.0000
  C   C1949     1.0  0.17859  0.69134  0.85212  1.0000
  C   C1950     1.0  0.05351  0.53561  0.90956  1.0000
  C   C1951     1.0  0.02006  0.59361  0.83489  1.0000
  C   C1952     1.0  0.19375  0.69545  0.85592  1.0000
  H   H1554     1.0  0.01026  0.87704  0.73791  1.0000
  H   H1555     1.0  0.22272  0.59854  0.73921  1.0000
  H   H1556     1.0  0.16441  0.64335  0.77880  1.0000
  H   H1557     1.0  0.03160  0.80969  0.88776  1.0000
  C   C1953     1.0  0.00610  0.83825  0.85786  1.0000
  H   H1558     1.0  0.12865  0.61621  0.94958  1.0000
  H   H1559     1.0  0.15094  0.93484  0.73358  1.0000
  H   H1560     1.0  0.03451  0.52158  0.88040  1.0000
  C   C1954     1.0  0.22500  0.76221  0.83909  1.0000
  H   H1561     1.0  0.23314  0.65258  0.71572  1.0000
  Fe  Fe130     1.0  0.04436  0.96877  0.91495  1.0000
  C   C1955     1.0  0.00075  0.84000  0.71508  1.0000
  H   H1562     1.0  0.16344  0.69334  0.90160  1.0000
  H   H1563     1.0  0.13753  0.70564  0.88546  1.0000
  H   H1564     1.0  0.10548  0.70609  0.90274  1.0000
  H   H1565     1.0  0.09933  0.69415  0.93602  1.0000
  C   C1956     1.0  0.14237  0.91701  0.82122  1.0000
  C   C1957     1.0  0.99006  0.57309  0.80830  1.0000
  C   C1958     1.0  0.02190  0.49306  0.86077  1.0000
  H   H1566     1.0  0.00714  0.82842  0.90894  1.0000
  S   S262      1.0  0.00687  0.78501  0.81944  1.0000
  H   H1567     1.0  0.05954  0.51509  0.93267  1.0000
  C   C1959     1.0  0.19697  0.66731  0.87838  1.0000
  C   C1960     1.0  0.07272  0.53785  0.92928  1.0000
  C   C1961     1.0  0.10738  0.53327  0.94097  1.0000
  C   C1962     1.0  0.11704  0.53337  0.92292  1.0000
  C   C1963     1.0  0.13429  0.53818  0.91720  1.0000
  C   C1964     1.0  0.14210  0.54271  0.92951  1.0000
  H   H1568     1.0  0.16705  0.69927  0.75572  1.0000
  C   C1965     1.0  0.16401  0.67180  0.76863  1.0000
  H   H1569     1.0  0.03202  0.61349  0.78048  1.0000
  H   H1570     1.0  0.20483  0.65783  0.88784  1.0000
  C   C1966     1.0  0.05630  0.55246  0.89869  1.0000
  C   C1967     1.0  0.06701  0.56214  0.90321  1.0000
  C   C1968     1.0  0.07518  0.55493  0.91841  1.0000
  H   H1571     1.0  0.05916  0.84913  0.75805  1.0000
  H   H1572     1.0  0.06240  0.56425  0.95252  1.0000
  C   C1969     1.0  0.01018  0.82461  0.87296  1.0000
  C   C1970     1.0  0.99311  0.88518  0.87226  1.0000
  H   H1573     1.0  0.20602  0.85223  0.80734  1.0000
  H   H1574     1.0  0.21154  0.76058  0.83859  1.0000
  C   C1971     1.0  0.00718  0.87277  0.87987  1.0000
  Fe  Fe131     1.0  0.98588  0.76736  0.83380  1.0000
  C   C1972     1.0  0.98830  0.57725  0.79010  1.0000
  H   H1575     1.0  0.18483  0.64582  0.94442  1.0000
  C   C1973     1.0  0.04840  0.72326  0.79035  1.0000
  H   H1576     1.0  0.11110  0.53009  0.91315  1.0000
  H   H1577     1.0  0.14145  0.53875  0.90313  1.0000
  H   H1578     1.0  0.15527  0.54687  0.92503  1.0000
  S   S263      1.0  0.22749  0.65996  0.80918  1.0000
  S   S264      1.0  0.23418  0.96122  0.81461  1.0000
  H   H1579     1.0  0.22829  0.67763  0.90185  1.0000
  C   C1974     1.0  0.03804  0.73583  0.80106  1.0000
  H   H1580     1.0  0.05032  0.55798  0.88665  1.0000
  H   H1581     1.0  0.06914  0.57523  0.89483  1.0000
  H   H1582     1.0  0.08361  0.56264  0.92150  1.0000
  C   C1975     1.0  0.17463  0.95808  0.81926  1.0000
  C   C1976     1.0  0.17807  0.61472  0.72217  1.0000
  H   H1583     1.0  0.01519  0.82101  0.76689  1.0000
  H   H1584     1.0  0.06174  0.67742  0.87123  1.0000
  H   H1585     1.0  0.01360  0.70557  0.82994  1.0000
  C   C1977     1.0  0.01017  0.67159  0.77440  1.0000
  C   C1978     1.0  0.08495  0.86373  0.85513  1.0000
  C   C1979     1.0  0.04498  0.73878  0.81488  1.0000
  C   C1980     1.0  0.06235  0.72927  0.81793  1.0000
  C   C1981     1.0  0.07301  0.71680  0.80704  1.0000
  C   C1982     1.0  0.06583  0.71378  0.79328  1.0000
  P   P65       1.0  0.09543  0.70454  0.81122  1.0000
  C   C1983     1.0  0.10357  0.68624  0.79878  1.0000
  C   C1984     1.0  0.11211  0.71919  0.80381  1.0000
  C   C1985     1.0  0.10659  0.73825  0.80043  1.0000
  C   C1986     1.0  0.11975  0.74929  0.79458  1.0000
  C   C1987     1.0  0.13846  0.74142  0.79202  1.0000
  C   C1988     1.0  0.14406  0.72248  0.79527  1.0000
  C   C1989     1.0  0.13096  0.71143  0.80107  1.0000
  C   C1990     1.0  0.11235  0.68978  0.78032  1.0000
  C   C1991     1.0  0.11832  0.67580  0.77045  1.0000
  C   C1992     1.0  0.11546  0.65824  0.77891  1.0000
  C   C1993     1.0  0.10672  0.65463  0.79722  1.0000
  C   C1994     1.0  0.10079  0.66856  0.80715  1.0000
  C   C1995     1.0  0.09287  0.69509  0.83541  1.0000
  H   H1586     1.0  0.13844  0.95499  0.80291  1.0000
  H   H1587     1.0  0.05489  0.82733  0.86848  1.0000
  C   C1996     1.0  0.07661  0.68915  0.84515  1.0000
  H   H1588     1.0  0.06495  0.92084  0.71698  1.0000
  H   H1589     1.0  0.01157  0.92312  0.86021  1.0000
  S   S265      1.0  0.01366  0.51556  0.80247  1.0000
  H   H1590     1.0  0.14870  0.62970  0.75680  1.0000
  H   H1591     1.0  0.07348  0.70397  0.78494  1.0000
  H   H1592     1.0  0.09223  0.74471  0.80217  1.0000
  H   H1593     1.0  0.11544  0.76400  0.79197  1.0000
  H   H1594     1.0  0.14865  0.74998  0.78747  1.0000
  H   H1595     1.0  0.09366  0.48236  0.91735  1.0000
  C   C1997     1.0  0.18673  0.61298  0.91314  1.0000
  H   H1596     1.0  0.11449  0.70336  0.77352  1.0000
  H   H1597     1.0  0.12516  0.67857  0.75625  1.0000
  H   H1598     1.0  0.17093  0.57335  0.79923  1.0000
  H   H1599     1.0  0.16646  0.83995  0.71806  1.0000
  C   C1998     1.0  0.18031  0.64843  0.75110  1.0000
  Fe  Fe132     1.0  0.20393  0.86235  0.73768  1.0000
  H   H1600     1.0  0.04030  0.64241  0.79946  1.0000
  H   H1601     1.0  0.08684  0.85515  0.84540  1.0000
  H   H1602     1.0  0.05714  0.87577  0.85255  1.0000
  S   S266      1.0  0.02915  0.88115  0.78497  1.0000
  C   C1999     1.0  0.02551  0.92091  0.93002  1.0000
  C   C2000     1.0  0.11328  0.51567  0.72322  1.0000
  H   H1603     1.0  0.06745  0.73159  0.82882  1.0000
  H   H1604     1.0  0.00037  0.57505  0.77944  1.0000
  H   H1605     1.0  0.02931  0.59181  0.85946  1.0000
  Fe  Fe133     1.0  0.00987  0.92596  0.80374  1.0000
  Fe  Fe134     1.0  0.02176  0.90982  0.76935  1.0000
  Fe  Fe135     1.0  0.00286  0.88856  0.80463  1.0000
  C   C2001     1.0  0.00745  0.83890  0.80986  1.0000
  C   C2002     1.0  0.03454  0.65422  0.79019  1.0000
  C   C2003     1.0  0.10691  0.69353  0.84469  1.0000
  C   C2004     1.0  0.10196  0.49156  0.94807  1.0000
  C   C2005     1.0  0.20290  0.68347  0.86909  1.0000
  H   H1606     1.0  0.08641  0.67518  0.88761  1.0000
  H   H1607     1.0  0.22291  0.78816  0.82058  1.0000
  H   H1608     1.0  0.00659  0.82684  0.72251  1.0000
  C   C2006     1.0  0.99199  0.91426  0.73759  1.0000
  H   H1609     1.0  0.99601  0.77414  0.91118  1.0000
  C   C2007     1.0  0.01924  0.93219  0.91474  1.0000
  H   H1610     1.0  0.22408  0.87760  0.78389  1.0000
  C   C2008     1.0  0.20198  0.91074  0.80797  1.0000
  H   H1611     1.0  0.99027  0.90916  0.75215  1.0000
  C   C2009     1.0  0.21586  0.84424  0.81566  1.0000
  C   C2010     1.0  0.18830  0.96888  0.90652  1.0000
  H   H1612     1.0  0.02978  0.76563  0.84920  1.0000
  C   C2011     1.0  0.19119  0.62149  0.72698  1.0000
  C   C2012     1.0  0.13325  0.90599  0.81635  1.0000
  H   H1613     1.0  0.03713  0.48716  0.92152  1.0000
  H   H1614     1.0  0.19430  0.59146  0.93539  1.0000
  H   H1615     1.0  0.09545  0.61579  0.96082  1.0000
  C   C2013     1.0  0.22209  0.88793  0.79172  1.0000
  C   C2014     1.0  0.21049  0.61779  0.75714  1.0000
  C   C2015     1.0  0.03142  0.49857  0.87105  1.0000
  C   C2016     1.0  0.02408  0.60085  0.84790  1.0000
  C   C2017     1.0  0.21567  0.84881  0.83206  1.0000
  C   C2018     1.0  0.11504  0.90515  0.82485  1.0000
  H   H1616     1.0  0.02217  0.57898  0.83639  1.0000
  H   H1617     1.0  0.18393  0.93557  0.88459  1.0000
  C   C2019     1.0  0.18817  0.91067  0.87508  1.0000
  C   C2020     1.0  0.10455  0.68643  0.86348  1.0000
  H   H1618     1.0  0.01737  0.84748  0.80349  1.0000
  H   H1619     1.0  0.11970  0.69769  0.83752  1.0000
  C   C2021     1.0  0.19079  0.61792  0.94150  1.0000
  P   P66       1.0  0.18866  0.62462  0.75005  1.0000
  C   C2022     1.0  0.15790  0.95367  0.81944  1.0000
  H   H1620     1.0  0.00945  0.94481  0.91609  1.0000
  C   C2023     1.0  0.17980  0.92870  0.87614  1.0000
  C   C2024     1.0  0.12809  0.95898  0.85148  1.0000
  H   H1621     1.0  0.22292  0.94630  0.95936  1.0000
  H   H1622     1.0  0.16616  0.61115  0.73205  1.0000
  H   H1623     1.0  0.18991  0.88815  0.86268  1.0000
  H   H1624     1.0  0.11548  0.68509  0.87055  1.0000
  C   C2025     1.0  0.04120  0.83049  0.86566  1.0000
  H   H1625     1.0  0.15858  0.71631  0.79332  1.0000
  H   H1626     1.0  0.21517  0.68632  0.87136  1.0000
  S   S267      1.0  0.02677  0.91758  0.73842  1.0000
  C   C2026     1.0  0.15752  0.92702  0.72304  1.0000
  H   H1627     1.0  0.04589  0.82131  0.77074  1.0000
  S   S268      1.0  0.20738  0.80504  0.78823  1.0000
  H   H1628     1.0  0.06689  0.52188  0.72916  1.0000
  C   C2027     1.0  0.01628  0.68817  0.85606  1.0000
  H   H1629     1.0  0.04282  0.72080  0.77986  1.0000
  C   C2028     1.0  0.04519  0.66735  0.78127  1.0000
  H   H1630     1.0  0.02079  0.92498  0.94313  1.0000
  C   C2029     1.0  0.03312  0.47133  0.90386  1.0000
  C   C2030     1.0  0.15369  0.61734  0.76591  1.0000
  H   H1631     1.0  0.04722  0.85162  0.84202  1.0000
  C   C2031     1.0  0.03233  0.95980  0.96188  1.0000
  C   C2032     1.0  0.00382  0.62753  0.78063  1.0000
  C   C2033     1.0  0.06168  0.52830  0.92478  1.0000
  H   H1632     1.0  0.01430  0.79639  0.85402  1.0000
  C   C2034     1.0  0.03811  0.83341  0.76346  1.0000
  C   C2035     1.0  0.16898  0.65350  0.76715  1.0000
  H   H1633     1.0  0.03675  0.74843  0.82324  1.0000
  H   H1634     1.0  0.06796  0.96091  0.84624  1.0000
  H   H1635     1.0  0.12724  0.94231  0.87871  1.0000
  C   C2036     1.0  0.14684  0.92097  0.71444  1.0000
  C   C2037     1.0  0.16643  0.93811  0.86592  1.0000
  H   H1636     1.0  0.98760  0.87099  0.77576  1.0000
  C   C2038     1.0  0.08131  0.51810  0.72314  1.0000
  C   C2039     1.0  0.02794  0.82063  0.87661  1.0000
  S   S269      1.0  0.00077  0.95347  0.81186  1.0000
  C   C2040     1.0  0.21822  0.75239  0.78339  1.0000
  H   H1637     1.0  0.99764  0.53428  0.84346  1.0000
  H   H1638     1.0  0.16066  0.95230  0.86644  1.0000
  C   C2041     1.0  0.01216  0.75516  0.89471  1.0000
  C   C2042     1.0  0.03693  0.84415  0.85077  1.0000
  C   C2043     1.0  0.10754  0.96743  0.87898  1.0000
  H   H1639     1.0  0.01552  0.69654  0.75596  1.0000
  C   C2044     1.0  0.16976  0.91137  0.85355  1.0000
  H   H1640     1.0  0.15551  0.67554  0.78114  1.0000
  C   C2045     1.0  0.99400  0.96494  0.86857  1.0000
  C   C2046     1.0  0.11513  0.92611  0.84341  1.0000
  C   C2047     1.0  0.02193  0.75262  0.87735  1.0000
  P   P67       1.0  0.14501  0.94222  0.84027  1.0000
  H   H1641     1.0  0.09069  0.52550  0.74374  1.0000
  H   H1642     1.0  0.19562  0.96892  0.95101  1.0000
  C   C2048     1.0  0.13339  0.92724  0.83475  1.0000
  S   S270      1.0  0.21469  0.85445  0.76373  1.0000
  H   H1643     1.0  0.01104  0.74352  0.90588  1.0000
  C   C2049     1.0  0.02010  0.61572  0.77451  1.0000
  C   C2050     1.0  0.11534  0.53787  0.95324  1.0000
  C   C2051     1.0  0.15131  0.95821  0.80315  1.0000
  C   C2052     1.0  0.22464  0.60480  0.74944  1.0000
  C   C2053     1.0  0.00843  0.91947  0.72768  1.0000
  C   C2054     1.0  0.04562  0.84904  0.75626  1.0000
  S   S271      1.0  0.98821  0.74129  0.82479  1.0000
  H   H1644     1.0  0.22712  0.89740  0.85378  1.0000
  C   C2055     1.0  0.02072  0.69295  0.83702  1.0000
  H   H1645     1.0  0.22090  0.73921  0.79225  1.0000
  C   C2056     1.0  0.02277  0.76757  0.86281  1.0000
  H   H1646     1.0  0.01378  0.96433  0.72332  1.0000
  H   H1647     1.0  0.02458  0.74326  0.79875  1.0000
  H   H1648     1.0  0.10493  0.71598  0.95536  1.0000
  C   C2057     1.0  0.01182  0.62415  0.81726  1.0000
  C   C2058     1.0  0.10603  0.91514  0.83841  1.0000
  C   C2059     1.0  0.14116  0.60731  0.77801  1.0000
  H   H1649     1.0  0.02230  0.66805  0.87983  1.0000
  H   H1650     1.0  0.18017  0.95480  0.83149  1.0000
  H   H1651     1.0  0.03126  0.47541  0.73678  1.0000
  H   H1652     1.0  0.02662  0.81419  0.80476  1.0000
  C   C2060     1.0  0.99126  0.82240  0.93595  1.0000
  C   C2061     1.0  0.01270  0.82000  0.81065  1.0000
  C   C2062     1.0  0.01060  0.90897  0.86547  1.0000
  H   H1653     1.0  0.06610  0.48321  0.74578  1.0000
  C   C2063     1.0  0.17051  0.68517  0.75431  1.0000
  C   C2064     1.0  0.00004  0.80861  0.81904  1.0000
  H   H1654     1.0  0.22428  0.62161  0.83318  1.0000
  H   H1655     1.0  0.20764  0.95770  0.88452  1.0000
  H   H1656     1.0  0.11435  0.49646  0.94077  1.0000
  C   C2065     1.0  0.18194  0.68026  0.73840  1.0000
  H   H1657     1.0  0.23135  0.73608  0.85674  1.0000
  H   H1658     1.0  0.02465  0.62544  0.85594  1.0000
  C   C2066     1.0  0.10071  0.62743  0.96105  1.0000
  C   C2067     1.0  0.22468  0.95836  0.94887  1.0000
  C   C2068     1.0  0.00425  0.78778  0.88304  1.0000
  P   P68       1.0  0.12328  0.67697  0.96198  1.0000
  H   H1659     1.0  0.19578  0.96060  0.91686  1.0000
  H   H1660     1.0  0.15638  0.97000  0.77440  1.0000
  H   H1661     1.0  0.21441  0.76723  0.80455  1.0000
  C   C2069     1.0  0.11440  0.65742  0.96217  1.0000
  C   C2070     1.0  0.01973  0.96284  0.74925  1.0000
  C   C2071     1.0  0.10231  0.47281  0.95195  1.0000
  H   H1662     1.0  0.20586  0.86050  0.83625  1.0000
  H   H1663     1.0  0.99286  0.84124  0.85414  1.0000
  P   P69       1.0  0.99373  0.81071  0.88630  1.0000
  C   C2072     1.0  0.18462  0.96675  0.80308  1.0000
  H   H1664     1.0  0.18734  0.69058  0.72744  1.0000
  H   H1665     1.0  0.21544  0.77183  0.73930  1.0000
  H   H1666     1.0  0.98456  0.67616  0.80556  1.0000
  H   H1667     1.0  0.01361  0.64595  0.82929  1.0000
  H   H1668     1.0  0.22807  0.82583  0.79748  1.0000
  P   P70       1.0  0.98763  0.84969  0.74899  1.0000
  H   H1669     1.0  0.12368  0.51745  0.72947  1.0000
  H   H1670     1.0  0.14968  0.69762  0.96359  1.0000
  H   H1671     1.0  0.22760  0.84151  0.85594  1.0000
  C   C2073     1.0  0.03074  0.47656  0.92058  1.0000
  C   C2074     1.0  0.22799  0.83818  0.84304  1.0000
  C   C2075     1.0  0.22858  0.82930  0.81001  1.0000
  H   H1672     1.0  0.22720  0.61579  0.88563  1.0000
  H   H1673     1.0  0.01361  0.54419  0.86240  1.0000
  C   C2076     1.0  0.09149  0.90744  0.72311  1.0000
  C   C2077     1.0  0.07006  0.49678  0.96360  1.0000
  H   H1674     1.0  0.01876  0.47153  0.94938  1.0000
  Fe  Fe136     1.0  0.24599  0.00705  0.07542  1.0000
  Fe  Fe137     1.0  0.46713  0.41528  0.07668  1.0000
  S   S272      1.0  0.45002  0.44207  0.06590  1.0000
  S   S273      1.0  0.24593  0.19761  0.05399  1.0000
  Fe  Fe138     1.0  0.46629  0.39849  0.04505  1.0000
  S   S274      1.0  0.44926  0.42392  0.03159  1.0000
  H   H1675     1.0  0.43335  0.41670  0.10519  1.0000
  Fe  Fe139     1.0  0.46782  0.43844  0.03842  1.0000
  C   C2078     1.0  0.24588  0.16719  0.02362  1.0000
  Fe  Fe140     1.0  0.43295  0.42526  0.06013  1.0000
  S   S275      1.0  0.40206  0.42755  0.06765  1.0000
  C   C2079     1.0  0.24749  0.21453  0.97608  1.0000
  S   S276      1.0  0.44880  0.39859  0.07295  1.0000
  S   S277      1.0  0.28971  0.13448  0.16481  1.0000
  Fe  Fe141     1.0  0.27828  0.09797  0.14602  1.0000
  S   S278      1.0  0.29507  0.11834  0.12819  1.0000
  S   S279      1.0  0.27728  0.07282  0.13663  1.0000
  Fe  Fe142     1.0  0.30916  0.11262  0.15172  1.0000
  S   S280      1.0  0.33960  0.11199  0.14625  1.0000
  Fe  Fe143     1.0  0.27411  0.13857  0.14283  1.0000
  S   S281      1.0  0.26540  0.16845  0.13172  1.0000
  S   S282      1.0  0.25577  0.11886  0.15865  1.0000
  Fe  Fe144     1.0  0.27742  0.23008  0.99565  1.0000
  S   S283      1.0  0.28853  0.20884  0.01793  1.0000
  S   S284      1.0  0.27260  0.23906  0.04433  1.0000
  Fe  Fe145     1.0  0.29836  0.23122  0.02403  1.0000
  S   S285      1.0  0.32659  0.22463  0.03087  1.0000
  Fe  Fe146     1.0  0.26199  0.21847  0.03600  1.0000
  C   C2080     1.0  0.24737  0.08729  0.12004  1.0000
  S   S286      1.0  0.28955  0.25193  0.00010  1.0000
  Fe  Fe147     1.0  0.42397  0.31084  0.01130  1.0000
  S   S287      1.0  0.44930  0.28878  0.01187  1.0000
  S   S288      1.0  0.42025  0.34068  0.01143  1.0000
  Fe  Fe148     1.0  0.40019  0.28516  0.00940  1.0000
  S   S289      1.0  0.42332  0.26085  0.01026  1.0000
  S   S290      1.0  0.37171  0.28777  0.00493  1.0000
  Fe  Fe149     1.0  0.43024  0.27164  0.03168  1.0000
  S   S291      1.0  0.43466  0.25375  0.05892  1.0000
  Fe  Fe150     1.0  0.44021  0.28001  0.99037  1.0000
  S   S292      1.0  0.40539  0.29437  0.03247  1.0000
  S   S293      1.0  0.41659  0.30365  0.98815  1.0000
  S   S294      1.0  0.44675  0.11098  0.15898  1.0000
  H   H1676     1.0  0.31294  0.31795  0.97843  1.0000
  C   C2081     1.0  0.30928  0.97737  0.12402  1.0000
  H   H1677     1.0  0.37688  0.01425  0.09154  1.0000
  H   H1678     1.0  0.32627  0.21288  0.99844  1.0000
  S   S295      1.0  0.23818  0.03563  0.06028  1.0000
  S   S296      1.0  0.47757  0.37263  0.03404  1.0000
  C   C2082     1.0  0.27518  0.43340  0.11398  1.0000
  H   H1679     1.0  0.28189  0.42155  0.09010  1.0000
  H   H1680     1.0  0.38952  0.09712  0.17952  1.0000
  C   C2083     1.0  0.45589  0.12960  0.15923  1.0000
  C   C2084     1.0  0.42953  0.46434  0.16487  1.0000
  H   H1681     1.0  0.25508  0.21241  0.13471  1.0000
  H   H1682     1.0  0.47916  0.22215  0.09783  1.0000
  C   C2085     1.0  0.45942  0.15189  0.17464  1.0000
  C   C2086     1.0  0.45254  0.13653  0.17509  1.0000
  C   C2087     1.0  0.36810  0.14439  0.18132  1.0000
  H   H1683     1.0  0.42309  0.41222  0.01132  1.0000
  C   C2088     1.0  0.38305  0.25248  0.97199  1.0000
  H   H1684     1.0  0.44461  0.13009  0.18763  1.0000
  C   C2089     1.0  0.45674  0.24800  0.06410  1.0000
  C   C2090     1.0  0.47978  0.38155  0.96938  1.0000
  C   C2091     1.0  0.24927  0.07568  0.19454  1.0000
  C   C2092     1.0  0.24967  0.21100  0.16348  1.0000
  H   H1685     1.0  0.33251  0.99130  0.08742  1.0000
  C   C2093     1.0  0.45958  0.23617  0.08063  1.0000
  H   H1686     1.0  0.46940  0.26409  0.03936  1.0000
  H   H1687     1.0  0.23950  0.42621  0.14945  1.0000
  C   C2094     1.0  0.47706  0.23128  0.08509  1.0000
  H   H1688     1.0  0.44825  0.23073  0.08998  1.0000
  C   C2095     1.0  0.35927  0.27016  0.01341  1.0000
  C   C2096     1.0  0.34107  0.27374  0.01118  1.0000
  C   C2097     1.0  0.33093  0.25988  0.01661  1.0000
  C   C2098     1.0  0.33894  0.24230  0.02437  1.0000
  C   C2099     1.0  0.35708  0.23870  0.02692  1.0000
  C   C2100     1.0  0.36726  0.25263  0.02146  1.0000
  H   H1689     1.0  0.33479  0.28729  0.00521  1.0000
  H   H1690     1.0  0.31690  0.26284  0.01481  1.0000
  H   H1691     1.0  0.36329  0.22508  0.03297  1.0000
  H   H1692     1.0  0.38131  0.24979  0.02321  1.0000
  H   H1693     1.0  0.27295  0.04440  0.12174  1.0000
  C   C2101     1.0  0.35022  0.10072  0.16475  1.0000
  C   C2102     1.0  0.36762  0.10341  0.16467  1.0000
  H   H1694     1.0  0.37434  0.11237  0.15321  1.0000
  C   C2103     1.0  0.26222  0.17408  0.10920  1.0000
  C   C2104     1.0  0.44692  0.40946  0.98961  1.0000
  C   C2105     1.0  0.47355  0.15298  0.14274  1.0000
  C   C2106     1.0  0.25320  0.18774  0.07468  1.0000
  C   C2107     1.0  0.26642  0.19422  0.07945  1.0000
  C   C2108     1.0  0.27079  0.18750  0.09676  1.0000
  H   H1695     1.0  0.31140  0.97524  0.15191  1.0000
  H   H1696     1.0  0.27290  0.20474  0.07002  1.0000
  H   H1697     1.0  0.28052  0.19299  0.10069  1.0000
  C   C2109     1.0  0.38725  0.44439  0.07919  1.0000
  C   C2110     1.0  0.36922  0.44221  0.08759  1.0000
  C   C2111     1.0  0.32457  0.27702  0.96537  1.0000
  H   H1698     1.0  0.36473  0.43022  0.08700  1.0000
  C   C2112     1.0  0.47120  0.04549  0.15199  1.0000
  C   C2113     1.0  0.24972  0.16687  0.10413  1.0000
  C   C2114     1.0  0.26343  0.43456  0.13087  1.0000
  H   H1699     1.0  0.40230  0.24931  0.98901  1.0000
  H   H1700     1.0  0.28600  0.00722  0.02824  1.0000
  C   C2115     1.0  0.46113  0.36302  0.02946  1.0000
  C   C2116     1.0  0.46607  0.34544  0.02565  1.0000
  C   C2117     1.0  0.45336  0.33804  0.02091  1.0000
  C   C2118     1.0  0.43589  0.34849  0.01935  1.0000
  C   C2119     1.0  0.43089  0.36591  0.02351  1.0000
  C   C2120     1.0  0.44332  0.37297  0.02899  1.0000
  C   C2121     1.0  0.32148  0.30615  0.97330  1.0000
  H   H1701     1.0  0.45728  0.32459  0.01779  1.0000
  H   H1702     1.0  0.41734  0.37398  0.02249  1.0000
  H   H1703     1.0  0.43931  0.38637  0.03227  1.0000
  C   C2122     1.0  0.46885  0.34051  0.11244  1.0000
  C   C2123     1.0  0.40158  0.45409  0.13039  1.0000
  C   C2124     1.0  0.38689  0.14451  0.17718  1.0000
  H   H1704     1.0  0.23966  0.16927  0.03737  1.0000
  H   H1705     1.0  0.42895  0.23552  0.96755  1.0000
  H   H1706     1.0  0.30157  0.98118  0.09796  1.0000
  P   P71       1.0  0.25943  0.38981  0.20442  1.0000
  H   H1707     1.0  0.39984  0.41758  0.11430  1.0000
  C   C2125     1.0  0.26118  0.07223  0.12422  1.0000
  C   C2126     1.0  0.26218  0.05603  0.11866  1.0000
  C   C2127     1.0  0.47877  0.02903  0.14611  1.0000
  C   C2128     1.0  0.38519  0.01272  0.10147  1.0000
  S   S297      1.0  0.45851  0.07463  0.20329  1.0000
  H   H1708     1.0  0.32829  0.08679  0.17958  1.0000
  H   H1709     1.0  0.26944  0.45877  0.17962  1.0000
  C   C2129     1.0  0.28217  0.09601  0.96650  1.0000
  H   H1710     1.0  0.46556  0.44870  0.13280  1.0000
  H   H1711     1.0  0.46477  0.34115  0.12677  1.0000
  C   C2130     1.0  0.29530  0.42456  0.19137  1.0000
  C   C2131     1.0  0.24772  0.37890  0.17830  1.0000
  H   H1712     1.0  0.38874  0.97177  0.14574  1.0000
  H   H1713     1.0  0.47425  0.98494  0.13471  1.0000
  C   C2132     1.0  0.47479  0.99185  0.12059  1.0000
  H   H1714     1.0  0.43184  0.03233  0.18140  1.0000
  C   C2133     1.0  0.28166  0.99747  0.11529  1.0000
  C   C2134     1.0  0.46630  0.13793  0.14306  1.0000
  C   C2135     1.0  0.42957  0.41809  0.99765  1.0000
  C   C2136     1.0  0.25725  0.29628  0.06625  1.0000
  C   C2137     1.0  0.41026  0.99570  0.11631  1.0000
  H   H1715     1.0  0.33795  0.38056  0.00428  1.0000
  H   H1716     1.0  0.24653  0.09983  0.12426  1.0000
  H   H1717     1.0  0.34416  0.99232  0.05441  1.0000
  H   H1718     1.0  0.26333  0.05804  0.17567  1.0000
  S   S298      1.0  0.28224  0.22214  0.96823  1.0000
  H   H1719     1.0  0.28484  0.07325  0.98884  1.0000
  H   H1720     1.0  0.47424  0.18224  0.19436  1.0000
  H   H1721     1.0  0.27081  0.17483  0.02406  1.0000
  C   C2138     1.0  0.44640  0.19498  0.20353  1.0000
  C   C2139     1.0  0.35697  0.45538  0.09681  1.0000
  C   C2140     1.0  0.24927  0.37519  0.16110  1.0000
  C   C2141     1.0  0.26965  0.29842  0.11976  1.0000
  C   C2142     1.0  0.25026  0.06592  0.18129  1.0000
  H   H1722     1.0  0.28667  0.44027  0.10964  1.0000
  C   C2143     1.0  0.25808  0.12194  0.97257  1.0000
  H   H1723     1.0  0.26357  0.01186  0.13555  1.0000
  C   C2144     1.0  0.33831  0.97869  0.08259  1.0000
  C   C2145     1.0  0.28675  0.30093  0.10901  1.0000
  C   C2146     1.0  0.31165  0.13041  0.20402  1.0000
  Fe  Fe151     1.0  0.27284  0.11372  0.17982  1.0000
  C   C2147     1.0  0.23457  0.06677  0.17479  1.0000
  H   H1724     1.0  0.29194  0.38362  0.14130  1.0000
  Fe  Fe152     1.0  0.44504  0.05194  0.20316  1.0000
  H   H1725     1.0  0.23491  0.16876  0.08319  1.0000
  C   C2148     1.0  0.45763  0.45133  0.14596  1.0000
  C   C2149     1.0  0.38554  0.02836  0.19582  1.0000
  H   H1726     1.0  0.37159  0.25831  0.98156  1.0000
  C   C2150     1.0  0.45683  0.98236  0.17981  1.0000
  S   S299      1.0  0.26119  0.11268  0.20986  1.0000
  C   C2151     1.0  0.25964  0.45878  0.19245  1.0000
  H   H1727     1.0  0.25059  0.13548  0.96789  1.0000
  H   H1728     1.0  0.47983  0.33766  0.02610  1.0000
  H   H1729     1.0  0.30132  0.02756  0.03667  1.0000
  H   H1730     1.0  0.26819  0.27635  0.04916  1.0000
  C   C2152     1.0  0.40562  0.42750  0.11757  1.0000
  C   C2153     1.0  0.28194  0.41551  0.19068  1.0000
  C   C2154     1.0  0.27137  0.16944  0.99786  1.0000
  H   H1731     1.0  0.42912  0.45826  0.19375  1.0000
  C   C2155     1.0  0.29800  0.98498  0.11114  1.0000
  H   H1732     1.0  0.47899  0.43523  0.16010  1.0000
  H   H1733     1.0  0.28268  0.99759  0.15895  1.0000
  H   H1734     1.0  0.27312  0.00339  0.10520  1.0000
  H   H1735     1.0  0.39679  0.13276  0.17313  1.0000
  S   S300      1.0  0.26743  0.44627  0.14599  1.0000
  C   C2156     1.0  0.48026  0.35446  0.08126  1.0000
  C   C2157     1.0  0.24428  0.31208  0.06935  1.0000
  H   H1736     1.0  0.31700  0.36206  0.08159  1.0000
  H   H1737     1.0  0.46158  0.31455  0.11647  1.0000
  C   C2158     1.0  0.24860  0.42546  0.13636  1.0000
  C   C2159     1.0  0.27244  0.42275  0.10295  1.0000
  H   H1738     1.0  0.25340  0.17921  0.19860  1.0000
  H   H1739     1.0  0.48190  0.33954  0.06084  1.0000
  H   H1740     1.0  0.29979  0.43481  0.17977  1.0000
  C   C2160     1.0  0.47782  0.46166  0.96829  1.0000
  C   C2161     1.0  0.30337  0.98163  0.14147  1.0000
  C   C2162     1.0  0.25809  0.28849  0.05144  1.0000
  H   H1741     1.0  0.24516  0.05283  0.01079  1.0000
  H   H1742     1.0  0.36370  0.13248  0.18042  1.0000
  H   H1743     1.0  0.40672  0.46185  0.07333  1.0000
  H   H1744     1.0  0.48261  0.32926  0.98555  1.0000
  C   C2163     1.0  0.42446  0.42715  0.11220  1.0000
  H   H1745     1.0  0.42300  0.01507  0.16337  1.0000
  C   C2164     1.0  0.24595  0.29651  0.03955  1.0000
  H   H1746     1.0  0.36127  0.99655  0.14270  1.0000
  C   C2165     1.0  0.33354  0.21569  0.98442  1.0000
  S   S301      1.0  0.25581  0.39934  0.09457  1.0000
  C   C2166     1.0  0.25313  0.11282  0.99058  1.0000
  C   C2167     1.0  0.24626  0.23448  0.10057  1.0000
  C   C2168     1.0  0.43184  0.44052  0.11547  1.0000
  C   C2169     1.0  0.23526  0.06968  0.10533  1.0000
  H   H1747     1.0  0.23707  0.45869  0.18079  1.0000
  H   H1748     1.0  0.24491  0.22044  0.98792  1.0000
  C   C2170     1.0  0.26466  0.21347  0.96427  1.0000
  C   C2171     1.0  0.47205  0.32478  0.08790  1.0000
  H   H1749     1.0  0.24192  0.11952  0.99975  1.0000
  C   C2172     1.0  0.33966  0.23210  0.97735  1.0000
  S   S302      1.0  0.47830  0.17950  0.15803  1.0000
  H   H1750     1.0  0.45407  0.34917  0.97717  1.0000
  C   C2173     1.0  0.43384  0.00862  0.17082  1.0000
  C   C2174     1.0  0.27624  0.00217  0.13242  1.0000
  H   H1751     1.0  0.40252  0.98761  0.09507  1.0000
  H   H1752     1.0  0.25068  0.28041  0.13038  1.0000
  C   C2175     1.0  0.39420  0.44087  0.12682  1.0000
  H   H1753     1.0  0.47320  0.98612  0.19705  1.0000
  C   C2176     1.0  0.26354  0.17057  0.01602  1.0000
  H   H1754     1.0  0.46099  0.44007  0.19065  1.0000
  H   H1755     1.0  0.25812  0.02011  0.01492  1.0000
  S   S303      1.0  0.29377  0.09105  0.16882  1.0000
  H   H1756     1.0  0.44647  0.44010  0.11099  1.0000
  C   C2177     1.0  0.24560  0.41517  0.12511  1.0000
  C   C2178     1.0  0.35366  0.33720  0.99731  1.0000
  C   C2179     1.0  0.35294  0.35580  0.99532  1.0000
  C   C2180     1.0  0.33866  0.36609  0.00600  1.0000
  C   C2181     1.0  0.32539  0.35767  0.01902  1.0000
  C   C2182     1.0  0.32661  0.33880  0.02171  1.0000
  C   C2183     1.0  0.34032  0.32884  0.01021  1.0000
  P   P72       1.0  0.30978  0.32772  0.03864  1.0000
  C   C2184     1.0  0.29122  0.32989  0.02732  1.0000
  C   C2185     1.0  0.31937  0.30414  0.04709  1.0000
  C   C2186     1.0  0.33771  0.29890  0.04921  1.0000
  C   C2187     1.0  0.34522  0.28057  0.05528  1.0000
  C   C2188     1.0  0.33445  0.26738  0.05943  1.0000
  C   C2189     1.0  0.31607  0.27254  0.05779  1.0000
  C   C2190     1.0  0.30848  0.29088  0.05193  1.0000
  C   C2191     1.0  0.29176  0.31697  0.01720  1.0000
  C   C2192     1.0  0.27732  0.31853  0.00859  1.0000
  C   C2193     1.0  0.26245  0.33320  0.00965  1.0000
  C   C2194     1.0  0.26209  0.34645  0.01917  1.0000
  C   C2195     1.0  0.27651  0.34493  0.02782  1.0000
  C   C2196     1.0  0.30233  0.33818  0.05835  1.0000
  C   C2197     1.0  0.31426  0.34621  0.06347  1.0000
  C   C2198     1.0  0.30798  0.35532  0.07806  1.0000
  C   C2199     1.0  0.28992  0.35609  0.08788  1.0000
  C   C2200     1.0  0.27832  0.34730  0.08343  1.0000
  C   C2201     1.0  0.28455  0.33820  0.06887  1.0000
  H   H1757     1.0  0.36467  0.32914  0.98904  1.0000
  H   H1758     1.0  0.27964  0.45889  0.20716  1.0000
  H   H1759     1.0  0.31432  0.36585  0.02706  1.0000
  H   H1760     1.0  0.34084  0.31453  0.01139  1.0000
  H   H1761     1.0  0.34639  0.30887  0.04571  1.0000
  H   H1762     1.0  0.35962  0.27653  0.05608  1.0000
  H   H1763     1.0  0.34046  0.25310  0.06343  1.0000
  H   H1764     1.0  0.30781  0.26228  0.06063  1.0000
  H   H1765     1.0  0.29422  0.29462  0.05083  1.0000
  H   H1766     1.0  0.30316  0.30550  0.01618  1.0000
  H   H1767     1.0  0.27731  0.30805  0.00158  1.0000
  H   H1768     1.0  0.25103  0.33401  0.00343  1.0000
  H   H1769     1.0  0.25048  0.35775  0.02013  1.0000
  H   H1770     1.0  0.27603  0.35541  0.03502  1.0000
  H   H1771     1.0  0.32831  0.34574  0.05602  1.0000
  H   H1772     1.0  0.28483  0.36361  0.09884  1.0000
  H   H1773     1.0  0.26441  0.34765  0.09115  1.0000
  H   H1774     1.0  0.27537  0.33145  0.06564  1.0000
  C   C2202     1.0  0.31353  0.29225  0.97200  1.0000
  H   H1775     1.0  0.23590  0.05949  0.16414  1.0000
  C   C2203     1.0  0.38011  0.17489  0.18329  1.0000
  C   C2204     1.0  0.36128  0.17472  0.18760  1.0000
  C   C2205     1.0  0.35509  0.15939  0.18674  1.0000
  C   C2206     1.0  0.25607  0.23564  0.17329  1.0000
  P   P73       1.0  0.33077  0.15885  0.19182  1.0000
  C   C2207     1.0  0.42037  0.45441  0.12412  1.0000
  C   C2208     1.0  0.32262  0.16353  0.17074  1.0000
  C   C2209     1.0  0.30482  0.17363  0.16947  1.0000
  C   C2210     1.0  0.29846  0.17688  0.15329  1.0000
  C   C2211     1.0  0.30955  0.16968  0.13842  1.0000
  C   C2212     1.0  0.32710  0.15941  0.13963  1.0000
  C   C2213     1.0  0.33362  0.15631  0.15570  1.0000
  C   C2214     1.0  0.24929  0.05475  0.10921  1.0000
  Fe  Fe153     1.0  0.40673  0.07551  0.20886  1.0000
  H   H1776     1.0  0.42122  0.98388  0.11817  1.0000
  S   S304      1.0  0.47683  0.40824  0.10343  1.0000
  H   H1777     1.0  0.23798  0.37135  0.15791  1.0000
  C   C2215     1.0  0.45400  0.28259  0.11089  1.0000
  H   H1778     1.0  0.34674  0.31539  0.96929  1.0000
  S   S305      1.0  0.46129  0.02342  0.20141  1.0000
  H   H1779     1.0  0.35170  0.18652  0.19160  1.0000
  Fe  Fe154     1.0  0.26296  0.25838  0.02004  1.0000
  H   H1780     1.0  0.29549  0.17846  0.18110  1.0000
  H   H1781     1.0  0.28455  0.18414  0.15252  1.0000
  H   H1782     1.0  0.30424  0.17148  0.12620  1.0000
  H   H1783     1.0  0.33536  0.15310  0.12841  1.0000
  H   H1784     1.0  0.34694  0.14764  0.15647  1.0000
  C   C2216     1.0  0.26198  0.38469  0.18220  1.0000
  C   C2217     1.0  0.26156  0.16480  0.98733  1.0000
  C   C2218     1.0  0.43891  0.01849  0.18101  1.0000
  H   H1785     1.0  0.45360  0.97962  0.11803  1.0000
  C   C2219     1.0  0.47273  0.20190  0.21055  1.0000
  H   H1786     1.0  0.28474  0.17286  0.99174  1.0000
  H   H1787     1.0  0.25888  0.14983  0.18910  1.0000
  C   C2220     1.0  0.34395  0.07805  0.12271  1.0000
  C   C2221     1.0  0.32837  0.07195  0.13378  1.0000
  C   C2222     1.0  0.33021  0.05650  0.14767  1.0000
  C   C2223     1.0  0.34767  0.04701  0.15043  1.0000
  C   C2224     1.0  0.36342  0.05302  0.13932  1.0000
  C   C2225     1.0  0.36144  0.06855  0.12534  1.0000
  P   P74       1.0  0.38589  0.03927  0.14110  1.0000
  C   C2226     1.0  0.40292  0.05332  0.13619  1.0000
  C   C2227     1.0  0.38516  0.02762  0.16464  1.0000
  C   C2228     1.0  0.38520  0.00885  0.17003  1.0000
  H   H1788     1.0  0.47164  0.07405  0.14709  1.0000
  H   H1789     1.0  0.45313  0.99592  0.08602  1.0000
  C   C2229     1.0  0.23955  0.26691  0.09954  1.0000
  C   C2230     1.0  0.38490  0.03736  0.17783  1.0000
  C   C2231     1.0  0.39780  0.07075  0.14039  1.0000
  C   C2232     1.0  0.41110  0.08087  0.13875  1.0000
  C   C2233     1.0  0.42964  0.07371  0.13284  1.0000
  C   C2234     1.0  0.43488  0.05653  0.12830  1.0000
  C   C2235     1.0  0.42162  0.04634  0.13001  1.0000
  C   C2236     1.0  0.39169  0.02347  0.12576  1.0000
  C   C2237     1.0  0.38118  0.02552  0.11260  1.0000
  H   H1790     1.0  0.26034  0.30955  0.12551  1.0000
  H   H1791     1.0  0.23527  0.37753  0.18849  1.0000
  H   H1792     1.0  0.31801  0.05192  0.15623  1.0000
  C   C2238     1.0  0.40636  0.00854  0.12732  1.0000
  H   H1793     1.0  0.34241  0.09029  0.11223  1.0000
  H   H1794     1.0  0.31484  0.07923  0.13162  1.0000
  C   C2239     1.0  0.25371  0.16676  0.20879  1.0000
  H   H1795     1.0  0.34882  0.03490  0.16110  1.0000
  H   H1796     1.0  0.37337  0.07327  0.11639  1.0000
  H   H1797     1.0  0.38499  0.00098  0.16041  1.0000
  C   C2240     1.0  0.45555  0.41705  0.97200  1.0000
  C   C2241     1.0  0.26413  0.28190  0.12235  1.0000
  C   C2242     1.0  0.25703  0.15004  0.20336  1.0000
  H   H1798     1.0  0.38440  0.05189  0.17430  1.0000
  H   H1799     1.0  0.38356  0.07628  0.14558  1.0000
  H   H1800     1.0  0.44242  0.26378  0.13405  1.0000
  C   C2243     1.0  0.34050  0.30477  0.96806  1.0000
  H   H1801     1.0  0.44928  0.05085  0.12392  1.0000
  H   H1802     1.0  0.42620  0.03287  0.12698  1.0000
  H   H1803     1.0  0.36972  0.03682  0.11097  1.0000
  H   H1804     1.0  0.39248  0.46419  0.13771  1.0000
  C   C2244     1.0  0.32734  0.13644  0.20428  1.0000
  C   C2245     1.0  0.31463  0.19409  0.19747  1.0000
  H   H1805     1.0  0.41447  0.00660  0.13745  1.0000
  C   C2246     1.0  0.30605  0.21836  0.08096  1.0000
  C   C2247     1.0  0.31864  0.20748  0.09147  1.0000
  C   C2248     1.0  0.31592  0.20832  0.10983  1.0000
  C   C2249     1.0  0.30036  0.21970  0.11780  1.0000
  C   C2250     1.0  0.28753  0.23049  0.10734  1.0000
  C   C2251     1.0  0.29076  0.23009  0.08873  1.0000
  P   P75       1.0  0.26833  0.24639  0.11709  1.0000
  H   H1806     1.0  0.46558  0.20873  0.05629  1.0000
  H   H1807     1.0  0.26733  0.16465  0.97304  1.0000
  H   H1808     1.0  0.33623  0.99236  0.13056  1.0000
  C   C2252     1.0  0.47418  0.01045  0.08465  1.0000
  H   H1809     1.0  0.40749  0.44135  0.99476  1.0000
  S   S306      1.0  0.30927  0.46668  0.14916  1.0000
  C   C2253     1.0  0.25776  0.41347  0.10850  1.0000
  H   H1810     1.0  0.45686  0.15719  0.18691  1.0000
  C   C2254     1.0  0.26519  0.37691  0.14779  1.0000
  S   S307      1.0  0.27600  0.99352  0.07074  1.0000
  C   C2255     1.0  0.27569  0.26766  0.11425  1.0000
  C   C2256     1.0  0.29293  0.27033  0.10350  1.0000
  C   C2257     1.0  0.29839  0.28689  0.10089  1.0000
  H   H1811     1.0  0.29085  0.31386  0.10673  1.0000
  C   C2258     1.0  0.27971  0.38206  0.15175  1.0000
  H   H1812     1.0  0.44102  0.18741  0.19676  1.0000
  H   H1813     1.0  0.30807  0.21765  0.06677  1.0000
  H   H1814     1.0  0.33048  0.19843  0.08531  1.0000
  H   H1815     1.0  0.32580  0.20000  0.11791  1.0000
  H   H1816     1.0  0.29841  0.22012  0.13206  1.0000
  H   H1817     1.0  0.28148  0.23878  0.08017  1.0000
  H   H1818     1.0  0.26611  0.37464  0.13427  1.0000
  H   H1819     1.0  0.40706  0.09407  0.14257  1.0000
  H   H1820     1.0  0.30155  0.13897  0.19633  1.0000
  C   C2259     1.0  0.40044  0.24711  0.97636  1.0000
  H   H1821     1.0  0.29879  0.29326  0.97605  1.0000
  H   H1822     1.0  0.30218  0.25979  0.09690  1.0000
  H   H1823     1.0  0.31155  0.28896  0.09232  1.0000
  C   C2260     1.0  0.30223  0.20684  0.20695  1.0000
  H   H1824     1.0  0.38675  0.98527  0.19190  1.0000
  C   C2261     1.0  0.47142  0.25505  0.05213  1.0000
  H   H1825     1.0  0.48297  0.22171  0.17619  1.0000
  H   H1826     1.0  0.24300  0.15658  0.11379  1.0000
  C   C2262     1.0  0.44267  0.99055  0.17023  1.0000
  H   H1827     1.0  0.46905  0.13256  0.13081  1.0000
  H   H1828     1.0  0.47361  0.01690  0.15368  1.0000
  C   C2263     1.0  0.46217  0.99239  0.18977  1.0000
  H   H1829     1.0  0.32189  0.19874  0.18377  1.0000
  C   C2264     1.0  0.44598  0.31200  0.07405  1.0000
  H   H1830     1.0  0.34317  0.45349  0.10334  1.0000
  S   S308      1.0  0.24689  0.28717  0.02065  1.0000
  C   C2265     1.0  0.45470  0.26648  0.12416  1.0000
  H   H1831     1.0  0.24195  0.27888  0.10255  1.0000
  C   C2266     1.0  0.47690  0.19780  0.05951  1.0000
  C   C2267     1.0  0.46708  0.32545  0.10653  1.0000
  C   C2268     1.0  0.43746  0.29809  0.07357  1.0000
  C   C2269     1.0  0.42037  0.30238  0.06865  1.0000
  C   C2270     1.0  0.41178  0.32058  0.06383  1.0000
  C   C2271     1.0  0.42017  0.33449  0.06426  1.0000
  C   C2272     1.0  0.43725  0.33026  0.06927  1.0000
  H   H1832     1.0  0.26676  0.25637  0.15227  1.0000
  C   C2273     1.0  0.39291  0.15977  0.17812  1.0000
  S   S309      1.0  0.24287  0.32044  0.08895  1.0000
  C   C2274     1.0  0.24978  0.24950  0.10527  1.0000
  H   H1833     1.0  0.25659  0.24183  0.18420  1.0000
  C   C2275     1.0  0.39291  0.45998  0.07988  1.0000
  H   H1834     1.0  0.31244  0.42825  0.20777  1.0000
  H   H1835     1.0  0.47387  0.01772  0.07075  1.0000
  C   C2276     1.0  0.23736  0.40400  0.21114  1.0000
  H   H1836     1.0  0.38571  0.03596  0.20579  1.0000
  C   C2277     1.0  0.26088  0.23607  0.14082  1.0000
  C   C2278     1.0  0.35026  0.08031  0.19423  1.0000
  H   H1837     1.0  0.45372  0.39697  0.99724  1.0000
  H   H1838     1.0  0.36344  0.36221  0.98549  1.0000
  C   C2279     1.0  0.24510  0.17382  0.08689  1.0000
  C   C2280     1.0  0.42922  0.44219  0.97079  1.0000
  H   H1839     1.0  0.44419  0.28389  0.07660  1.0000
  H   H1840     1.0  0.41403  0.29152  0.06818  1.0000
  H   H1841     1.0  0.39884  0.32394  0.05935  1.0000
  H   H1842     1.0  0.41370  0.34861  0.06013  1.0000
  H   H1843     1.0  0.44371  0.34131  0.06893  1.0000
  C   C2281     1.0  0.42077  0.43451  0.98831  1.0000
  C   C2282     1.0  0.39968  0.99776  0.10338  1.0000
  C   C2283     1.0  0.46273  0.98901  0.11122  1.0000
  C   C2284     1.0  0.45506  0.44618  0.17866  1.0000
  H   H1844     1.0  0.40751  0.15985  0.17469  1.0000
  C   C2285     1.0  0.44331  0.12647  0.10946  1.0000
  C   C2286     1.0  0.45230  0.11552  0.09671  1.0000
  C   C2287     1.0  0.46067  0.12336  0.07922  1.0000
  C   C2288     1.0  0.46006  0.14215  0.07447  1.0000
  C   C2289     1.0  0.45103  0.15327  0.08720  1.0000
  C   C2290     1.0  0.44268  0.14525  0.10478  1.0000
  P   P76       1.0  0.45069  0.17749  0.08092  1.0000
  C   C2291     1.0  0.43539  0.18892  0.06529  1.0000
  C   C2292     1.0  0.44238  0.18739  0.10100  1.0000
  C   C2293     1.0  0.42346  0.19121  0.10831  1.0000
  C   C2294     1.0  0.41695  0.19884  0.12390  1.0000
  C   C2295     1.0  0.42929  0.20273  0.13224  1.0000
  C   C2296     1.0  0.44811  0.19899  0.12500  1.0000
  C   C2297     1.0  0.45464  0.19126  0.10952  1.0000
  C   C2298     1.0  0.42932  0.17919  0.05563  1.0000
  C   C2299     1.0  0.41728  0.18832  0.04382  1.0000
  C   C2300     1.0  0.41120  0.20719  0.04156  1.0000
  C   C2301     1.0  0.41707  0.21693  0.05119  1.0000
  C   C2302     1.0  0.42901  0.20784  0.06306  1.0000
  H   H1845     1.0  0.29697  0.10837  0.21316  1.0000
  C   C2303     1.0  0.28704  0.99415  0.14556  1.0000
  C   C2304     1.0  0.26164  0.24397  0.15506  1.0000
  C   C2305     1.0  0.27630  0.40193  0.20544  1.0000
  H   H1846     1.0  0.45213  0.38234  0.96677  1.0000
  H   H1847     1.0  0.23590  0.13926  0.04851  1.0000
  H   H1848     1.0  0.46307  0.45273  0.99564  1.0000
  H   H1849     1.0  0.45291  0.10095  0.10046  1.0000
  H   H1850     1.0  0.46779  0.11485  0.06938  1.0000
  H   H1851     1.0  0.46679  0.14802  0.06093  1.0000
  C   C2306     1.0  0.38599  0.99987  0.18802  1.0000
  H   H1852     1.0  0.41376  0.18825  0.10197  1.0000
  H   H1853     1.0  0.40235  0.20176  0.12945  1.0000
  H   H1854     1.0  0.42435  0.20863  0.14430  1.0000
  H   H1855     1.0  0.45774  0.20199  0.13140  1.0000
  H   H1856     1.0  0.46925  0.18841  0.10422  1.0000
  H   H1857     1.0  0.43369  0.16459  0.05722  1.0000
  H   H1858     1.0  0.41261  0.18077  0.03643  1.0000
  H   H1859     1.0  0.40192  0.21429  0.03238  1.0000
  H   H1860     1.0  0.41244  0.23160  0.04945  1.0000
  H   H1861     1.0  0.43328  0.21565  0.07050  1.0000
  C   C2307     1.0  0.24132  0.45885  0.19311  1.0000
  C   C2308     1.0  0.47002  0.16009  0.15847  1.0000
  H   H1862     1.0  0.44112  0.29232  0.11085  1.0000
  C   C2309     1.0  0.36218  0.98382  0.13879  1.0000
  C   C2310     1.0  0.46523  0.44350  0.16147  1.0000
  C   C2311     1.0  0.36739  0.08342  0.19441  1.0000
  H   H1863     1.0  0.24578  0.21271  0.19165  1.0000
  C   C2312     1.0  0.37623  0.09476  0.17949  1.0000
  C   C2313     1.0  0.34161  0.08907  0.17950  1.0000
  Fe  Fe155     1.0  0.43866  0.09235  0.18591  1.0000
  C   C2314     1.0  0.46536  0.19204  0.20219  1.0000
  C   C2315     1.0  0.48108  0.29833  0.04486  1.0000
  H   H1864     1.0  0.41039  0.17346  0.21180  1.0000
  S   S310      1.0  0.25004  0.23842  0.01340  1.0000
  H   H1865     1.0  0.43599  0.15329  0.11509  1.0000
  C   C2316     1.0  0.46590  0.35500  0.97589  1.0000
  C   C2317     1.0  0.34790  0.98129  0.13206  1.0000
  H   H1866     1.0  0.48173  0.15916  0.13024  1.0000
  H   H1867     1.0  0.28986  0.38923  0.17173  1.0000
  H   H1868     1.0  0.43994  0.08135  0.13217  1.0000
  H   H1869     1.0  0.33725  0.24166  0.98620  1.0000
  C   C2318     1.0  0.26733  0.08955  0.06642  1.0000
  C   C2319     1.0  0.27218  0.10662  0.06131  1.0000
  C   C2320     1.0  0.27191  0.11672  0.04360  1.0000
  C   C2321     1.0  0.26680  0.10976  0.03099  1.0000
  C   C2322     1.0  0.26196  0.09254  0.03599  1.0000
  C   C2323     1.0  0.26211  0.08258  0.05390  1.0000
  P   P77       1.0  0.25541  0.08325  0.01979  1.0000
  C   C2324     1.0  0.26581  0.05932  0.02151  1.0000
  C   C2325     1.0  0.43996  0.46236  0.14747  1.0000
  H   H1870     1.0  0.26150  0.07532  0.19933  1.0000
  C   C2326     1.0  0.46969  0.28586  0.09751  1.0000
  C   C2327     1.0  0.47384  0.18109  0.07087  1.0000
  C   C2328     1.0  0.45332  0.01055  0.19027  1.0000
  C   C2329     1.0  0.46248  0.99821  0.09323  1.0000
  C   C2330     1.0  0.28202  0.05203  0.02834  1.0000
  C   C2331     1.0  0.28930  0.03331  0.03066  1.0000
  C   C2332     1.0  0.28072  0.02181  0.02581  1.0000
  C   C2333     1.0  0.26503  0.02905  0.01834  1.0000
  C   C2334     1.0  0.25764  0.04772  0.01611  1.0000
  C   C2335     1.0  0.26261  0.09518  0.99670  1.0000
  C   C2336     1.0  0.27727  0.08685  0.98454  1.0000
  H   H1871     1.0  0.46716  0.29751  0.04512  1.0000
  C   C2337     1.0  0.25511  0.21933  0.14524  1.0000
  H   H1872     1.0  0.25012  0.04215  0.10512  1.0000
  C   C2338     1.0  0.47472  0.45846  0.98746  1.0000
  H   H1873     1.0  0.26761  0.08170  0.08014  1.0000
  H   H1874     1.0  0.27613  0.11200  0.07110  1.0000
  H   H1875     1.0  0.27565  0.12999  0.03965  1.0000
  H   H1876     1.0  0.26681  0.11788  0.01739  1.0000
  H   H1877     1.0  0.25828  0.06934  0.05823  1.0000
  H   H1878     1.0  0.30023  0.22120  0.20072  1.0000
  H   H1879     1.0  0.27600  0.41917  0.17861  1.0000
  C   C2339     1.0  0.47856  0.33945  0.07532  1.0000
  H   H1880     1.0  0.26658  0.28990  0.07549  1.0000
  C   C2340     1.0  0.27827  0.38563  0.16897  1.0000
  H   H1881     1.0  0.28886  0.06067  0.03222  1.0000
  S   S311      1.0  0.42710  0.06919  0.18385  1.0000
  C   C2341     1.0  0.30240  0.42087  0.20716  1.0000
  H   H1882     1.0  0.38480  0.18678  0.18382  1.0000
  H   H1883     1.0  0.33201  0.19022  0.97908  1.0000
  C   C2342     1.0  0.24384  0.16147  0.99488  1.0000
  H   H1884     1.0  0.37955  0.44124  0.13080  1.0000
  H   H1885     1.0  0.48005  0.40872  0.99866  1.0000
  C   C2343     1.0  0.48199  0.34377  0.98071  1.0000
  C   C2344     1.0  0.46479  0.37381  0.97022  1.0000
  H   H1886     1.0  0.46054  0.04592  0.16418  1.0000
  C   C2345     1.0  0.33696  0.20284  0.97353  1.0000
  C   C2346     1.0  0.47542  0.35503  0.09979  1.0000
  C   C2347     1.0  0.31685  0.17538  0.20524  1.0000
  H   H1887     1.0  0.25401  0.22094  0.10450  1.0000
  S   S312      1.0  0.43581  0.97909  0.15690  1.0000
  C   C2348     1.0  0.43716  0.45648  0.18038  1.0000
  C   C2349     1.0  0.47114  0.25370  0.12439  1.0000
  H   H1888     1.0  0.47643  0.36691  0.10425  1.0000
  H   H1889     1.0  0.43708  0.12036  0.12314  1.0000
  H   H1890     1.0  0.29123  0.36104  0.21024  1.0000
  P   P78       1.0  0.46837  0.30625  0.07982  1.0000
  C   C2350     1.0  0.38630  0.00959  0.20088  1.0000
  H   H1891     1.0  0.34352  0.07132  0.20564  1.0000
  C   C2351     1.0  0.34503  0.97933  0.06390  1.0000
  H   H1892     1.0  0.24533  0.19803  0.16667  1.0000
  C   C2352     1.0  0.26539  0.45878  0.20823  1.0000
  C   C2353     1.0  0.25001  0.21920  0.17751  1.0000
  Fe  Fe156     1.0  0.28444  0.46845  0.13765  1.0000
  H   H1893     1.0  0.47166  0.24097  0.13431  1.0000
  S   S313      1.0  0.41649  0.10032  0.20943  1.0000
  C   C2354     1.0  0.47746  0.06136  0.14233  1.0000
  H   H1894     1.0  0.23801  0.33626  0.21357  1.0000
  S   S314      1.0  0.45955  0.27181  0.96504  1.0000
  H   H1895     1.0  0.23615  0.15903  0.98608  1.0000
  S   S315      1.0  0.48245  0.46042  0.01996  1.0000
  C   C2355     1.0  0.23587  0.16249  0.01317  1.0000
  C   C2356     1.0  0.43462  0.20780  0.21325  1.0000
  H   H1896     1.0  0.41296  0.14055  0.21337  1.0000
  S   S316      1.0  0.37715  0.07366  0.21374  1.0000
  C   C2357     1.0  0.23447  0.08601  0.11057  1.0000
  H   H1897     1.0  0.23426  0.40807  0.12955  1.0000
  C   C2358     1.0  0.30881  0.11317  0.21379  1.0000
  H   H1898     1.0  0.41994  0.21014  0.21417  1.0000
  C   C2359     1.0  0.41538  0.23919  0.96435  1.0000
  C   C2360     1.0  0.35925  0.45721  0.30165  1.0000
  H   H1899     1.0  0.47483  0.31741  0.42445  1.0000
  H   H1900     1.0  0.43628  0.24142  0.40588  1.0000
  C   C2361     1.0  0.24348  0.29694  0.30942  1.0000
  C   C2362     1.0  0.29586  0.21965  0.44282  1.0000
  S   S317      1.0  0.43745  0.08409  0.25444  1.0000
  C   C2363     1.0  0.28190  0.45057  0.38105  1.0000
  C   C2364     1.0  0.48048  0.06688  0.35033  1.0000
  H   H1901     1.0  0.45751  0.36842  0.38023  1.0000
  H   H1902     1.0  0.26003  0.20872  0.34741  1.0000
  H   H1903     1.0  0.27841  0.38874  0.23331  1.0000
  C   C2365     1.0  0.33701  0.10788  0.22449  1.0000
  C   C2366     1.0  0.28712  0.46364  0.30194  1.0000
  C   C2367     1.0  0.24647  0.36154  0.23145  1.0000
  Fe  Fe157     1.0  0.32809  0.21479  0.35669  1.0000
  S   S318      1.0  0.34701  0.18758  0.36039  1.0000
  S   S319      1.0  0.30936  0.22537  0.33647  1.0000
  Fe  Fe158     1.0  0.34253  0.22806  0.38339  1.0000
  S   S320      1.0  0.36302  0.20197  0.38929  1.0000
  S   S321      1.0  0.33635  0.25381  0.39422  1.0000
  Fe  Fe159     1.0  0.36835  0.20326  0.35900  1.0000
  S   S322      1.0  0.39433  0.20001  0.33776  1.0000
  Fe  Fe160     1.0  0.33982  0.18861  0.39021  1.0000
  S   S323      1.0  0.33144  0.16404  0.41020  1.0000
  S   S324      1.0  0.34993  0.23050  0.35313  1.0000
  S   S325      1.0  0.31894  0.21455  0.38663  1.0000
  H   H1904     1.0  0.29897  0.32894  0.44339  1.0000
  C   C2368     1.0  0.47041  0.30946  0.39040  1.0000
  C   C2369     1.0  0.46502  0.19978  0.31727  1.0000
  S   S326      1.0  0.23442  0.19487  0.31300  1.0000
  S   S327      1.0  0.42367  0.05654  0.22814  1.0000
  H   H1905     1.0  0.25425  0.12189  0.24508  1.0000
  Fe  Fe161     1.0  0.25904  0.18014  0.29630  1.0000
  S   S328      1.0  0.28404  0.16740  0.30849  1.0000
  C   C2370     1.0  0.46083  0.21497  0.22005  1.0000
  S   S329      1.0  0.25939  0.20260  0.27160  1.0000
  H   H1906     1.0  0.29501  0.33103  0.23125  1.0000
  Fe  Fe162     1.0  0.26583  0.42882  0.32916  1.0000
  S   S330      1.0  0.27861  0.41893  0.35388  1.0000
  S   S331      1.0  0.27825  0.44475  0.30209  1.0000
  Fe  Fe163     1.0  0.27452  0.39146  0.35336  1.0000
  S   S332      1.0  0.29714  0.36644  0.35596  1.0000
  S   S333      1.0  0.26380  0.40096  0.32743  1.0000
  C   C2371     1.0  0.32308  0.35759  0.40553  1.0000
  C   C2372     1.0  0.29938  0.37394  0.38816  1.0000
  C   C2373     1.0  0.30734  0.36347  0.37479  1.0000
  C   C2374     1.0  0.32338  0.35025  0.37667  1.0000
  C   C2375     1.0  0.33134  0.34740  0.39195  1.0000
  H   H1907     1.0  0.28702  0.38418  0.38682  1.0000
  H   H1908     1.0  0.32957  0.34210  0.36637  1.0000
  H   H1909     1.0  0.34358  0.33705  0.39341  1.0000
  H   H1910     1.0  0.30960  0.45737  0.33920  1.0000
  H   H1911     1.0  0.28163  0.21075  0.23120  1.0000
  S   S334      1.0  0.47463  0.37080  0.43686  1.0000
  C   C2376     1.0  0.28320  0.39854  0.22143  1.0000
  H   H1912     1.0  0.24176  0.37854  0.32317  1.0000
  H   H1913     1.0  0.44321  0.35466  0.44773  1.0000
  H   H1914     1.0  0.26741  0.25733  0.33038  1.0000
  C   C2377     1.0  0.35410  0.25982  0.40052  1.0000
  C   C2378     1.0  0.35163  0.27740  0.40366  1.0000
  C   C2379     1.0  0.36521  0.28238  0.40950  1.0000
  C   C2380     1.0  0.38138  0.26980  0.41211  1.0000
  C   C2381     1.0  0.38404  0.25231  0.40862  1.0000
  C   C2382     1.0  0.37039  0.24732  0.40283  1.0000
  H   H1915     1.0  0.33907  0.28714  0.40178  1.0000
  H   H1916     1.0  0.36310  0.29593  0.41207  1.0000
  H   H1917     1.0  0.39657  0.24258  0.41057  1.0000
  H   H1918     1.0  0.37224  0.23377  0.40046  1.0000
  C   C2383     1.0  0.30225  0.20911  0.32901  1.0000
  C   C2384     1.0  0.28995  0.21496  0.31708  1.0000
  C   C2385     1.0  0.28414  0.20222  0.31086  1.0000
  C   C2386     1.0  0.29085  0.18358  0.31633  1.0000
  C   C2387     1.0  0.30315  0.17776  0.32819  1.0000
  C   C2388     1.0  0.30879  0.19047  0.33461  1.0000
  H   H1919     1.0  0.28480  0.22937  0.31271  1.0000
  H   H1920     1.0  0.27454  0.20687  0.30177  1.0000
  H   H1921     1.0  0.30795  0.16336  0.33273  1.0000
  H   H1922     1.0  0.31808  0.18583  0.34396  1.0000
  C   C2389     1.0  0.45295  0.09949  0.27330  1.0000
  C   C2390     1.0  0.33225  0.17704  0.43993  1.0000
  C   C2391     1.0  0.32436  0.16639  0.43311  1.0000
  C   C2392     1.0  0.31116  0.15687  0.44486  1.0000
  C   C2393     1.0  0.40942  0.21472  0.37298  1.0000
  H   H1923     1.0  0.34245  0.18440  0.43096  1.0000
  H   H1924     1.0  0.30505  0.14860  0.43963  1.0000
  H   H1925     1.0  0.43795  0.38069  0.45895  1.0000
  C   C2394     1.0  0.30502  0.45078  0.35319  1.0000
  C   C2395     1.0  0.44182  0.21778  0.22153  1.0000
  H   H1926     1.0  0.31511  0.16787  0.27516  1.0000
  H   H1927     1.0  0.30069  0.37883  0.41399  1.0000
  H   H1928     1.0  0.43921  0.26679  0.36916  1.0000
  H   H1929     1.0  0.43270  0.22774  0.22903  1.0000
  H   H1930     1.0  0.30443  0.23856  0.41826  1.0000
  C   C2396     1.0  0.24692  0.21766  0.35083  1.0000
  S   S335      1.0  0.41034  0.31588  0.43210  1.0000
  C   C2397     1.0  0.35669  0.15249  0.24942  1.0000
  C   C2398     1.0  0.26182  0.36785  0.21973  1.0000
  C   C2399     1.0  0.46064  0.21196  0.44488  1.0000
  H   H1931     1.0  0.43167  0.26671  0.27244  1.0000
  C   C2400     1.0  0.35809  0.16819  0.23585  1.0000
  H   H1932     1.0  0.27826  0.33518  0.36051  1.0000
  C   C2401     1.0  0.43483  0.35443  0.42343  1.0000
  C   C2402     1.0  0.34125  0.15223  0.26378  1.0000
  H   H1933     1.0  0.30458  0.12653  0.30886  1.0000
  S   S336      1.0  0.24300  0.16469  0.28719  1.0000
  H   H1934     1.0  0.32567  0.30985  0.42705  1.0000
  H   H1935     1.0  0.27410  0.12330  0.30669  1.0000
  C   C2403     1.0  0.42881  0.15943  0.36428  1.0000
  C   C2404     1.0  0.41350  0.17321  0.36085  1.0000
  C   C2405     1.0  0.41189  0.18139  0.34286  1.0000
  C   C2406     1.0  0.42504  0.17525  0.32840  1.0000
  H   H1936     1.0  0.43040  0.15344  0.37817  1.0000
  H   H1937     1.0  0.40331  0.17784  0.37209  1.0000
  S   S337      1.0  0.33190  0.35378  0.42542  1.0000
  H   H1938     1.0  0.29397  0.47007  0.22379  1.0000
  C   C2407     1.0  0.28549  0.18379  0.38485  1.0000
  H   H1939     1.0  0.40216  0.09719  0.27627  1.0000
  C   C2408     1.0  0.44351  0.23322  0.41650  1.0000
  C   C2409     1.0  0.30713  0.37088  0.40356  1.0000
  C   C2410     1.0  0.45624  0.11235  0.24096  1.0000
  C   C2411     1.0  0.30692  0.42673  0.25977  1.0000
  H   H1940     1.0  0.30719  0.15544  0.22873  1.0000
  H   H1941     1.0  0.34242  0.21981  0.46019  1.0000
  H   H1942     1.0  0.33361  0.27678  0.43911  1.0000
  C   C2412     1.0  0.28355  0.44914  0.24551  1.0000
  C   C2413     1.0  0.28846  0.43364  0.25874  1.0000
  C   C2414     1.0  0.46952  0.12415  0.26002  1.0000
  H   H1943     1.0  0.32592  0.33027  0.46163  1.0000
  H   H1944     1.0  0.44467  0.29466  0.43692  1.0000
  H   H1945     1.0  0.39779  0.07478  0.26074  1.0000
  H   H1946     1.0  0.29147  0.37447  0.26923  1.0000
  H   H1947     1.0  0.43275  0.29249  0.31021  1.0000
  H   H1948     1.0  0.35290  0.43059  0.30843  1.0000
  H   H1949     1.0  0.42615  0.29316  0.39166  1.0000
  H   H1950     1.0  0.31496  0.25684  0.43381  1.0000
  C   C2415     1.0  0.26980  0.28424  0.33135  1.0000
  C   C2416     1.0  0.46643  0.29346  0.40259  1.0000
  H   H1951     1.0  0.39762  0.20815  0.40161  1.0000
  P   P79       1.0  0.25082  0.20659  0.38715  1.0000
  H   H1952     1.0  0.36393  0.45711  0.28723  1.0000
  C   C2417     1.0  0.47519  0.02102  0.40857  1.0000
  C   C2418     1.0  0.28850  0.45895  0.36317  1.0000
  H   H1953     1.0  0.31051  0.41520  0.27044  1.0000
  H   H1954     1.0  0.35189  0.12950  0.21575  1.0000
  H   H1955     1.0  0.46211  0.43123  0.35758  1.0000
  C   C2419     1.0  0.42597  0.21014  0.39707  1.0000
  H   H1956     1.0  0.27811  0.42732  0.26886  1.0000
  H   H1957     1.0  0.44791  0.08977  0.28509  1.0000
  H   H1958     1.0  0.31560  0.41305  0.38569  1.0000
  H   H1959     1.0  0.41065  0.39691  0.44612  1.0000
  C   C2420     1.0  0.34413  0.18372  0.23650  1.0000
  H   H1960     1.0  0.34268  0.16246  0.29462  1.0000
  H   H1961     1.0  0.48369  0.46829  0.40636  1.0000
  H   H1962     1.0  0.46692  0.06944  0.41721  1.0000
  C   C2421     1.0  0.28150  0.33964  0.23145  1.0000
  H   H1963     1.0  0.46888  0.17796  0.25079  1.0000
  H   H1964     1.0  0.37593  0.21179  0.45024  1.0000
  C   C2422     1.0  0.40878  0.25609  0.27164  1.0000
  H   H1965     1.0  0.45374  0.11265  0.22771  1.0000
  H   H1966     1.0  0.47692  0.24636  0.31420  1.0000
  C   C2423     1.0  0.29621  0.40798  0.22226  1.0000
  H   H1967     1.0  0.34686  0.16447  0.32449  1.0000
  H   H1968     1.0  0.30148  0.40538  0.23460  1.0000
  C   C2424     1.0  0.42534  0.21730  0.36000  1.0000
  S   S338      1.0  0.36704  0.31365  0.44693  1.0000
  H   H1969     1.0  0.36753  0.14055  0.24838  1.0000
  C   C2425     1.0  0.47818  0.15728  0.38804  1.0000
  H   H1970     1.0  0.47899  0.39919  0.36316  1.0000
  H   H1971     1.0  0.26011  0.24726  0.42311  1.0000
  S   S339      1.0  0.37956  0.35375  0.43340  1.0000
  P   P80       1.0  0.33825  0.13174  0.28067  1.0000
  H   H1972     1.0  0.36718  0.07629  0.25472  1.0000
  P   P81       1.0  0.43846  0.25343  0.31004  1.0000
  C   C2426     1.0  0.42170  0.25041  0.29874  1.0000
  C   C2427     1.0  0.47712  0.25999  0.45341  1.0000
  H   H1973     1.0  0.25040  0.17849  0.36830  1.0000
  C   C2428     1.0  0.27337  0.23185  0.37672  1.0000
  C   C2429     1.0  0.25078  0.15115  0.24037  1.0000
  C   C2430     1.0  0.33927  0.11921  0.31750  1.0000
  H   H1974     1.0  0.24598  0.32375  0.30984  1.0000
  C   C2431     1.0  0.40841  0.23994  0.30833  1.0000
  C   C2432     1.0  0.39542  0.23767  0.29970  1.0000
  C   C2433     1.0  0.39560  0.24571  0.28136  1.0000
  C   C2434     1.0  0.42778  0.25963  0.33197  1.0000
  C   C2435     1.0  0.40858  0.26495  0.33707  1.0000
  C   C2436     1.0  0.40061  0.27010  0.35387  1.0000
  C   C2437     1.0  0.41170  0.27066  0.36541  1.0000
  C   C2438     1.0  0.43076  0.26593  0.36028  1.0000
  C   C2439     1.0  0.43881  0.26034  0.34369  1.0000
  H   H1975     1.0  0.26786  0.32072  0.25295  1.0000
  H   H1976     1.0  0.23983  0.46819  0.28152  1.0000
  H   H1977     1.0  0.27712  0.22774  0.36367  1.0000
  C   C2440     1.0  0.45824  0.31970  0.37911  1.0000
  C   C2441     1.0  0.47541  0.00871  0.34644  1.0000
  H   H1978     1.0  0.33487  0.43008  0.24869  1.0000
  H   H1979     1.0  0.40790  0.23363  0.32258  1.0000
  H   H1980     1.0  0.38514  0.22968  0.30733  1.0000
  H   H1981     1.0  0.38544  0.24397  0.27476  1.0000
  H   H1982     1.0  0.38579  0.27385  0.35793  1.0000
  H   H1983     1.0  0.40550  0.27500  0.37826  1.0000
  H   H1984     1.0  0.31947  0.08835  0.23113  1.0000
  C   C2442     1.0  0.40981  0.21083  0.39152  1.0000
  C   C2443     1.0  0.35396  0.19674  0.27970  1.0000
  C   C2444     1.0  0.34986  0.20190  0.29658  1.0000
  C   C2445     1.0  0.36279  0.19616  0.30775  1.0000
  C   C2446     1.0  0.37972  0.18512  0.30219  1.0000
  C   C2447     1.0  0.38412  0.18012  0.28510  1.0000
  C   C2448     1.0  0.37103  0.18591  0.27393  1.0000
  P   P82       1.0  0.40654  0.16656  0.27791  1.0000
  C   C2449     1.0  0.42417  0.17992  0.27238  1.0000
  C   C2450     1.0  0.41074  0.14758  0.29655  1.0000
  C   C2451     1.0  0.39622  0.13912  0.30707  1.0000
  C   C2452     1.0  0.39907  0.12478  0.32189  1.0000
  C   C2453     1.0  0.41646  0.11874  0.32626  1.0000
  C   C2454     1.0  0.43106  0.12686  0.31569  1.0000
  C   C2455     1.0  0.42827  0.14118  0.30082  1.0000
  C   C2456     1.0  0.44136  0.17378  0.26187  1.0000
  S   S340      1.0  0.38258  0.32917  0.40293  1.0000
  C   C2457     1.0  0.26379  0.24295  0.41014  1.0000
  C   C2458     1.0  0.43566  0.20528  0.27561  1.0000
  C   C2459     1.0  0.42131  0.19599  0.27893  1.0000
  C   C2460     1.0  0.40766  0.15823  0.25771  1.0000
  C   C2461     1.0  0.40931  0.13959  0.25840  1.0000
  C   C2462     1.0  0.41092  0.13336  0.24247  1.0000
  H   H1985     1.0  0.28012  0.27890  0.33964  1.0000
  C   C2463     1.0  0.29178  0.43400  0.38897  1.0000
  C   C2464     1.0  0.40800  0.17042  0.24079  1.0000
  H   H1986     1.0  0.34380  0.20111  0.27117  1.0000
  H   H1987     1.0  0.33662  0.21028  0.30108  1.0000
  H   H1988     1.0  0.35966  0.20027  0.32078  1.0000
  H   H1989     1.0  0.38949  0.18064  0.31117  1.0000
  H   H1990     1.0  0.37379  0.18200  0.26090  1.0000
  H   H1991     1.0  0.38268  0.14367  0.30388  1.0000
  H   H1992     1.0  0.38776  0.11844  0.33004  1.0000
  H   H1993     1.0  0.41865  0.10780  0.33786  1.0000
  H   H1994     1.0  0.44455  0.12218  0.31911  1.0000
  H   H1995     1.0  0.43984  0.14719  0.29287  1.0000
  H   H1996     1.0  0.44402  0.16138  0.25671  1.0000
  Fe  Fe164     1.0  0.36125  0.33931  0.42595  1.0000
  C   C2465     1.0  0.43869  0.29749  0.39107  1.0000
  H   H1997     1.0  0.43352  0.21735  0.28112  1.0000
  H   H1998     1.0  0.40828  0.20116  0.28706  1.0000
  H   H1999     1.0  0.40990  0.12970  0.27104  1.0000
  C   C2466     1.0  0.45005  0.27139  0.29606  1.0000
  H   H2000     1.0  0.40721  0.18476  0.23993  1.0000
  H   H2001     1.0  0.44847  0.31684  0.29075  1.0000
  C   C2467     1.0  0.24878  0.34473  0.24356  1.0000
  C   C2468     1.0  0.29471  0.12697  0.26193  1.0000
  C   C2469     1.0  0.30902  0.24533  0.44189  1.0000
  C   C2470     1.0  0.26387  0.30313  0.32565  1.0000
  S   S341      1.0  0.24644  0.39450  0.37124  1.0000
  Fe  Fe165     1.0  0.40151  0.34121  0.41229  1.0000
  C   C2471     1.0  0.32146  0.10191  0.22401  1.0000
  H   H2002     1.0  0.43145  0.01669  0.41164  1.0000
  C   C2472     1.0  0.47333  0.28173  0.27029  1.0000
  H   H2003     1.0  0.31780  0.19550  0.25125  1.0000
  H   H2004     1.0  0.40881  0.26247  0.25744  1.0000
  H   H2005     1.0  0.33737  0.10642  0.31567  1.0000
  H   H2006     1.0  0.42834  0.25023  0.43574  1.0000
  C   C2473     1.0  0.45312  0.07301  0.33033  1.0000
  C   C2474     1.0  0.35295  0.44222  0.31375  1.0000
  S   S342      1.0  0.42329  0.35526  0.39255  1.0000
  H   H2007     1.0  0.46171  0.18669  0.31850  1.0000
  H   H2008     1.0  0.24409  0.26861  0.31084  1.0000
  C   C2475     1.0  0.44832  0.07422  0.34876  1.0000
  P   P83       1.0  0.45613  0.07281  0.38261  1.0000
  H   H2009     1.0  0.25660  0.35321  0.38161  1.0000
  C   C2476     1.0  0.25608  0.22931  0.40782  1.0000
  H   H2010     1.0  0.46268  0.25063  0.38631  1.0000
  H   H2011     1.0  0.41256  0.11891  0.24302  1.0000
  C   C2477     1.0  0.31607  0.12813  0.27998  1.0000
  C   C2478     1.0  0.44205  0.04121  0.39901  1.0000
  S   S343      1.0  0.39851  0.27593  0.41935  1.0000
  C   C2479     1.0  0.44646  0.35766  0.43304  1.0000
  C   C2480     1.0  0.23423  0.45945  0.22534  1.0000
  C   C2481     1.0  0.45727  0.04954  0.39491  1.0000
  C   C2482     1.0  0.43419  0.08782  0.38769  1.0000
  C   C2483     1.0  0.42994  0.10436  0.37547  1.0000
  C   C2484     1.0  0.41335  0.11653  0.37953  1.0000
  C   C2485     1.0  0.40104  0.11246  0.39599  1.0000
  C   C2486     1.0  0.40539  0.09627  0.40846  1.0000
  C   C2487     1.0  0.42198  0.08405  0.40443  1.0000
  H   H2012     1.0  0.44256  0.07520  0.32254  1.0000
  H   H2013     1.0  0.32235  0.13075  0.25069  1.0000
  C   C2488     1.0  0.46542  0.20694  0.42785  1.0000
  C   C2489     1.0  0.32193  0.28492  0.44651  1.0000
  H   H2014     1.0  0.43395  0.07701  0.35521  1.0000
  C   C2490     1.0  0.32878  0.18357  0.25078  1.0000
  H   H2015     1.0  0.24809  0.42511  0.25229  1.0000
  H   H2016     1.0  0.42929  0.04870  0.39498  1.0000
  C   C2491     1.0  0.46624  0.36854  0.40472  1.0000
  C   C2492     1.0  0.47673  0.22666  0.37504  1.0000
  H   H2017     1.0  0.34198  0.45846  0.35308  1.0000
  H   H2018     1.0  0.43963  0.10806  0.36295  1.0000
  H   H2019     1.0  0.41025  0.12931  0.37007  1.0000
  H   H2020     1.0  0.38829  0.12204  0.39924  1.0000
  H   H2021     1.0  0.39601  0.09336  0.42141  1.0000
  H   H2022     1.0  0.42540  0.07191  0.41453  1.0000
  Fe  Fe166     1.0  0.24955  0.42290  0.36970  1.0000
  C   C2493     1.0  0.26107  0.22346  0.39113  1.0000
  H   H2023     1.0  0.42605  0.20668  0.41152  1.0000
  C   C2494     1.0  0.45164  0.21563  0.31474  1.0000
  H   H2024     1.0  0.31170  0.16538  0.38409  1.0000
  H   H2025     1.0  0.26757  0.12375  0.27679  1.0000
  C   C2495     1.0  0.46588  0.12473  0.24296  1.0000
  H   H2026     1.0  0.34719  0.09881  0.23176  1.0000
  C   C2496     1.0  0.33958  0.13428  0.30290  1.0000
  H   H2027     1.0  0.42262  0.34930  0.43084  1.0000
  C   C2497     1.0  0.38098  0.40591  0.37362  1.0000
  C   C2498     1.0  0.37715  0.38975  0.38536  1.0000
  C   C2499     1.0  0.36112  0.38404  0.38592  1.0000
  C   C2500     1.0  0.34892  0.39443  0.37473  1.0000
  C   C2501     1.0  0.35259  0.41076  0.36288  1.0000
  C   C2502     1.0  0.36877  0.41640  0.36244  1.0000
  P   P84       1.0  0.33690  0.42401  0.34808  1.0000
  C   C2503     1.0  0.34655  0.44254  0.33240  1.0000
  C   C2504     1.0  0.33216  0.40988  0.33508  1.0000
  C   C2505     1.0  0.34193  0.39188  0.33520  1.0000
  C   C2506     1.0  0.33746  0.38092  0.32576  1.0000
  C   C2507     1.0  0.32359  0.38795  0.31571  1.0000
  C   C2508     1.0  0.31440  0.40606  0.31483  1.0000
  C   C2509     1.0  0.31868  0.41702  0.32441  1.0000
  H   H2028     1.0  0.28874  0.34452  0.26520  1.0000
  H   H2029     1.0  0.34601  0.13789  0.35018  1.0000
  C   C2510     1.0  0.24950  0.27820  0.31508  1.0000
  P   P85       1.0  0.25973  0.45971  0.24534  1.0000
  C   C2511     1.0  0.25278  0.45892  0.22488  1.0000
  C   C2512     1.0  0.31533  0.43426  0.36115  1.0000
  H   H2030     1.0  0.39350  0.41022  0.37317  1.0000
  H   H2031     1.0  0.38668  0.38160  0.39395  1.0000
  H   H2032     1.0  0.35817  0.37149  0.39501  1.0000
  H   H2033     1.0  0.33677  0.38948  0.37511  1.0000
  H   H2034     1.0  0.37219  0.42875  0.35339  1.0000
  H   H2035     1.0  0.35284  0.38608  0.34269  1.0000
  H   H2036     1.0  0.34439  0.36680  0.32668  1.0000
  H   H2037     1.0  0.31971  0.37926  0.30895  1.0000
  H   H2038     1.0  0.30358  0.41149  0.30713  1.0000
  H   H2039     1.0  0.31119  0.43096  0.32373  1.0000
  C   C2513     1.0  0.27931  0.35663  0.21958  1.0000
  H   H2040     1.0  0.42373  0.18136  0.31452  1.0000
  C   C2514     1.0  0.29390  0.15663  0.37203  1.0000
  C   C2515     1.0  0.45302  0.30311  0.28818  1.0000
  Fe  Fe167     1.0  0.43541  0.08073  0.22681  1.0000
  C   C2516     1.0  0.44981  0.09967  0.25615  1.0000
  C   C2517     1.0  0.29178  0.20100  0.22412  1.0000
  C   C2518     1.0  0.25091  0.14054  0.34045  1.0000
  C   C2519     1.0  0.26338  0.12553  0.34750  1.0000
  C   C2520     1.0  0.25813  0.11506  0.36481  1.0000
  C   C2521     1.0  0.32743  0.17761  0.45859  1.0000
  S   S344      1.0  0.46182  0.13727  0.35392  1.0000
  H   H2041     1.0  0.47226  0.14725  0.38508  1.0000
  C   C2522     1.0  0.45710  0.21769  0.41340  1.0000
  H   H2042     1.0  0.47070  0.13459  0.23119  1.0000
  C   C2523     1.0  0.28090  0.24561  0.37900  1.0000
  H   H2043     1.0  0.37636  0.12191  0.28487  1.0000
  C   C2524     1.0  0.41122  0.14556  0.22572  1.0000
  C   C2525     1.0  0.25144  0.34796  0.37255  1.0000
  C   C2526     1.0  0.40978  0.16410  0.22487  1.0000
  C   C2527     1.0  0.32729  0.16788  0.26433  1.0000
  C   C2528     1.0  0.34242  0.15060  0.30552  1.0000
  P   P86       1.0  0.48155  0.28037  0.41779  1.0000
  C   C2529     1.0  0.45564  0.23269  0.31357  1.0000
  H   H2044     1.0  0.32636  0.45760  0.22536  1.0000
  C   C2530     1.0  0.44231  0.31382  0.37958  1.0000
  C   C2531     1.0  0.34437  0.13680  0.33698  1.0000
  C   C2532     1.0  0.47180  0.08302  0.38878  1.0000
  C   C2533     1.0  0.31744  0.30363  0.43958  1.0000
  H   H2045     1.0  0.44756  0.27481  0.41154  1.0000
  H   H2046     1.0  0.38722  0.00258  0.21474  1.0000
  C   C2534     1.0  0.44157  0.21666  0.36544  1.0000
  C   C2535     1.0  0.36981  0.22446  0.45488  1.0000
  H   H2047     1.0  0.27704  0.12200  0.33948  1.0000
  H   H2048     1.0  0.26765  0.10319  0.37014  1.0000
  C   C2536     1.0  0.25419  0.13440  0.23492  1.0000
  H   H2049     1.0  0.46898  0.25424  0.27834  1.0000
  Fe  Fe168     1.0  0.38987  0.30462  0.42448  1.0000
  H   H2050     1.0  0.24812  0.15147  0.25466  1.0000
  H   H2051     1.0  0.29168  0.12749  0.24882  1.0000
  H   H2052     1.0  0.45395  0.17792  0.38648  1.0000
  C   C2537     1.0  0.34493  0.15177  0.32247  1.0000
  C   C2538     1.0  0.28111  0.12483  0.27771  1.0000
  C   C2539     1.0  0.45091  0.28327  0.44618  1.0000
  C   C2540     1.0  0.28486  0.12444  0.29459  1.0000
  S   S345      1.0  0.24067  0.43223  0.39643  1.0000
  H   H2053     1.0  0.48159  0.27102  0.36457  1.0000
  H   H2054     1.0  0.28908  0.19243  0.39190  1.0000
  H   H2055     1.0  0.46264  0.00424  0.34843  1.0000
  C   C2541     1.0  0.43864  0.35846  0.40439  1.0000
  C   C2542     1.0  0.30235  0.31440  0.44881  1.0000
  H   H2056     1.0  0.30394  0.14475  0.36867  1.0000
  C   C2543     1.0  0.47338  0.23348  0.31490  1.0000
  C   C2544     1.0  0.30302  0.23497  0.43295  1.0000
  H   H2057     1.0  0.39961  0.26541  0.32815  1.0000
  C   C2545     1.0  0.44217  0.15360  0.34971  1.0000
  S   S346      1.0  0.23697  0.43524  0.34498  1.0000
  C   C2546     1.0  0.45561  0.18313  0.25856  1.0000
  H   H2058     1.0  0.28534  0.17786  0.24499  1.0000
  C   C2547     1.0  0.44328  0.02303  0.40831  1.0000
  C   C2548     1.0  0.42176  0.25846  0.28026  1.0000
  C   C2549     1.0  0.25040  0.16741  0.22731  1.0000
  C   C2550     1.0  0.46761  0.29937  0.27374  1.0000
  H   H2059     1.0  0.27335  0.15160  0.36050  1.0000
  C   C2551     1.0  0.37408  0.11197  0.27847  1.0000
  H   H2060     1.0  0.46709  0.20359  0.45597  1.0000
  C   C2552     1.0  0.45079  0.28723  0.40243  1.0000
  C   C2553     1.0  0.46454  0.26779  0.28133  1.0000
  C   C2554     1.0  0.43883  0.23822  0.43350  1.0000
  C   C2555     1.0  0.44743  0.22764  0.44767  1.0000
  S   S347      1.0  0.48226  0.13932  0.26202  1.0000
  C   C2556     1.0  0.26624  0.33378  0.24358  1.0000
  C   C2557     1.0  0.35672  0.11312  0.27493  1.0000
  C   C2558     1.0  0.47557  0.18811  0.39201  1.0000
  C   C2559     1.0  0.27665  0.16044  0.36750  1.0000
  C   C2560     1.0  0.44417  0.28922  0.29923  1.0000
  S   S348      1.0  0.24538  0.18874  0.23368  1.0000
  C   C2561     1.0  0.24048  0.11972  0.37513  1.0000
  C   C2562     1.0  0.38627  0.08533  0.26488  1.0000
  C   C2563     1.0  0.34153  0.12051  0.33450  1.0000
  C   C2564     1.0  0.38874  0.09806  0.27357  1.0000
  H   H2061     1.0  0.24480  0.35794  0.30228  1.0000
  C   C2565     1.0  0.46782  0.17482  0.38881  1.0000
  H   H2062     1.0  0.45362  0.25679  0.34000  1.0000
  H   H2063     1.0  0.28174  0.32035  0.29197  1.0000
  C   C2566     1.0  0.31207  0.12872  0.26306  1.0000
  H   H2064     1.0  0.44979  0.15628  0.32059  1.0000
  C   C2567     1.0  0.23738  0.45541  0.28047  1.0000
  H   H2065     1.0  0.39691  0.21527  0.36862  1.0000
  C   C2568     1.0  0.27620  0.25109  0.39575  1.0000
  C   C2569     1.0  0.46195  0.36505  0.42383  1.0000
  P   P87       1.0  0.46299  0.21136  0.39126  1.0000
  H   H2066     1.0  0.28227  0.26155  0.39760  1.0000
  H   H2067     1.0  0.46074  0.33262  0.37052  1.0000
  C   C2570     1.0  0.24523  0.44806  0.26474  1.0000
  C   C2571     1.0  0.31586  0.45065  0.23451  1.0000
  H   H2068     1.0  0.24613  0.22360  0.41900  1.0000
  C   C2572     1.0  0.26377  0.17585  0.37173  1.0000
  C   C2573     1.0  0.36900  0.08623  0.26150  1.0000
  C   C2574     1.0  0.44184  0.21358  0.38404  1.0000
  H   H2069     1.0  0.39560  0.23298  0.44999  1.0000
  C   C2575     1.0  0.46291  0.11159  0.27520  1.0000
  H   H2070     1.0  0.23639  0.11117  0.38828  1.0000
  H   H2071     1.0  0.47945  0.45114  0.37811  1.0000
  C   C2576     1.0  0.35419  0.09994  0.26669  1.0000
  C   C2577     1.0  0.43995  0.16116  0.33183  1.0000
  H   H2072     1.0  0.28627  0.42726  0.40264  1.0000
  C   C2578     1.0  0.23884  0.21891  0.36903  1.0000
  C   C2579     1.0  0.29389  0.18244  0.23194  1.0000
  C   C2580     1.0  0.46204  0.07175  0.35872  1.0000
  C   C2581     1.0  0.29831  0.16832  0.38065  1.0000
  C   C2582     1.0  0.30226  0.12612  0.29576  1.0000
  H   H2073     1.0  0.47435  0.31021  0.26515  1.0000
  C   C2583     1.0  0.46873  0.27364  0.44057  1.0000
  C   C2584     1.0  0.47161  0.06891  0.32188  1.0000
  C   C2585     1.0  0.30639  0.16970  0.22260  1.0000
  C   C2586     1.0  0.25736  0.33095  0.34846  1.0000
  C   C2587     1.0  0.26372  0.33753  0.36060  1.0000
  P   P88       1.0  0.27365  0.31938  0.33157  1.0000
  C   C2588     1.0  0.29386  0.30759  0.34075  1.0000
  C   C2589     1.0  0.26820  0.18780  0.38018  1.0000
  H   H2074     1.0  0.34092  0.10014  0.26419  1.0000
  C   C2590     1.0  0.32062  0.43519  0.24763  1.0000
  H   H2075     1.0  0.30464  0.46286  0.27542  1.0000
  H   H2076     1.0  0.34112  0.10888  0.34575  1.0000
  H   H2077     1.0  0.46416  0.20563  0.26338  1.0000
  C   C2591     1.0  0.31150  0.30810  0.32996  1.0000
  C   C2592     1.0  0.32706  0.29905  0.33724  1.0000
  C   C2593     1.0  0.32512  0.28942  0.35530  1.0000
  C   C2594     1.0  0.30762  0.28878  0.36608  1.0000
  C   C2595     1.0  0.29203  0.29776  0.35885  1.0000
  C   C2596     1.0  0.27976  0.33663  0.31173  1.0000
  C   C2597     1.0  0.28176  0.35349  0.31386  1.0000
  C   C2598     1.0  0.28605  0.36702  0.29855  1.0000
  C   C2599     1.0  0.28844  0.36385  0.28103  1.0000
  C   C2600     1.0  0.28689  0.34698  0.27878  1.0000
  C   C2601     1.0  0.28275  0.33335  0.29404  1.0000
  C   C2602     1.0  0.25065  0.30931  0.31463  1.0000
  Fe  Fe169     1.0  0.48385  0.13402  0.32875  1.0000
  H   H2078     1.0  0.43819  0.21429  0.31399  1.0000
  C   C2603     1.0  0.45288  0.19873  0.26562  1.0000
  H   H2079     1.0  0.43250  0.32226  0.37144  1.0000
  H   H2080     1.0  0.28734  0.38005  0.30034  1.0000
  H   H2081     1.0  0.29066  0.25174  0.36784  1.0000
  C   C2604     1.0  0.45451  0.36529  0.39499  1.0000
  C   C2605     1.0  0.23848  0.33530  0.34832  1.0000
  H   H2082     1.0  0.47897  0.09954  0.36193  1.0000
  H   H2083     1.0  0.31328  0.31554  0.31597  1.0000
  H   H2084     1.0  0.34064  0.29955  0.32893  1.0000
  H   H2085     1.0  0.33716  0.28246  0.36100  1.0000
  H   H2086     1.0  0.30623  0.28137  0.38011  1.0000
  H   H2087     1.0  0.27855  0.29714  0.36739  1.0000
  H   H2088     1.0  0.27990  0.35633  0.32731  1.0000
  H   H2089     1.0  0.29156  0.21141  0.43585  1.0000
  Fe  Fe170     1.0  0.24109  0.18869  0.26366  1.0000
  H   H2090     1.0  0.25478  0.14847  0.32689  1.0000
  H   H2091     1.0  0.46985  0.01422  0.37348  1.0000
  C   C2606     1.0  0.26263  0.27187  0.32608  1.0000
  H   H2092     1.0  0.48187  0.05713  0.26374  1.0000
  C   C2607     1.0  0.25728  0.13379  0.21640  1.0000
  H   H2093     1.0  0.45389  0.21829  0.35518  1.0000
  H   H2094     1.0  0.47534  0.06809  0.30759  1.0000
  Fe  Fe171     1.0  0.38691  0.32739  0.45270  1.0000
  C   C2608     1.0  0.47416  0.07895  0.40691  1.0000
  C   C2609     1.0  0.30846  0.42590  0.37915  1.0000
  H   H2095     1.0  0.46083  0.99888  0.42031  1.0000
  H   H2096     1.0  0.34507  0.19581  0.22586  1.0000
  H   H2097     1.0  0.42504  0.21944  0.34575  1.0000
  C   C2610     1.0  0.33984  0.12517  0.21492  1.0000
  H   H2098     1.0  0.46546  0.11115  0.28841  1.0000
  C   C2611     1.0  0.29976  0.47008  0.28656  1.0000
  C   C2612     1.0  0.47336  0.24515  0.37594  1.0000
  C   C2613     1.0  0.45982  0.01298  0.41318  1.0000
  C   C2614     1.0  0.29743  0.45765  0.23355  1.0000
  H   H2099     1.0  0.46620  0.22296  0.22632  1.0000
  C   C2615     1.0  0.38088  0.23632  0.45485  1.0000
  C   C2616     1.0  0.47396  0.03918  0.39937  1.0000
  H   H2100     1.0  0.44370  0.23151  0.46086  1.0000
  H   H2101     1.0  0.23841  0.17390  0.45121  1.0000
  H   H2102     1.0  0.47752  0.45508  0.33598  1.0000
  C   C2617     1.0  0.23847  0.22853  0.33667  1.0000
  H   H2103     1.0  0.48261  0.31435  0.38984  1.0000
  H   H2104     1.0  0.26893  0.45672  0.38868  1.0000
  H   H2105     1.0  0.48039  0.41402  0.45929  1.0000
  H   H2106     1.0  0.47817  0.37428  0.39750  1.0000
  H   H2107     1.0  0.27114  0.46805  0.32819  1.0000
  H   H2108     1.0  0.36993  0.16818  0.22471  1.0000
  H   H2109     1.0  0.24493  0.22758  0.32266  1.0000
  H   H2110     1.0  0.25749  0.18897  0.42356  1.0000
  C   C2618     1.0  0.47619  0.42761  0.35049  1.0000
  C   C2619     1.0  0.48265  0.20071  0.31823  1.0000
  C   C2620     1.0  0.34691  0.45790  0.33877  1.0000
  C   C2621     1.0  0.35074  0.22911  0.46050  1.0000
  H   H2111     1.0  0.23696  0.34015  0.25295  1.0000
  C   C2622     1.0  0.24360  0.18840  0.42326  1.0000
  C   C2623     1.0  0.30584  0.15799  0.46338  1.0000
  C   C2624     1.0  0.31151  0.27680  0.46287  1.0000
  H   H2112     1.0  0.23873  0.39793  0.23974  1.0000
  C   C2625     1.0  0.48086  0.09589  0.37589  1.0000
  C   C2626     1.0  0.24198  0.43113  0.26419  1.0000
  H   H2113     1.0  0.47548  0.19461  0.42615  1.0000
  H   H2114     1.0  0.23882  0.46293  0.36600  1.0000
  Fe  Fe172     1.0  0.23600  0.40641  0.34534  1.0000
  H   H2115     1.0  0.48162  0.24091  0.42671  1.0000
  C   C2627     1.0  0.47945  0.01436  0.36055  1.0000
  C   C2628     1.0  0.23642  0.19624  0.40740  1.0000
  C   C2629     1.0  0.40983  0.39448  0.46071  1.0000
  H   H2116     1.0  0.38149  0.26210  0.46025  1.0000
  C   C2630     1.0  0.30808  0.24032  0.46083  1.0000
  C   C2631     1.0  0.37293  0.25273  0.46068  1.0000
  C   C2632     1.0  0.29491  0.21454  0.46164  1.0000
  C   C2633     1.0  0.48412  0.25684  0.36356  1.0000
  H   H2117     1.0  0.23436  0.23780  0.21985  1.0000
  C   C2634     1.0  0.44123  0.27868  0.46405  1.0000
  H   H2118     1.0  0.33384  0.18554  0.46392  1.0000
  H   H2119     1.0  0.43299  0.31710  0.47481  1.0000
  S   S349      1.0  0.30980  0.99759  0.60099  1.0000
  Fe  Fe173     1.0  0.30275  0.01860  0.64357  1.0000
  S   S350      1.0  0.32890  0.01734  0.62255  1.0000
  S   S351      1.0  0.29727  0.03026  0.66888  1.0000
  Fe  Fe174     1.0  0.31055  0.02613  0.60210  1.0000
  S   S352      1.0  0.31762  0.04706  0.57659  1.0000
  Fe  Fe175     1.0  0.32570  0.98916  0.62342  1.0000
  S   S353      1.0  0.28450  0.02977  0.62309  1.0000
  C   C2635     1.0  0.25421  0.42179  0.55847  1.0000
  S   S354      1.0  0.36327  0.04586  0.69402  1.0000
  Fe  Fe176     1.0  0.42769  0.44569  0.64335  1.0000
  H   H2120     1.0  0.42895  0.01021  0.62651  1.0000
  S   S355      1.0  0.40146  0.43690  0.64391  1.0000
  C   C2636     1.0  0.26849  0.15019  0.65654  1.0000
  H   H2121     1.0  0.31431  0.26370  0.65977  1.0000
  Fe  Fe177     1.0  0.46302  0.45570  0.61907  1.0000
  C   C2637     1.0  0.32674  0.98106  0.68005  1.0000
  C   C2638     1.0  0.37918  0.97576  0.57473  1.0000
  Fe  Fe178     1.0  0.30268  0.22777  0.65143  1.0000
  S   S356      1.0  0.31071  0.23980  0.62160  1.0000
  S   S357      1.0  0.32454  0.21508  0.66824  1.0000
  C   C2639     1.0  0.48375  0.43477  0.52973  1.0000
  S   S358      1.0  0.26674  0.24788  0.62018  1.0000
  Fe  Fe179     1.0  0.29098  0.22482  0.61752  1.0000
  S   S359      1.0  0.29994  0.20913  0.59475  1.0000
  Fe  Fe180     1.0  0.28596  0.26192  0.62667  1.0000
  S   S360      1.0  0.28401  0.29202  0.61469  1.0000
  S   S361      1.0  0.28504  0.21091  0.64692  1.0000
  S   S362      1.0  0.27948  0.25109  0.65688  1.0000
  Fe  Fe181     1.0  0.25025  0.17891  0.53774  1.0000
  S   S363      1.0  0.27515  0.15672  0.53976  1.0000
  C   C2640     1.0  0.29140  0.24646  0.50392  1.0000
  Fe  Fe182     1.0  0.24121  0.16570  0.50740  1.0000
  S   S364      1.0  0.26570  0.14263  0.50678  1.0000
  H   H2122     1.0  0.45323  0.44795  0.69817  1.0000
  Fe  Fe183     1.0  0.25788  0.13834  0.53741  1.0000
  S   S365      1.0  0.25256  0.11241  0.55712  1.0000
  Fe  Fe184     1.0  0.28064  0.16335  0.50903  1.0000
  S   S366      1.0  0.30842  0.16911  0.49365  1.0000
  C   C2641     1.0  0.42904  0.34627  0.52893  1.0000
  S   S367      1.0  0.25669  0.18686  0.50721  1.0000
  Fe  Fe185     1.0  0.37374  0.38715  0.58223  1.0000
  S   S368      1.0  0.35256  0.40633  0.56736  1.0000
  S   S369      1.0  0.39952  0.39638  0.58243  1.0000
  Fe  Fe186     1.0  0.35326  0.35571  0.59150  1.0000
  S   S370      1.0  0.33059  0.37268  0.57768  1.0000
  S   S371      1.0  0.35404  0.32588  0.60445  1.0000
  Fe  Fe187     1.0  0.35294  0.38260  0.55532  1.0000
  S   S372      1.0  0.35002  0.38632  0.52609  1.0000
  Fe  Fe188     1.0  0.33218  0.39459  0.59099  1.0000
  S   S373      1.0  0.30589  0.40940  0.60620  1.0000
  S   S374      1.0  0.37576  0.36422  0.56823  1.0000
  S   S375      1.0  0.35335  0.37688  0.60677  1.0000
  C   C2642     1.0  0.27656  0.35988  0.62222  1.0000
  C   C2643     1.0  0.32138  0.34303  0.64288  1.0000
  H   H2123     1.0  0.24667  0.39774  0.55585  1.0000
  C   C2644     1.0  0.24750  0.42744  0.58912  1.0000
  H   H2124     1.0  0.26461  0.14468  0.67099  1.0000
  S   S376      1.0  0.39237  0.32477  0.48081  1.0000
  C   C2645     1.0  0.28540  0.24185  0.52285  1.0000
  C   C2646     1.0  0.42338  0.35412  0.55855  1.0000
  H   H2125     1.0  0.26291  0.17801  0.66000  1.0000
  H   H2126     1.0  0.34811  0.11908  0.67261  1.0000
  C   C2647     1.0  0.28051  0.44128  0.60318  1.0000
  H   H2127     1.0  0.37581  0.43566  0.56583  1.0000
  C   C2648     1.0  0.26548  0.29263  0.66488  1.0000
  C   C2649     1.0  0.23835  0.36551  0.63370  1.0000
  C   C2650     1.0  0.36205  0.36925  0.51353  1.0000
  C   C2651     1.0  0.37672  0.35605  0.51921  1.0000
  C   C2652     1.0  0.38620  0.34282  0.50877  1.0000
  C   C2653     1.0  0.38087  0.34240  0.49283  1.0000
  C   C2654     1.0  0.36629  0.35570  0.48706  1.0000
  C   C2655     1.0  0.35699  0.36915  0.49732  1.0000
  H   H2128     1.0  0.38090  0.35610  0.53152  1.0000
  H   H2129     1.0  0.39763  0.33276  0.51316  1.0000
  S   S377      1.0  0.24004  0.19903  0.55659  1.0000
  H   H2130     1.0  0.34575  0.37940  0.49276  1.0000
  C   C2656     1.0  0.29715  0.43147  0.59497  1.0000
  H   H2131     1.0  0.31397  0.07917  0.68974  1.0000
  C   C2657     1.0  0.47474  0.38662  0.59342  1.0000
  C   C2658     1.0  0.30586  0.16240  0.70192  1.0000
  S   S378      1.0  0.47720  0.45975  0.58956  1.0000
  H   H2132     1.0  0.42313  0.46672  0.59051  1.0000
  H   H2133     1.0  0.30175  0.21936  0.48487  1.0000
  H   H2134     1.0  0.40626  0.38427  0.51311  1.0000
  H   H2135     1.0  0.31931  0.43200  0.57152  1.0000
  H   H2136     1.0  0.35009  0.01826  0.53736  1.0000
  C   C2659     1.0  0.33336  0.42163  0.65390  1.0000
  H   H2137     1.0  0.25979  0.46590  0.60048  1.0000
  H   H2138     1.0  0.34009  0.17611  0.69832  1.0000
  C   C2660     1.0  0.42527  0.38514  0.46803  1.0000
  S   S379      1.0  0.47948  0.42142  0.67865  1.0000
  C   C2661     1.0  0.33592  0.45323  0.62674  1.0000
  C   C2662     1.0  0.25581  0.42329  0.65261  1.0000
  H   H2139     1.0  0.43141  0.37865  0.55885  1.0000
  C   C2663     1.0  0.27932  0.45582  0.51083  1.0000
  Fe  Fe189     1.0  0.26227  0.23527  0.65006  1.0000
  P   P89       1.0  0.40936  0.98077  0.64785  1.0000
  C   C2664     1.0  0.30393  0.30096  0.61090  1.0000
  C   C2665     1.0  0.30315  0.31959  0.60384  1.0000
  C   C2666     1.0  0.31847  0.32732  0.60159  1.0000
  C   C2667     1.0  0.33480  0.31644  0.60622  1.0000
  C   C2668     1.0  0.33569  0.29769  0.61289  1.0000
  C   C2669     1.0  0.32030  0.28996  0.61522  1.0000
  H   H2140     1.0  0.29055  0.32813  0.60036  1.0000
  H   H2141     1.0  0.31752  0.34172  0.59651  1.0000
  H   H2142     1.0  0.34828  0.28915  0.61645  1.0000
  H   H2143     1.0  0.32106  0.27555  0.62050  1.0000
  C   C2670     1.0  0.28309  0.20680  0.58414  1.0000
  C   C2671     1.0  0.26447  0.21395  0.58988  1.0000
  C   C2672     1.0  0.25132  0.21153  0.58136  1.0000
  C   C2673     1.0  0.25674  0.20201  0.56703  1.0000
  C   C2674     1.0  0.27540  0.19507  0.56118  1.0000
  C   C2675     1.0  0.28851  0.19739  0.56975  1.0000
  H   H2144     1.0  0.26019  0.22127  0.60090  1.0000
  H   H2145     1.0  0.29301  0.23512  0.54911  1.0000
  H   H2146     1.0  0.27982  0.18807  0.54991  1.0000
  H   H2147     1.0  0.30290  0.19194  0.56514  1.0000
  C   C2676     1.0  0.40121  0.42539  0.62690  1.0000
  C   C2677     1.0  0.38505  0.42000  0.62690  1.0000
  C   C2678     1.0  0.38434  0.41106  0.61339  1.0000
  C   C2679     1.0  0.39986  0.40739  0.59979  1.0000
  C   C2680     1.0  0.41606  0.41268  0.59986  1.0000
  C   C2681     1.0  0.41673  0.42169  0.61331  1.0000
  H   H2148     1.0  0.37306  0.42269  0.63742  1.0000
  H   H2149     1.0  0.37179  0.40703  0.61353  1.0000
  H   H2150     1.0  0.42819  0.40968  0.58957  1.0000
  H   H2151     1.0  0.42930  0.42564  0.61327  1.0000
  C   C2682     1.0  0.32813  0.26604  0.65723  1.0000
  C   C2683     1.0  0.32024  0.21905  0.69054  1.0000
  C   C2684     1.0  0.30302  0.22797  0.69855  1.0000
  H   H2152     1.0  0.32795  0.43882  0.61019  1.0000
  H   H2153     1.0  0.29209  0.23277  0.69098  1.0000
  Fe  Fe190     1.0  0.46150  0.43990  0.65944  1.0000
  H   H2154     1.0  0.25811  0.26879  0.70862  1.0000
  C   C2685     1.0  0.25649  0.02973  0.56863  1.0000
  C   C2686     1.0  0.29961  0.06551  0.57150  1.0000
  C   C2687     1.0  0.30349  0.08119  0.55866  1.0000
  C   C2688     1.0  0.28921  0.09595  0.55439  1.0000
  C   C2689     1.0  0.27101  0.09499  0.56295  1.0000
  C   C2690     1.0  0.26720  0.07943  0.57594  1.0000
  C   C2691     1.0  0.28142  0.06470  0.58010  1.0000
  H   H2155     1.0  0.31755  0.08189  0.55196  1.0000
  H   H2156     1.0  0.29224  0.10790  0.54431  1.0000
  H   H2157     1.0  0.25317  0.07859  0.58260  1.0000
  H   H2158     1.0  0.27821  0.05259  0.58967  1.0000
  C   C2692     1.0  0.31579  0.03418  0.67596  1.0000
  C   C2693     1.0  0.31293  0.03861  0.69313  1.0000
  C   C2694     1.0  0.32749  0.04176  0.69910  1.0000
  C   C2695     1.0  0.34485  0.04103  0.68767  1.0000
  C   C2696     1.0  0.34769  0.03661  0.67055  1.0000
  C   C2697     1.0  0.33332  0.03287  0.66484  1.0000
  H   H2159     1.0  0.28974  0.20241  0.46927  1.0000
  C   C2698     1.0  0.42902  0.02619  0.70337  1.0000
  H   H2160     1.0  0.36111  0.03600  0.66172  1.0000
  H   H2161     1.0  0.33580  0.02927  0.65172  1.0000
  H   H2162     1.0  0.27083  0.19065  0.62675  1.0000
  H   H2163     1.0  0.33269  0.40930  0.66427  1.0000
  C   C2699     1.0  0.44410  0.02001  0.71191  1.0000
  C   C2700     1.0  0.36435  0.27064  0.65108  1.0000
  C   C2701     1.0  0.43790  0.42592  0.50450  1.0000
  C   C2702     1.0  0.42134  0.42115  0.51462  1.0000
  C   C2703     1.0  0.41734  0.41915  0.53359  1.0000
  C   C2704     1.0  0.42985  0.42201  0.54244  1.0000
  C   C2705     1.0  0.44664  0.42658  0.53242  1.0000
  C   C2706     1.0  0.45047  0.42879  0.51332  1.0000
  P   P90       1.0  0.46171  0.43183  0.54409  1.0000
  C   C2707     1.0  0.44914  0.45237  0.55205  1.0000
  C   C2708     1.0  0.46711  0.41379  0.56304  1.0000
  H   H2164     1.0  0.29384  0.13088  0.70573  1.0000
  C   C2709     1.0  0.36485  0.44743  0.56759  1.0000
  C   C2710     1.0  0.44040  0.45168  0.57044  1.0000
  C   C2711     1.0  0.43862  0.99911  0.63269  1.0000
  C   C2712     1.0  0.46254  0.39672  0.56572  1.0000
  C   C2713     1.0  0.31976  0.28869  0.69909  1.0000
  H   H2165     1.0  0.25967  0.42576  0.54400  1.0000
  C   C2714     1.0  0.24678  0.38046  0.62490  1.0000
  C   C2715     1.0  0.30076  0.43686  0.52969  1.0000
  H   H2166     1.0  0.47849  0.38183  0.71333  1.0000
  C   C2716     1.0  0.42983  0.46746  0.57629  1.0000
  H   H2167     1.0  0.33091  0.34779  0.63065  1.0000
  H   H2168     1.0  0.26736  0.10523  0.49095  1.0000
  H   H2169     1.0  0.44091  0.42762  0.48977  1.0000
  H   H2170     1.0  0.41153  0.41916  0.50776  1.0000
  H   H2171     1.0  0.40451  0.41540  0.54153  1.0000
  H   H2172     1.0  0.42630  0.42079  0.55712  1.0000
  H   H2173     1.0  0.48036  0.42974  0.57310  1.0000
  C   C2717     1.0  0.33515  0.11521  0.67978  1.0000
  C   C2718     1.0  0.27214  0.00655  0.54386  1.0000
  H   H2174     1.0  0.30612  0.46277  0.55582  1.0000
  C   C2719     1.0  0.32138  0.12724  0.68919  1.0000
  H   H2175     1.0  0.37297  0.45953  0.62003  1.0000
  H   H2176     1.0  0.24046  0.98307  0.66663  1.0000
  H   H2177     1.0  0.29027  0.30214  0.65068  1.0000
  C   C2720     1.0  0.35219  0.12988  0.70937  1.0000
  H   H2178     1.0  0.29565  0.15063  0.47235  1.0000
  C   C2721     1.0  0.43294  0.98332  0.64385  1.0000
  C   C2722     1.0  0.29173  0.28890  0.67862  1.0000
  H   H2179     1.0  0.36564  0.44462  0.59568  1.0000
  H   H2180     1.0  0.45377  0.39938  0.46752  1.0000
  H   H2181     1.0  0.28010  0.31490  0.47217  1.0000
  H   H2182     1.0  0.29137  0.35770  0.61767  1.0000
  H   H2183     1.0  0.44203  0.26137  0.49054  1.0000
  C   C2723     1.0  0.30640  0.43931  0.57790  1.0000
  H   H2184     1.0  0.34239  0.46389  0.64717  1.0000
  H   H2185     1.0  0.28175  0.24854  0.49514  1.0000
  C   C2724     1.0  0.36780  0.99420  0.69032  1.0000
  H   H2186     1.0  0.27535  0.20294  0.69750  1.0000
  C   C2725     1.0  0.37753  0.98948  0.67371  1.0000
  H   H2187     1.0  0.35331  0.29230  0.66588  1.0000
  C   C2726     1.0  0.42434  0.38138  0.48693  1.0000
  C   C2727     1.0  0.33250  0.09790  0.68007  1.0000
  H   H2188     1.0  0.45610  0.39379  0.55618  1.0000
  H   H2189     1.0  0.46615  0.30466  0.46439  1.0000
  H   H2190     1.0  0.38885  0.01846  0.64581  1.0000
  C   C2728     1.0  0.45885  0.00662  0.70581  1.0000
  C   C2729     1.0  0.34244  0.25469  0.64770  1.0000
  C   C2730     1.0  0.24905  0.34796  0.63710  1.0000
  C   C2731     1.0  0.28452  0.44293  0.49958  1.0000
  S   S380      1.0  0.45630  0.42946  0.63680  1.0000
  H   H2191     1.0  0.35201  0.98616  0.58901  1.0000
  H   H2192     1.0  0.25916  0.29723  0.65303  1.0000
  C   C2732     1.0  0.39333  0.40034  0.47222  1.0000
  H   H2193     1.0  0.24791  0.43595  0.59806  1.0000
  C   C2733     1.0  0.34460  0.46748  0.58719  1.0000
  H   H2194     1.0  0.32124  0.97640  0.56985  1.0000
  C   C2734     1.0  0.28316  0.29528  0.66354  1.0000
  C   C2735     1.0  0.31160  0.31809  0.66669  1.0000
  H   H2195     1.0  0.44402  0.00221  0.66939  1.0000
  C   C2736     1.0  0.36051  0.25700  0.64459  1.0000
  C   C2737     1.0  0.24441  0.06884  0.52815  1.0000
  C   C2738     1.0  0.33450  0.99860  0.55472  1.0000
  C   C2739     1.0  0.25638  0.28321  0.68117  1.0000
  H   H2196     1.0  0.37837  0.27239  0.64877  1.0000
  C   C2740     1.0  0.25889  0.07510  0.53106  1.0000
  C   C2741     1.0  0.29760  0.23897  0.53445  1.0000
  H   H2197     1.0  0.27832  0.99761  0.53425  1.0000
  C   C2742     1.0  0.30472  0.12189  0.69845  1.0000
  Fe  Fe191     1.0  0.28490  0.00057  0.62340  1.0000
  C   C2743     1.0  0.46289  0.37957  0.49049  1.0000
  C   C2744     1.0  0.32984  0.42255  0.63679  1.0000
  H   H2198     1.0  0.27135  0.24014  0.52856  1.0000
  H   H2199     1.0  0.34341  0.08836  0.67339  1.0000
  H   H2200     1.0  0.23691  0.21696  0.58595  1.0000
  H   H2201     1.0  0.44158  0.43901  0.58033  1.0000
  C   C2745     1.0  0.32384  0.32446  0.65086  1.0000
  H   H2202     1.0  0.33517  0.31525  0.64437  1.0000
  H   H2203     1.0  0.29944  0.03953  0.70189  1.0000
  C   C2746     1.0  0.26744  0.16895  0.65037  1.0000
  C   C2747     1.0  0.26597  0.37745  0.61894  1.0000
  H   H2204     1.0  0.27342  0.43539  0.61644  1.0000
  C   C2748     1.0  0.33781  0.43660  0.65760  1.0000
  H   H2205     1.0  0.41579  0.33093  0.55401  1.0000
  H   H2206     1.0  0.37219  0.03969  0.62297  1.0000
  C   C2749     1.0  0.28714  0.45238  0.52625  1.0000
  C   C2750     1.0  0.32969  0.16105  0.66543  1.0000
  C   C2751     1.0  0.31821  0.16080  0.65396  1.0000
  C   C2752     1.0  0.32024  0.17106  0.63612  1.0000
  C   C2753     1.0  0.33372  0.18163  0.62959  1.0000
  C   C2754     1.0  0.34542  0.18169  0.64079  1.0000
  C   C2755     1.0  0.34349  0.17140  0.65862  1.0000
  C   C2756     1.0  0.31594  0.09263  0.68940  1.0000
  P   P91       1.0  0.32536  0.14934  0.68903  1.0000
  C   C2757     1.0  0.47706  0.37334  0.50041  1.0000
  H   H2207     1.0  0.27280  0.38873  0.61187  1.0000
  C   C2758     1.0  0.27281  0.45858  0.59415  1.0000
  H   H2208     1.0  0.37947  0.40132  0.49996  1.0000
  H   H2209     1.0  0.47742  0.37626  0.60533  1.0000
  H   H2210     1.0  0.36083  0.45327  0.53997  1.0000
  C   C2759     1.0  0.28257  0.27935  0.69493  1.0000
  C   C2760     1.0  0.25225  0.41164  0.64328  1.0000
  C   C2761     1.0  0.45885  0.00044  0.69021  1.0000
  P   P92       1.0  0.31386  0.29405  0.67690  1.0000
  H   H2211     1.0  0.37153  0.24813  0.63726  1.0000
  H   H2212     1.0  0.32185  0.35677  0.47553  1.0000
  C   C2762     1.0  0.31419  0.16812  0.47034  1.0000
  C   C2763     1.0  0.24681  0.40605  0.56517  1.0000
  H   H2213     1.0  0.30733  0.15310  0.65898  1.0000
  H   H2214     1.0  0.31105  0.17131  0.62747  1.0000
  H   H2215     1.0  0.33485  0.19003  0.61597  1.0000
  H   H2216     1.0  0.35560  0.19022  0.63589  1.0000
  H   H2217     1.0  0.35241  0.17210  0.66710  1.0000
  C   C2764     1.0  0.28199  0.46631  0.57700  1.0000
  H   H2218     1.0  0.30476  0.36974  0.64410  1.0000
  C   C2765     1.0  0.24045  0.46641  0.52086  1.0000
  H   H2219     1.0  0.41756  0.03636  0.70839  1.0000
  C   C2766     1.0  0.35009  0.28198  0.66065  1.0000
  H   H2220     1.0  0.26045  0.44458  0.56539  1.0000
  H   H2221     1.0  0.27642  0.33158  0.63405  1.0000
  H   H2222     1.0  0.32627  0.41102  0.63389  1.0000
  C   C2767     1.0  0.26712  0.08816  0.51769  1.0000
  C   C2768     1.0  0.47524  0.32498  0.47256  1.0000
  C   C2769     1.0  0.36896  0.31754  0.55754  1.0000
  C   C2770     1.0  0.38311  0.30823  0.54593  1.0000
  C   C2771     1.0  0.37928  0.30301  0.53148  1.0000
  C   C2772     1.0  0.36130  0.30707  0.52866  1.0000
  C   C2773     1.0  0.34695  0.31635  0.54033  1.0000
  C   C2774     1.0  0.35092  0.32147  0.55489  1.0000
  P   P93       1.0  0.32346  0.31963  0.53794  1.0000
  C   C2775     1.0  0.31469  0.29945  0.55053  1.0000
  C   C2776     1.0  0.30976  0.33915  0.54725  1.0000
  C   C2777     1.0  0.29293  0.33803  0.55958  1.0000
  C   C2778     1.0  0.28269  0.35311  0.56701  1.0000
  C   C2779     1.0  0.28905  0.36943  0.56205  1.0000
  C   C2780     1.0  0.30563  0.37070  0.54963  1.0000
  C   C2781     1.0  0.31613  0.35552  0.54261  1.0000
  C   C2782     1.0  0.32168  0.28871  0.56578  1.0000
  C   C2783     1.0  0.31492  0.27311  0.57551  1.0000
  C   C2784     1.0  0.30100  0.26817  0.57029  1.0000
  C   C2785     1.0  0.29369  0.27899  0.55535  1.0000
  C   C2786     1.0  0.30039  0.29466  0.54558  1.0000
  C   C2787     1.0  0.32344  0.32318  0.51384  1.0000
  C   C2788     1.0  0.32608  0.30815  0.50568  1.0000
  C   C2789     1.0  0.32676  0.31072  0.48697  1.0000
  C   C2790     1.0  0.39233  0.39693  0.49103  1.0000
  C   C2791     1.0  0.32271  0.34323  0.48407  1.0000
  C   C2792     1.0  0.32189  0.34075  0.50279  1.0000
  H   H2223     1.0  0.37196  0.32167  0.56868  1.0000
  H   H2224     1.0  0.39707  0.30531  0.54798  1.0000
  H   H2225     1.0  0.39030  0.29628  0.52211  1.0000
  H   H2226     1.0  0.35876  0.30305  0.51725  1.0000
  H   H2227     1.0  0.34012  0.32831  0.56434  1.0000
  H   H2228     1.0  0.28786  0.32546  0.56386  1.0000
  H   H2229     1.0  0.27000  0.35199  0.57688  1.0000
  H   H2230     1.0  0.28141  0.38100  0.56808  1.0000
  H   H2231     1.0  0.31075  0.38326  0.54591  1.0000
  H   H2232     1.0  0.32937  0.35652  0.53369  1.0000
  H   H2233     1.0  0.33219  0.29240  0.57039  1.0000
  H   H2234     1.0  0.32033  0.26501  0.58731  1.0000
  H   H2235     1.0  0.29577  0.25607  0.57797  1.0000
  H   H2236     1.0  0.28274  0.27527  0.55145  1.0000
  H   H2237     1.0  0.29438  0.30307  0.53423  1.0000
  H   H2238     1.0  0.32799  0.29441  0.51367  1.0000
  H   H2239     1.0  0.32891  0.29914  0.48069  1.0000
  C   C2793     1.0  0.26124  0.09480  0.50113  1.0000
  H   H2240     1.0  0.28263  0.46161  0.53572  1.0000
  H   H2241     1.0  0.32042  0.35261  0.50834  1.0000
  C   C2794     1.0  0.33183  0.28001  0.66348  1.0000
  C   C2795     1.0  0.29632  0.17912  0.69354  1.0000
  C   C2796     1.0  0.30661  0.35538  0.65045  1.0000
  C   C2797     1.0  0.31945  0.30245  0.70810  1.0000
  C   C2798     1.0  0.39812  0.99672  0.63057  1.0000
  H   H2242     1.0  0.28672  0.32590  0.68602  1.0000
  H   H2243     1.0  0.26346  0.07027  0.54390  1.0000
  C   C2799     1.0  0.42884  0.01958  0.68821  1.0000
  H   H2244     1.0  0.29998  0.18427  0.67902  1.0000
  H   H2245     1.0  0.24268  0.09335  0.48503  1.0000
  H   H2246     1.0  0.46224  0.37023  0.58324  1.0000
  C   C2800     1.0  0.38895  0.01423  0.63346  1.0000
  C   C2801     1.0  0.37965  0.02640  0.62045  1.0000
  C   C2802     1.0  0.37989  0.02139  0.60424  1.0000
  C   C2803     1.0  0.38958  0.00429  0.60097  1.0000
  C   C2804     1.0  0.39858  0.99194  0.61409  1.0000
  H   H2247     1.0  0.28888  0.27404  0.70673  1.0000
  H   H2248     1.0  0.34883  0.11746  0.70835  1.0000
  H   H2249     1.0  0.28795  0.28195  0.48463  1.0000
  C   C2805     1.0  0.47927  0.40290  0.47101  1.0000
  C   C2806     1.0  0.32542  0.27037  0.70725  1.0000
  H   H2250     1.0  0.28773  0.99048  0.56414  1.0000
  C   C2807     1.0  0.43117  0.36944  0.55049  1.0000
  H   H2251     1.0  0.28059  0.00395  0.70078  1.0000
  C   C2808     1.0  0.34364  0.14705  0.70080  1.0000
  C   C2809     1.0  0.32507  0.32825  0.47619  1.0000
  H   H2252     1.0  0.33290  0.99086  0.66902  1.0000
  H   H2253     1.0  0.25106  0.03869  0.57828  1.0000
  H   H2254     1.0  0.37255  0.03074  0.59420  1.0000
  H   H2255     1.0  0.38999  0.00053  0.58828  1.0000
  C   C2810     1.0  0.26134  0.97247  0.61475  1.0000
  C   C2811     1.0  0.27753  0.00255  0.56064  1.0000
  C   C2812     1.0  0.47625  0.41684  0.57524  1.0000
  S   S381      1.0  0.47088  0.46475  0.64086  1.0000
  H   H2256     1.0  0.23481  0.45726  0.49890  1.0000
  H   H2257     1.0  0.23643  0.16167  0.57512  1.0000
  S   S382      1.0  0.43219  0.45409  0.66756  1.0000
  C   C2813     1.0  0.44388  0.00688  0.68149  1.0000
  H   H2258     1.0  0.26004  0.03397  0.69743  1.0000
  C   C2814     1.0  0.33096  0.43833  0.62329  1.0000
  C   C2815     1.0  0.29415  0.34914  0.66601  1.0000
  C   C2816     1.0  0.36482  0.97660  0.59011  1.0000
  C   C2817     1.0  0.26983  0.01423  0.57292  1.0000
  H   H2259     1.0  0.27779  0.09342  0.52037  1.0000
  H   H2260     1.0  0.34773  0.20623  0.69431  1.0000
  C   C2818     1.0  0.23524  0.46675  0.53952  1.0000
  H   H2261     1.0  0.34061  0.43586  0.67085  1.0000
  H   H2262     1.0  0.28256  0.35868  0.67177  1.0000
  H   H2263     1.0  0.40363  0.99041  0.71027  1.0000
  C   C2819     1.0  0.31580  0.24078  0.52714  1.0000
  C   C2820     1.0  0.32193  0.24514  0.50820  1.0000
  C   C2821     1.0  0.48389  0.33665  0.71386  1.0000
  C   C2822     1.0  0.46745  0.25543  0.47132  1.0000
  P   P94       1.0  0.44397  0.36771  0.49618  1.0000
  H   H2264     1.0  0.45299  0.46971  0.52522  1.0000
  H   H2265     1.0  0.47400  0.24492  0.48121  1.0000
  C   C2823     1.0  0.45708  0.00053  0.62908  1.0000
  H   H2266     1.0  0.42745  0.28628  0.46823  1.0000
  H   H2267     1.0  0.33617  0.24611  0.50288  1.0000
  H   H2268     1.0  0.32524  0.23845  0.53620  1.0000
  C   C2824     1.0  0.25878  0.02206  0.53952  1.0000
  H   H2269     1.0  0.41775  0.35152  0.57310  1.0000
  H   H2270     1.0  0.31618  0.99991  0.69812  1.0000
  C   C2825     1.0  0.27191  0.17610  0.63169  1.0000
  C   C2826     1.0  0.27424  0.13856  0.64404  1.0000
  C   C2827     1.0  0.27964  0.14559  0.62533  1.0000
  C   C2828     1.0  0.27780  0.16452  0.61923  1.0000
  P   P95       1.0  0.28586  0.13103  0.60886  1.0000
  C   C2829     1.0  0.30234  0.13917  0.58920  1.0000
  C   C2830     1.0  0.29637  0.10776  0.61728  1.0000
  C   C2831     1.0  0.30577  0.10336  0.63173  1.0000
  C   C2832     1.0  0.31345  0.08519  0.63834  1.0000
  C   C2833     1.0  0.31225  0.07142  0.63023  1.0000
  C   C2834     1.0  0.30378  0.07581  0.61527  1.0000
  C   C2835     1.0  0.29602  0.09390  0.60868  1.0000
  C   C2836     1.0  0.30311  0.13528  0.57220  1.0000
  C   C2837     1.0  0.31562  0.14182  0.55682  1.0000
  C   C2838     1.0  0.32750  0.15216  0.55832  1.0000
  C   C2839     1.0  0.32716  0.15565  0.57529  1.0000
  C   C2840     1.0  0.31477  0.14901  0.59074  1.0000
  C   C2841     1.0  0.26469  0.13253  0.60199  1.0000
  C   C2842     1.0  0.25436  0.11878  0.60929  1.0000
  C   C2843     1.0  0.43799  0.33884  0.48440  1.0000
  H   H2271     1.0  0.34797  0.27029  0.47058  1.0000
  C   C2844     1.0  0.24134  0.14971  0.58469  1.0000
  C   C2845     1.0  0.25790  0.14814  0.58988  1.0000
  H   H2272     1.0  0.27425  0.12417  0.64899  1.0000
  H   H2273     1.0  0.28080  0.17042  0.60479  1.0000
  H   H2274     1.0  0.30726  0.11387  0.63788  1.0000
  H   H2275     1.0  0.32035  0.08170  0.64975  1.0000
  H   H2276     1.0  0.31800  0.05734  0.63541  1.0000
  H   H2277     1.0  0.30325  0.06514  0.60874  1.0000
  H   H2278     1.0  0.28970  0.09701  0.59691  1.0000
  H   H2279     1.0  0.29393  0.12736  0.57077  1.0000
  H   H2280     1.0  0.31594  0.13905  0.54365  1.0000
  H   H2281     1.0  0.33694  0.15746  0.54629  1.0000
  H   H2282     1.0  0.33636  0.16368  0.57647  1.0000
  H   H2283     1.0  0.31482  0.15173  0.60377  1.0000
  H   H2284     1.0  0.25900  0.10684  0.61905  1.0000
  C   C2846     1.0  0.48218  0.36917  0.70860  1.0000
  H   H2285     1.0  0.46148  0.01259  0.62021  1.0000
  C   C2847     1.0  0.35646  0.45738  0.55305  1.0000
  H   H2286     1.0  0.26544  0.15910  0.58430  1.0000
  S   S383      1.0  0.25875  0.99252  0.62280  1.0000
  C   C2848     1.0  0.42228  0.34255  0.54778  1.0000
  C   C2849     1.0  0.29821  0.42748  0.50301  1.0000
  C   C2850     1.0  0.43800  0.37318  0.53167  1.0000
  H   H2287     1.0  0.24989  0.29335  0.60109  1.0000
  C   C2851     1.0  0.25049  0.03350  0.55209  1.0000
  C   C2852     1.0  0.46995  0.98628  0.63665  1.0000
  H   H2288     1.0  0.25478  0.02509  0.52644  1.0000
  H   H2289     1.0  0.32651  0.00799  0.56345  1.0000
  C   C2853     1.0  0.29888  0.45673  0.56899  1.0000
  H   H2290     1.0  0.33952  0.24399  0.64282  1.0000
  H   H2291     1.0  0.47666  0.36162  0.51155  1.0000
  H   H2292     1.0  0.47057  0.99095  0.68455  1.0000
  H   H2293     1.0  0.44361  0.38534  0.52564  1.0000
  H   H2294     1.0  0.30243  0.41772  0.49412  1.0000
  C   C2854     1.0  0.35899  0.45249  0.58456  1.0000
  S   S384      1.0  0.23530  0.23059  0.66838  1.0000
  C   C2855     1.0  0.44947  0.26471  0.47662  1.0000
  C   C2856     1.0  0.33897  0.45240  0.64411  1.0000
  C   C2857     1.0  0.29659  0.33058  0.67407  1.0000
  C   C2858     1.0  0.30205  0.10463  0.69853  1.0000
  C   C2859     1.0  0.30982  0.24782  0.49639  1.0000
  H   H2295     1.0  0.31707  0.41259  0.52060  1.0000
  C   C2860     1.0  0.44336  0.32337  0.47663  1.0000
  C   C2861     1.0  0.43715  0.36153  0.52073  1.0000
  C   C2862     1.0  0.34777  0.00451  0.53985  1.0000
  H   H2296     1.0  0.42759  0.33739  0.52084  1.0000
  C   C2863     1.0  0.26814  0.34517  0.63143  1.0000
  H   H2297     1.0  0.32520  0.04512  0.71236  1.0000
  C   C2864     1.0  0.30641  0.42452  0.51799  1.0000
  H   H2298     1.0  0.30692  0.43431  0.54148  1.0000
  C   C2865     1.0  0.24735  0.08811  0.49781  1.0000
  C   C2866     1.0  0.35791  0.99275  0.52821  1.0000
  C   C2867     1.0  0.34731  0.16276  0.70396  1.0000
  H   H2299     1.0  0.48359  0.46295  0.68250  1.0000
  C   C2868     1.0  0.39684  0.98514  0.67006  1.0000
  C   C2869     1.0  0.24554  0.44105  0.65181  1.0000
  C   C2870     1.0  0.23903  0.07508  0.51120  1.0000
  S   S385      1.0  0.30064  0.98964  0.64595  1.0000
  C   C2871     1.0  0.30147  0.22448  0.47054  1.0000
  C   C2872     1.0  0.35388  0.25739  0.46638  1.0000
  H   H2300     1.0  0.37738  0.98473  0.56181  1.0000
  H   H2301     1.0  0.36208  0.35554  0.47478  1.0000
  C   C2873     1.0  0.31705  0.98624  0.69644  1.0000
  C   C2874     1.0  0.29632  0.28775  0.47206  1.0000
  C   C2875     1.0  0.39638  0.98993  0.70010  1.0000
  C   C2876     1.0  0.23688  0.30284  0.60340  1.0000
  H   H2302     1.0  0.24292  0.28062  0.68201  1.0000
  H   H2303     1.0  0.41716  0.02455  0.68157  1.0000
  H   H2304     1.0  0.24257  0.33647  0.64413  1.0000
  H   H2305     1.0  0.36997  0.98965  0.66354  1.0000
  H   H2306     1.0  0.32587  0.25948  0.70056  1.0000
  C   C2877     1.0  0.46413  0.39446  0.47575  1.0000
  H   H2307     1.0  0.42097  0.98163  0.68127  1.0000
  H   H2308     1.0  0.37022  0.46812  0.65921  1.0000
  H   H2309     1.0  0.26681  0.41867  0.66015  1.0000
  C   C2878     1.0  0.40767  0.38729  0.49843  1.0000
  C   C2879     1.0  0.46199  0.31644  0.47070  1.0000
  H   H2310     1.0  0.26056  0.39808  0.64395  1.0000
  C   C2880     1.0  0.33429  0.21287  0.70055  1.0000
  C   C2881     1.0  0.27585  0.01061  0.71234  1.0000
  C   C2882     1.0  0.45122  0.34744  0.48648  1.0000
  C   C2883     1.0  0.28241  0.18990  0.70405  1.0000
  C   C2884     1.0  0.40617  0.98509  0.68354  1.0000
  H   H2311     1.0  0.42347  0.34431  0.48838  1.0000
  C   C2885     1.0  0.25458  0.43244  0.57047  1.0000
  C   C2886     1.0  0.26395  0.02761  0.71046  1.0000
  C   C2887     1.0  0.24045  0.41144  0.59603  1.0000
  H   H2312     1.0  0.38126  0.40732  0.46661  1.0000
  H   H2313     1.0  0.36814  0.99740  0.51661  1.0000
  H   H2314     1.0  0.31554  0.31666  0.70202  1.0000
  C   C2888     1.0  0.47605  0.42537  0.70087  1.0000
  H   H2315     1.0  0.48047  0.34704  0.48112  1.0000
  C   C2889     1.0  0.46992  0.34042  0.48038  1.0000
  P   P96       1.0  0.31787  0.25259  0.47184  1.0000
  C   C2890     1.0  0.46618  0.38325  0.58098  1.0000
  H   H2316     1.0  0.40579  0.97870  0.61129  1.0000
  H   H2317     1.0  0.35295  0.99808  0.69288  1.0000
  C   C2891     1.0  0.23500  0.31652  0.61295  1.0000
  H   H2318     1.0  0.24851  0.45018  0.65877  1.0000
  C   C2892     1.0  0.33161  0.98076  0.55826  1.0000
  C   C2893     1.0  0.34260  0.24574  0.46608  1.0000
  C   C2894     1.0  0.24013  0.40078  0.58391  1.0000
  C   C2895     1.0  0.30845  0.97391  0.71056  1.0000
  H   H2319     1.0  0.27793  0.44472  0.48823  1.0000
  C   C2896     1.0  0.47990  0.40338  0.59046  1.0000
  C   C2897     1.0  0.23834  0.41775  0.63303  1.0000
  C   C2898     1.0  0.23791  0.12029  0.60385  1.0000
  C   C2899     1.0  0.35482  0.97503  0.53147  1.0000
  H   H2320     1.0  0.46292  0.43302  0.50513  1.0000
  C   C2900     1.0  0.26499  0.27646  0.69613  1.0000
  H   H2321     1.0  0.23503  0.38822  0.58905  1.0000
  C   C2901     1.0  0.46219  0.43931  0.70705  1.0000
  H   H2322     1.0  0.24664  0.31754  0.61791  1.0000
  H   H2323     1.0  0.27414  0.01128  0.58585  1.0000
  H   H2324     1.0  0.24205  0.21450  0.63464  1.0000
  H   H2325     1.0  0.48158  0.01462  0.53269  1.0000
  C   C2902     1.0  0.29178  0.30647  0.46504  1.0000
  C   C2903     1.0  0.44680  0.46901  0.53955  1.0000
  C   C2904     1.0  0.37722  0.99463  0.70342  1.0000
  H   H2326     1.0  0.28934  0.10039  0.70596  1.0000
  H   H2327     1.0  0.42190  0.12843  0.71355  1.0000
  Fe  Fe192     1.0  0.32777  0.20608  0.80822  1.0000
  S   S386      1.0  0.33272  0.23049  0.78632  1.0000
  S   S387      1.0  0.30837  0.21229  0.83397  1.0000
  Fe  Fe193     1.0  0.35323  0.18014  0.78502  1.0000
  S   S388      1.0  0.36021  0.20264  0.76123  1.0000
  S   S389      1.0  0.36708  0.15086  0.78497  1.0000
  Fe  Fe194     1.0  0.36241  0.21663  0.78273  1.0000
  S   S390      1.0  0.38437  0.23296  0.77922  1.0000
  Fe  Fe195     1.0  0.32986  0.21425  0.76731  1.0000
  H   H2328     1.0  0.37024  0.11525  0.72773  1.0000
  S   S391      1.0  0.35762  0.19324  0.80603  1.0000
  S   S392      1.0  0.32278  0.19065  0.78964  1.0000
  H   H2329     1.0  0.28375  0.21045  0.86854  1.0000
  C   C2905     1.0  0.40078  0.98965  0.80834  1.0000
  C   C2906     1.0  0.47821  0.35296  0.72036  1.0000
  H   H2330     1.0  0.45719  0.13584  0.78218  1.0000
  S   S393      1.0  0.36433  0.05711  0.76960  1.0000
  C   C2907     1.0  0.46525  0.34018  0.80818  1.0000
  C   C2908     1.0  0.39542  0.24191  0.94361  1.0000
  H   H2331     1.0  0.42194  0.21212  0.89128  1.0000
  Fe  Fe196     1.0  0.35338  0.03541  0.76343  1.0000
  S   S394      1.0  0.34580  0.01171  0.78577  1.0000
  H   H2332     1.0  0.45342  0.34610  0.80198  1.0000
  C   C2909     1.0  0.25351  0.00568  0.88805  1.0000
  H   H2333     1.0  0.38890  0.99637  0.80225  1.0000
  S   S395      1.0  0.26665  0.99456  0.79688  1.0000
  H   H2334     1.0  0.27158  0.18487  0.89060  1.0000
  Fe  Fe197     1.0  0.45430  0.28086  0.83551  1.0000
  Fe  Fe198     1.0  0.44215  0.24434  0.84565  1.0000
  S   S396      1.0  0.45160  0.23689  0.87236  1.0000
  S   S397      1.0  0.42870  0.22302  0.84161  1.0000
  Fe  Fe199     1.0  0.43902  0.26563  0.87506  1.0000
  S   S398      1.0  0.42106  0.27305  0.90105  1.0000
  S   S399      1.0  0.42741  0.27240  0.84975  1.0000
  S   S400      1.0  0.46837  0.25315  0.82923  1.0000
  C   C2910     1.0  0.41306  0.09767  0.76171  1.0000
  H   H2335     1.0  0.23578  0.03501  0.95558  1.0000
  H   H2336     1.0  0.25752  0.03491  0.75347  1.0000
  H   H2337     1.0  0.25211  0.97800  0.88794  1.0000
  Fe  Fe200     1.0  0.25761  0.97119  0.81875  1.0000
  H   H2338     1.0  0.43812  0.99830  0.77774  1.0000
  H   H2339     1.0  0.25777  0.15625  0.85460  1.0000
  C   C2911     1.0  0.27529  0.19237  0.81342  1.0000
  H   H2340     1.0  0.43099  0.34259  0.95918  1.0000
  C   C2912     1.0  0.35953  0.16135  0.71518  1.0000
  C   C2913     1.0  0.48211  0.41195  0.93730  1.0000
  S   S401      1.0  0.37151  0.07351  0.72528  1.0000
  C   C2914     1.0  0.43211  0.27342  0.91829  1.0000
  C   C2915     1.0  0.45120  0.26814  0.91638  1.0000
  C   C2916     1.0  0.45951  0.26753  0.93086  1.0000
  H   H2341     1.0  0.23705  0.15077  0.78021  1.0000
  C   C2917     1.0  0.25983  0.98885  0.88249  1.0000
  C   C2918     1.0  0.42148  0.27851  0.93449  1.0000
  H   H2342     1.0  0.45953  0.26421  0.90392  1.0000
  C   C2919     1.0  0.46207  0.99013  0.84045  1.0000
  H   H2343     1.0  0.46249  0.99596  0.82611  1.0000
  H   H2344     1.0  0.40671  0.28254  0.93609  1.0000
  H   H2345     1.0  0.35576  0.98381  0.76247  1.0000
  C   C2920     1.0  0.32349  0.00738  0.78949  1.0000
  C   C2921     1.0  0.31027  0.01939  0.78035  1.0000
  C   C2922     1.0  0.29284  0.01538  0.78294  1.0000
  C   C2923     1.0  0.28845  0.99936  0.79472  1.0000
  C   C2924     1.0  0.30153  0.98745  0.80413  1.0000
  C   C2925     1.0  0.31903  0.99146  0.80151  1.0000
  H   H2346     1.0  0.31345  0.03176  0.77127  1.0000
  H   H2347     1.0  0.28271  0.02478  0.77582  1.0000
  C   C2926     1.0  0.24092  0.19441  0.78426  1.0000
  C   C2927     1.0  0.41283  0.23648  0.94801  1.0000
  C   C2928     1.0  0.44560  0.04214  0.78814  1.0000
  C   C2929     1.0  0.25743  0.03648  0.72520  1.0000
  C   C2930     1.0  0.44665  0.04786  0.75562  1.0000
  C   C2931     1.0  0.42772  0.04840  0.75890  1.0000
  C   C2932     1.0  0.41765  0.04620  0.77682  1.0000
  C   C2933     1.0  0.42658  0.04321  0.79140  1.0000
  C   C2934     1.0  0.34469  0.98310  0.75647  1.0000
  H   H2348     1.0  0.24491  0.15198  0.80894  1.0000
  H   H2349     1.0  0.40304  0.04674  0.77945  1.0000
  H   H2350     1.0  0.41878  0.04155  0.80525  1.0000
  H   H2351     1.0  0.44571  0.18801  0.81739  1.0000
  H   H2352     1.0  0.31811  0.26658  0.96409  1.0000
  C   C2935     1.0  0.36807  0.14422  0.72351  1.0000
  C   C2936     1.0  0.46471  0.18676  0.88863  1.0000
  C   C2937     1.0  0.27466  0.01133  0.74375  1.0000
  C   C2938     1.0  0.39609  0.23053  0.79699  1.0000
  C   C2939     1.0  0.39418  0.21679  0.81263  1.0000
  C   C2940     1.0  0.40411  0.21483  0.82625  1.0000
  C   C2941     1.0  0.41582  0.22674  0.82454  1.0000
  C   C2942     1.0  0.41752  0.24071  0.80908  1.0000
  C   C2943     1.0  0.40779  0.24250  0.79529  1.0000
  H   H2353     1.0  0.38522  0.20755  0.81415  1.0000
  H   H2354     1.0  0.40275  0.20399  0.83815  1.0000
  H   H2355     1.0  0.42658  0.24992  0.80757  1.0000
  H   H2356     1.0  0.40936  0.25317  0.78324  1.0000
  C   C2944     1.0  0.35670  0.13805  0.77612  1.0000
  C   C2945     1.0  0.34038  0.14564  0.76971  1.0000
  C   C2946     1.0  0.33239  0.13499  0.76284  1.0000
  C   C2947     1.0  0.34076  0.11678  0.76220  1.0000
  C   C2948     1.0  0.35707  0.10925  0.76860  1.0000
  C   C2949     1.0  0.36496  0.11983  0.77561  1.0000
  H   H2357     1.0  0.33398  0.15972  0.76994  1.0000
  C   C2950     1.0  0.24450  0.22443  0.78494  1.0000
  H   H2358     1.0  0.36365  0.09527  0.76813  1.0000
  H   H2359     1.0  0.37750  0.11387  0.78066  1.0000
  C   C2951     1.0  0.30105  0.19368  0.84991  1.0000
  C   C2952     1.0  0.30725  0.17597  0.84669  1.0000
  C   C2953     1.0  0.30028  0.16146  0.85922  1.0000
  C   C2954     1.0  0.28689  0.16475  0.87477  1.0000
  C   C2955     1.0  0.28131  0.18235  0.87830  1.0000
  C   C2956     1.0  0.28837  0.19679  0.86589  1.0000
  H   H2360     1.0  0.31729  0.17355  0.83451  1.0000
  H   H2361     1.0  0.30481  0.14779  0.85663  1.0000
  Fe  Fe201     1.0  0.38672  0.05269  0.74512  1.0000
  C   C2957     1.0  0.32098  0.99818  0.73910  1.0000
  C   C2958     1.0  0.35158  0.28953  0.96147  1.0000
  H   H2362     1.0  0.33154  0.25769  0.92834  1.0000
  H   H2363     1.0  0.42249  0.45504  0.96362  1.0000
  H   H2364     1.0  0.47025  0.04405  0.76758  1.0000
  C   C2959     1.0  0.34371  0.27543  0.96031  1.0000
  C   C2960     1.0  0.23479  0.02402  0.93293  1.0000
  C   C2961     1.0  0.44478  0.14482  0.77874  1.0000
  H   H2365     1.0  0.27847  0.00498  0.75681  1.0000
  C   C2962     1.0  0.28133  0.12769  0.77331  1.0000
  C   C2963     1.0  0.44260  0.16350  0.77793  1.0000
  C   C2964     1.0  0.46836  0.32161  0.81642  1.0000
  C   C2965     1.0  0.42704  0.32626  0.74258  1.0000
  C   C2966     1.0  0.40710  0.97087  0.80998  1.0000
  H   H2366     1.0  0.45930  0.10310  0.80088  1.0000
  H   H2367     1.0  0.28673  0.17053  0.79890  1.0000
  C   C2967     1.0  0.26532  0.19742  0.82978  1.0000
  C   C2968     1.0  0.45997  0.44218  0.72480  1.0000
  H   H2368     1.0  0.45964  0.09844  0.74627  1.0000
  C   C2969     1.0  0.41937  0.11993  0.72702  1.0000
  C   C2970     1.0  0.45561  0.04468  0.77020  1.0000
  H   H2369     1.0  0.46341  0.46228  0.78590  1.0000
  H   H2370     1.0  0.31657  0.22096  0.93840  1.0000
  C   C2971     1.0  0.48162  0.39954  0.92700  1.0000
  H   H2371     1.0  0.45323  0.16868  0.78078  1.0000
  H   H2372     1.0  0.44178  0.17314  0.89807  1.0000
  H   H2373     1.0  0.28770  0.02719  0.86124  1.0000
  C   C2972     1.0  0.24968  0.11805  0.84203  1.0000
  C   C2973     1.0  0.44528  0.39782  0.76666  1.0000
  C   C2974     1.0  0.43608  0.40988  0.75357  1.0000
  C   C2975     1.0  0.43576  0.40446  0.73775  1.0000
  C   C2976     1.0  0.44485  0.38703  0.73492  1.0000
  C   C2977     1.0  0.45485  0.37512  0.74762  1.0000
  C   C2978     1.0  0.45442  0.38041  0.76384  1.0000
  P   P97       1.0  0.46666  0.35266  0.74385  1.0000
  C   C2979     1.0  0.27261  0.13666  0.80279  1.0000
  C   C2980     1.0  0.44923  0.33902  0.75042  1.0000
  C   C2981     1.0  0.44362  0.33110  0.76883  1.0000
  C   C2982     1.0  0.43022  0.32042  0.77400  1.0000
  C   C2983     1.0  0.47623  0.19983  0.81634  1.0000
  C   C2984     1.0  0.46961  0.22030  0.93090  1.0000
  C   C2985     1.0  0.44055  0.33686  0.73736  1.0000
  C   C2986     1.0  0.47326  0.99943  0.74048  1.0000
  H   H2374     1.0  0.25831  0.97886  0.92003  1.0000
  C   C2987     1.0  0.30811  0.10855  0.82571  1.0000
  H   H2375     1.0  0.45276  0.43983  0.94915  1.0000
  C   C2988     1.0  0.31379  0.22398  0.72666  1.0000
  H   H2376     1.0  0.48030  0.31543  0.76296  1.0000
  C   C2989     1.0  0.47958  0.19034  0.87449  1.0000
  C   C2990     1.0  0.25882  0.18430  0.84440  1.0000
  H   H2377     1.0  0.34193  0.21029  0.72628  1.0000
  H   H2378     1.0  0.34007  0.01163  0.74417  1.0000
  H   H2379     1.0  0.44562  0.40215  0.77884  1.0000
  H   H2380     1.0  0.42948  0.42356  0.75556  1.0000
  H   H2381     1.0  0.42872  0.41388  0.72754  1.0000
  H   H2382     1.0  0.44431  0.38302  0.72265  1.0000
  H   H2383     1.0  0.46121  0.37122  0.77428  1.0000
  C   C2991     1.0  0.47129  0.17275  0.85690  1.0000
  H   H2384     1.0  0.24576  0.12028  0.82906  1.0000
  S   S402      1.0  0.27666  0.14694  0.88919  1.0000
  C   C2992     1.0  0.23909  0.10907  0.85761  1.0000
  H   H2385     1.0  0.47498  0.36547  0.80158  1.0000
  H   H2386     1.0  0.44432  0.02587  0.72315  1.0000
  C   C2993     1.0  0.40971  0.99976  0.81464  1.0000
  H   H2387     1.0  0.23948  0.23727  0.78941  1.0000
  P   P98       1.0  0.35780  0.25658  0.95030  1.0000
  C   C2994     1.0  0.27815  0.18423  0.72301  1.0000
  H   H2388     1.0  0.28168  0.12479  0.86193  1.0000
  S   S403      1.0  0.48135  0.40917  0.80601  1.0000
  C   C2995     1.0  0.47375  0.20841  0.94686  1.0000
  H   H2389     1.0  0.24829  0.04968  0.72369  1.0000
  C   C2996     1.0  0.33948  0.11190  0.82173  1.0000
  C   C2997     1.0  0.33346  0.13069  0.82035  1.0000
  C   C2998     1.0  0.31486  0.13851  0.82111  1.0000
  C   C2999     1.0  0.42346  0.11114  0.75847  1.0000
  H   H2390     1.0  0.43856  0.07721  0.79900  1.0000
  H   H2391     1.0  0.36627  0.28882  0.95728  1.0000
  H   H2392     1.0  0.35400  0.10598  0.82035  1.0000
  H   H2393     1.0  0.34327  0.13930  0.81820  1.0000
  H   H2394     1.0  0.31069  0.15312  0.81944  1.0000
  C   C3000     1.0  0.41633  0.07732  0.82218  1.0000
  C   C3001     1.0  0.40030  0.08745  0.83094  1.0000
  C   C3002     1.0  0.39437  0.10575  0.82325  1.0000
  C   C3003     1.0  0.40450  0.11394  0.80686  1.0000
  C   C3004     1.0  0.42079  0.10392  0.79815  1.0000
  C   C3005     1.0  0.42646  0.08547  0.80580  1.0000
  P   P99       1.0  0.43323  0.11392  0.77629  1.0000
  C   C3006     1.0  0.43102  0.13803  0.77508  1.0000
  C   C3007     1.0  0.27254  0.16086  0.82635  1.0000
  S   S404      1.0  0.46462  0.27622  0.86126  1.0000
  C   C3008     1.0  0.42663  0.17551  0.77366  1.0000
  C   C3009     1.0  0.41291  0.16886  0.77000  1.0000
  C   C3010     1.0  0.41517  0.15025  0.77054  1.0000
  H   H2395     1.0  0.42089  0.06303  0.82788  1.0000
  H   H2396     1.0  0.39236  0.08104  0.84353  1.0000
  H   H2397     1.0  0.38176  0.11356  0.82981  1.0000
  H   H2398     1.0  0.39936  0.12796  0.80093  1.0000
  H   H2399     1.0  0.47658  0.22723  0.80121  1.0000
  H   H2400     1.0  0.42479  0.18996  0.77325  1.0000
  H   H2401     1.0  0.40043  0.17810  0.76683  1.0000
  H   H2402     1.0  0.40441  0.14538  0.76757  1.0000
  C   C3011     1.0  0.43874  0.32183  0.86622  1.0000
  C   C3012     1.0  0.43739  0.33741  0.85241  1.0000
  C   C3013     1.0  0.44743  0.35068  0.85086  1.0000
  C   C3014     1.0  0.45920  0.34820  0.86285  1.0000
  C   C3015     1.0  0.46128  0.33216  0.87622  1.0000
  C   C3016     1.0  0.45048  0.31929  0.87822  1.0000
  C   C3017     1.0  0.25830  0.19154  0.77294  1.0000
  H   H2403     1.0  0.29825  0.97508  0.81329  1.0000
  C   C3018     1.0  0.44491  0.35432  0.93242  1.0000
  C   C3019     1.0  0.46566  0.99993  0.77783  1.0000
  C   C3020     1.0  0.26776  0.20568  0.94891  1.0000
  C   C3021     1.0  0.48297  0.18324  0.85877  1.0000
  C   C3022     1.0  0.46638  0.09907  0.78807  1.0000
  C   C3023     1.0  0.27606  0.98588  0.86951  1.0000
  H   H2404     1.0  0.42138  0.28159  0.96143  1.0000
  H   H2405     1.0  0.35660  0.28309  0.87484  1.0000
  Fe  Fe202     1.0  0.36043  0.05041  0.72244  1.0000
  H   H2406     1.0  0.33076  0.26973  0.89571  1.0000
  C   C3024     1.0  0.25514  0.14513  0.79910  1.0000
  C   C3025     1.0  0.26269  0.02826  0.74189  1.0000
  C   C3026     1.0  0.45604  0.31860  0.92668  1.0000
  C   C3027     1.0  0.45653  0.16898  0.87126  1.0000
  H   H2407     1.0  0.44927  0.45303  0.72949  1.0000
  C   C3028     1.0  0.46840  0.99151  0.86914  1.0000
  H   H2408     1.0  0.45743  0.23099  0.93158  1.0000
  H   H2409     1.0  0.43084  0.31158  0.86754  1.0000
  H   H2410     1.0  0.42867  0.33909  0.84280  1.0000
  H   H2411     1.0  0.44633  0.36278  0.84016  1.0000
  H   H2412     1.0  0.46666  0.35877  0.86148  1.0000
  H   H2413     1.0  0.45129  0.30712  0.88889  1.0000
  C   C3029     1.0  0.43957  0.33996  0.94624  1.0000
  P   P100      1.0  0.27803  0.13729  0.82406  1.0000
  C   C3030     1.0  0.32996  0.27964  0.73319  1.0000
  C   C3031     1.0  0.45570  0.99802  0.75114  1.0000
  H   H2414     1.0  0.28099  0.20481  0.93969  1.0000
  C   C3032     1.0  0.28770  0.16767  0.73145  1.0000
  C   C3033     1.0  0.38049  0.25035  0.95539  1.0000
  H   H2415     1.0  0.28225  0.20292  0.75875  1.0000
  C   C3034     1.0  0.37173  0.27894  0.89601  1.0000
  C   C3035     1.0  0.45331  0.17592  0.88710  1.0000
  H   H2416     1.0  0.30910  0.14418  0.72774  1.0000
  H   H2417     1.0  0.33149  0.08626  0.82534  1.0000
  H   H2418     1.0  0.38292  0.28505  0.88705  1.0000
  H   H2419     1.0  0.42633  0.31405  0.78824  1.0000
  H   H2420     1.0  0.45973  0.30476  0.92459  1.0000
  H   H2421     1.0  0.36074  0.22507  0.93458  1.0000
  H   H2422     1.0  0.43460  0.13270  0.73821  1.0000
  H   H2423     1.0  0.38329  0.27408  0.91971  1.0000
  P   P101      1.0  0.47524  0.16446  0.83609  1.0000
  C   C3036     1.0  0.28607  0.99971  0.86184  1.0000
  C   C3037     1.0  0.34899  0.23591  0.95916  1.0000
  H   H2424     1.0  0.45440  0.04978  0.74176  1.0000
  C   C3038     1.0  0.35505  0.17361  0.85456  1.0000
  C   C3039     1.0  0.34220  0.16447  0.86729  1.0000
  C   C3040     1.0  0.33218  0.17157  0.88258  1.0000
  C   C3041     1.0  0.33515  0.18770  0.88532  1.0000
  C   C3042     1.0  0.34809  0.19699  0.87260  1.0000
  C   C3043     1.0  0.35792  0.18986  0.85712  1.0000
  P   P102      1.0  0.35199  0.21801  0.87575  1.0000
  C   C3044     1.0  0.33290  0.22719  0.89229  1.0000
  C   C3045     1.0  0.37337  0.21438  0.88317  1.0000
  C   C3046     1.0  0.38799  0.20025  0.87848  1.0000
  C   C3047     1.0  0.40535  0.19928  0.88172  1.0000
  C   C3048     1.0  0.40827  0.21237  0.88966  1.0000
  C   C3049     1.0  0.39373  0.22631  0.89465  1.0000
  C   C3050     1.0  0.37632  0.22723  0.89155  1.0000
  C   C3051     1.0  0.33253  0.22056  0.91102  1.0000
  C   C3052     1.0  0.31717  0.22641  0.92394  1.0000
  C   C3053     1.0  0.30213  0.23895  0.91829  1.0000
  C   C3054     1.0  0.30241  0.24571  0.89970  1.0000
  C   C3055     1.0  0.31769  0.23983  0.88672  1.0000
  C   C3056     1.0  0.35340  0.23356  0.85388  1.0000
  C   C3057     1.0  0.36726  0.24390  0.84725  1.0000
  C   C3058     1.0  0.36870  0.25503  0.82983  1.0000
  C   C3059     1.0  0.35644  0.25586  0.81887  1.0000
  C   C3060     1.0  0.34252  0.24581  0.82547  1.0000
  C   C3061     1.0  0.34107  0.23466  0.84284  1.0000
  H   H2425     1.0  0.36248  0.16831  0.84248  1.0000
  H   H2426     1.0  0.33960  0.15216  0.86505  1.0000
  H   H2427     1.0  0.32175  0.16478  0.89209  1.0000
  H   H2428     1.0  0.32700  0.19298  0.89715  1.0000
  H   H2429     1.0  0.36763  0.19699  0.84691  1.0000
  H   H2430     1.0  0.38634  0.19041  0.87159  1.0000
  H   H2431     1.0  0.41679  0.18899  0.87706  1.0000
  Fe  Fe203     1.0  0.47657  0.24785  0.85636  1.0000
  H   H2432     1.0  0.39617  0.23690  0.90010  1.0000
  H   H2433     1.0  0.36541  0.23849  0.89478  1.0000
  H   H2434     1.0  0.34386  0.21044  0.91559  1.0000
  H   H2435     1.0  0.41159  0.30963  0.76492  1.0000
  C   C3062     1.0  0.45597  0.35080  0.91577  1.0000
  H   H2436     1.0  0.29058  0.25520  0.89534  1.0000
  H   H2437     1.0  0.31733  0.24492  0.87243  1.0000
  H   H2438     1.0  0.37737  0.24305  0.85511  1.0000
  H   H2439     1.0  0.37979  0.26246  0.82453  1.0000
  H   H2440     1.0  0.35801  0.26392  0.80510  1.0000
  H   H2441     1.0  0.33303  0.24632  0.81702  1.0000
  H   H2442     1.0  0.33043  0.22668  0.84762  1.0000
  C   C3063     1.0  0.26992  0.12030  0.86050  1.0000
  C   C3064     1.0  0.27993  0.01648  0.86727  1.0000
  Fe  Fe204     1.0  0.24738  0.15656  0.90284  1.0000
  C   C3065     1.0  0.28579  0.12816  0.78962  1.0000
  H   H2443     1.0  0.40477  0.01432  0.81335  1.0000
  C   C3066     1.0  0.26376  0.13576  0.76995  1.0000
  H   H2444     1.0  0.34983  0.19605  0.94734  1.0000
  H   H2445     1.0  0.29158  0.12092  0.76334  1.0000
  C   C3067     1.0  0.42980  0.27798  0.94890  1.0000
  H   H2446     1.0  0.44036  0.36818  0.93459  1.0000
  C   C3068     1.0  0.26372  0.01949  0.88032  1.0000
  C   C3069     1.0  0.44882  0.27242  0.94717  1.0000
  S   S405      1.0  0.45360  0.30784  0.81544  1.0000
  C   C3070     1.0  0.33578  0.99883  0.74620  1.0000
  P   P103      1.0  0.29680  0.98065  0.73190  1.0000
  H   H2447     1.0  0.29852  0.99741  0.85160  1.0000
  C   C3071     1.0  0.44507  0.32214  0.94329  1.0000
  C   C3072     1.0  0.45711  0.10252  0.77364  1.0000
  C   C3073     1.0  0.25923  0.11147  0.87605  1.0000
  H   H2448     1.0  0.26375  0.17875  0.76846  1.0000
  C   C3074     1.0  0.33050  0.26591  0.72421  1.0000
  H   H2449     1.0  0.29957  0.12185  0.79170  1.0000
  S   S406      1.0  0.37727  0.02934  0.74064  1.0000
  C   C3075     1.0  0.42652  0.12231  0.74102  1.0000
  H   H2450     1.0  0.33385  0.27605  0.74639  1.0000
  H   H2451     1.0  0.37695  0.14307  0.73282  1.0000
  C   C3076     1.0  0.31488  0.98176  0.74237  1.0000
  H   H2452     1.0  0.43138  0.99941  0.82744  1.0000
  H   H2453     1.0  0.44736  0.16089  0.87018  1.0000
  H   H2454     1.0  0.47829  0.22807  0.90174  1.0000
  C   C3077     1.0  0.36443  0.12852  0.72053  1.0000
  H   H2455     1.0  0.31430  0.01054  0.73116  1.0000
  C   C3078     1.0  0.34297  0.26334  0.91936  1.0000
  C   C3079     1.0  0.37210  0.27240  0.91453  1.0000
  H   H2456     1.0  0.33480  0.25175  0.73045  1.0000
  C   C3080     1.0  0.45186  0.99859  0.76970  1.0000
  H   H2457     1.0  0.29011  0.24313  0.92839  1.0000
  H   H2458     1.0  0.47232  0.01195  0.84460  1.0000
  C   C3081     1.0  0.34241  0.27027  0.90091  1.0000
  H   H2459     1.0  0.28083  0.20249  0.80234  1.0000
  H   H2460     1.0  0.26999  0.23206  0.76921  1.0000
  C   C3082     1.0  0.27873  0.17423  0.81161  1.0000
  C   C3083     1.0  0.25375  0.19902  0.94542  1.0000
  C   C3084     1.0  0.35691  0.27787  0.88918  1.0000
  H   H2461     1.0  0.41065  0.08867  0.77491  1.0000
  H   H2462     1.0  0.28646  0.23732  0.72270  1.0000
  S   S407      1.0  0.41715  0.05183  0.74027  1.0000
  S   S408      1.0  0.45634  0.03759  0.80683  1.0000
  H   H2463     1.0  0.28488  0.16343  0.74614  1.0000
  H   H2464     1.0  0.32918  0.98212  0.80866  1.0000
  C   C3085     1.0  0.26872  0.20513  0.76748  1.0000
  C   C3086     1.0  0.45394  0.16077  0.83289  1.0000
  C   C3087     1.0  0.42197  0.31793  0.76088  1.0000
  Fe  Fe205     1.0  0.34820  0.07612  0.74932  1.0000
  C   C3088     1.0  0.46649  0.09653  0.75742  1.0000
  S   S409      1.0  0.30923  0.22752  0.74911  1.0000
  H   H2465     1.0  0.26317  0.21138  0.83132  1.0000
  C   C3089     1.0  0.44246  0.17463  0.82293  1.0000
  C   C3090     1.0  0.42643  0.17136  0.81998  1.0000
  C   C3091     1.0  0.42164  0.15433  0.82699  1.0000
  C   C3092     1.0  0.43271  0.14060  0.83730  1.0000
  C   C3093     1.0  0.44870  0.14383  0.84039  1.0000
  H   H2466     1.0  0.40379  0.10433  0.71951  1.0000
  C   C3094     1.0  0.35803  0.26399  0.92621  1.0000
  H   H2467     1.0  0.46266  0.00065  0.79213  1.0000
  H   H2468     1.0  0.39755  0.08526  0.75042  1.0000
  C   C3095     1.0  0.47145  0.43101  0.73650  1.0000
  H   H2469     1.0  0.45978  0.36208  0.90507  1.0000
  C   C3096     1.0  0.40567  0.09559  0.74778  1.0000
  H   H2470     1.0  0.46475  0.20418  0.82681  1.0000
  C   C3097     1.0  0.23649  0.20043  0.95714  1.0000
  S   S410      1.0  0.33093  0.10385  0.75288  1.0000
  C   C3098     1.0  0.46203  0.33282  0.91300  1.0000
  C   C3099     1.0  0.40907  0.10647  0.73038  1.0000
  H   H2471     1.0  0.41779  0.18202  0.81205  1.0000
  H   H2472     1.0  0.40933  0.15182  0.82442  1.0000
  H   H2473     1.0  0.42892  0.12741  0.84284  1.0000
  H   H2474     1.0  0.45702  0.13305  0.84854  1.0000
  H   H2475     1.0  0.36185  0.17356  0.71794  1.0000
  H   H2476     1.0  0.31987  0.14097  0.75777  1.0000
  H   H2477     1.0  0.39369  0.23965  0.93097  1.0000
  H   H2478     1.0  0.25621  0.19307  0.93356  1.0000
  H   H2479     1.0  0.44083  0.31097  0.95382  1.0000
  C   C3100     1.0  0.30203  0.12750  0.82385  1.0000
  C   C3101     1.0  0.35290  0.22270  0.94842  1.0000
  C   C3102     1.0  0.32447  0.29790  0.72513  1.0000
  C   C3103     1.0  0.25067  0.14451  0.78282  1.0000
  S   S411      1.0  0.24442  0.97421  0.84750  1.0000
  C   C3104     1.0  0.48134  0.21862  0.91411  1.0000
  H   H2480     1.0  0.44486  0.99680  0.74517  1.0000
  H   H2481     1.0  0.32420  0.30853  0.73207  1.0000
  H   H2482     1.0  0.47896  0.38611  0.93356  1.0000
  C   C3105     1.0  0.26499  0.12407  0.84344  1.0000
  H   H2483     1.0  0.48380  0.13448  0.81651  1.0000
  H   H2484     1.0  0.44973  0.33295  0.77922  1.0000
  C   C3106     1.0  0.26254  0.16608  0.84279  1.0000
  H   H2485     1.0  0.29846  0.09981  0.82763  1.0000
  H   H2486     1.0  0.25917  0.03262  0.88420  1.0000
  C   C3107     1.0  0.32680  0.10082  0.82446  1.0000
  C   C3108     1.0  0.24375  0.10597  0.87464  1.0000
  S   S412      1.0  0.33556  0.05470  0.74476  1.0000
  H   H2487     1.0  0.46482  0.21005  0.95990  1.0000
  C   C3109     1.0  0.28160  0.00257  0.72890  1.0000
  C   C3110     1.0  0.30146  0.15677  0.72096  1.0000
  H   H2488     1.0  0.25142  0.18812  0.85725  1.0000
  H   H2489     1.0  0.29335  0.08947  0.95710  1.0000
  S   S413      1.0  0.46810  0.43480  0.75875  1.0000
  H   H2490     1.0  0.46200  0.19249  0.90069  1.0000
  H   H2491     1.0  0.26035  0.13522  0.75735  1.0000
  C   C3111     1.0  0.34689  0.20621  0.95561  1.0000
  H   H2492     1.0  0.47421  0.26315  0.92948  1.0000
  H   H2493     1.0  0.26279  0.10931  0.88925  1.0000
  C   C3112     1.0  0.46777  0.99921  0.85088  1.0000
  H   H2494     1.0  0.42438  0.23059  0.93854  1.0000
  C   C3113     1.0  0.26178  0.22159  0.77341  1.0000
  P   P104      1.0  0.47662  0.32823  0.89169  1.0000
  C   C3114     1.0  0.48342  0.31420  0.82488  1.0000
  H   H2495     1.0  0.23532  0.09940  0.88678  1.0000
  C   C3115     1.0  0.33105  0.21519  0.71862  1.0000
  H   H2496     1.0  0.47363  0.99818  0.87693  1.0000
  H   H2497     1.0  0.46847  0.45843  0.96180  1.0000
  H   H2498     1.0  0.27620  0.12055  0.94645  1.0000
  C   C3116     1.0  0.27254  0.11352  0.96049  1.0000
  H   H2499     1.0  0.26773  0.19289  0.73111  1.0000
  C   C3117     1.0  0.42492  0.99114  0.82265  1.0000
  H   H2500     1.0  0.36967  0.99891  0.71602  1.0000
  C   C3118     1.0  0.47734  0.35121  0.80807  1.0000
  C   C3119     1.0  0.48296  0.21297  0.80186  1.0000
  C   C3120     1.0  0.46297  0.97488  0.87711  1.0000
  C   C3121     1.0  0.48336  0.00041  0.76748  1.0000
  C   C3122     1.0  0.43136  0.97222  0.82446  1.0000
  C   C3123     1.0  0.29983  0.23046  0.71654  1.0000
  P   P105      1.0  0.47822  0.40589  0.96201  1.0000
  H   H2501     1.0  0.48106  0.03404  0.72337  1.0000
  C   C3124     1.0  0.24454  0.97676  0.92647  1.0000
  H   H2502     1.0  0.28079  0.97285  0.86530  1.0000
  P   P106      1.0  0.47865  0.99929  0.71638  1.0000
  H   H2503     1.0  0.42046  0.32452  0.73245  1.0000
  S   S414      1.0  0.23774  0.14815  0.93302  1.0000
  C   C3125     1.0  0.45654  0.97341  0.84830  1.0000
  C   C3126     1.0  0.44649  0.43347  0.96261  1.0000
  H   H2504     1.0  0.44412  0.34341  0.72317  1.0000
  H   H2505     1.0  0.48134  0.32392  0.72284  1.0000
  H   H2506     1.0  0.23845  0.01008  0.94003  1.0000
  Fe  Fe206     1.0  0.25862  0.67012  0.04586  1.0000
  S   S415      1.0  0.28596  0.65165  0.03998  1.0000
  C   C3127     1.0  0.23764  0.54923  0.06087  1.0000
  H   H2507     1.0  0.32514  0.50331  0.16672  1.0000
  S   S416      1.0  0.26436  0.62410  0.03128  1.0000
  Fe  Fe207     1.0  0.27107  0.62926  0.05593  1.0000
  S   S417      1.0  0.28493  0.60881  0.07723  1.0000
  Fe  Fe208     1.0  0.27676  0.64844  0.01587  1.0000
  C   C3128     1.0  0.34697  0.69356  0.20900  1.0000
  S   S418      1.0  0.25042  0.66899  0.02027  1.0000
  Fe  Fe209     1.0  0.31007  0.71689  0.16332  1.0000
  S   S419      1.0  0.28950  0.74294  0.16571  1.0000
  S   S420      1.0  0.33459  0.70582  0.17693  1.0000
  Fe  Fe210     1.0  0.29251  0.70758  0.13634  1.0000
  S   S421      1.0  0.27055  0.73278  0.13635  1.0000
  S   S422      1.0  0.29489  0.68491  0.12165  1.0000
  Fe  Fe211     1.0  0.29298  0.74723  0.13526  1.0000
  S   S423      1.0  0.29246  0.77450  0.11560  1.0000
  Fe  Fe212     1.0  0.26862  0.72675  0.16663  1.0000
  H   H2508     1.0  0.31792  0.82243  0.97712  1.0000
  S   S424      1.0  0.31532  0.72237  0.13258  1.0000
  S   S425      1.0  0.28896  0.70022  0.16689  1.0000
  Fe  Fe213     1.0  0.32103  0.89160  0.08358  1.0000
  S   S426      1.0  0.34624  0.89940  0.06408  1.0000
  S   S427      1.0  0.29183  0.90729  0.08716  1.0000
  Fe  Fe214     1.0  0.34104  0.85495  0.10031  1.0000
  S   S428      1.0  0.36824  0.85959  0.08279  1.0000
  S   S429      1.0  0.33881  0.82925  0.12181  1.0000
  Fe  Fe215     1.0  0.36002  0.88790  0.08815  1.0000
  S   S430      1.0  0.38200  0.90234  0.08894  1.0000
  Fe  Fe216     1.0  0.35290  0.87062  0.05996  1.0000
  S   S431      1.0  0.36864  0.86240  0.03356  1.0000
  S   S432      1.0  0.33417  0.88234  0.10808  1.0000
  S   S433      1.0  0.32634  0.86378  0.07698  1.0000
  C   C3129     1.0  0.42855  0.83435  0.97712  1.0000
  C   C3130     1.0  0.32983  0.54989  0.12127  1.0000
  H   H2509     1.0  0.25121  0.59723  0.07906  1.0000
  Fe  Fe217     1.0  0.42958  0.91690  0.15820  1.0000
  S   S434      1.0  0.43837  0.93949  0.13566  1.0000
  S   S435      1.0  0.40330  0.90701  0.16159  1.0000
  Fe  Fe218     1.0  0.44590  0.94909  0.15744  1.0000
  C   C3131     1.0  0.33514  0.61076  0.20052  1.0000
  S   S436      1.0  0.43483  0.92784  0.18036  1.0000
  Fe  Fe219     1.0  0.28020  0.50966  0.12349  1.0000
  S   S437      1.0  0.26832  0.49261  0.14967  1.0000
  S   S438      1.0  0.26046  0.53311  0.11013  1.0000
  Fe  Fe220     1.0  0.31832  0.48598  0.12300  1.0000
  C   C3132     1.0  0.37916  0.95379  0.13475  1.0000
  S   S439      1.0  0.34781  0.48784  0.10895  1.0000
  C   C3133     1.0  0.28040  0.96955  0.07530  1.0000
  H   H2510     1.0  0.26177  0.69298  0.14995  1.0000
  Fe  Fe221     1.0  0.29365  0.49201  0.15932  1.0000
  S   S440      1.0  0.29046  0.49468  0.18850  1.0000
  C   C3134     1.0  0.37194  0.55360  0.97663  1.0000
  S   S441      1.0  0.30414  0.51130  0.13418  1.0000
  H   H2511     1.0  0.23562  0.74975  0.15173  1.0000
  H   H2512     1.0  0.26909  0.67966  0.98480  1.0000
  C   C3135     1.0  0.30816  0.50206  0.19364  1.0000
  H   H2513     1.0  0.30562  0.60484  0.16412  1.0000
  H   H2514     1.0  0.25752  0.72130  0.07665  1.0000
  H   H2515     1.0  0.35049  0.54877  0.07702  1.0000
  C   C3136     1.0  0.33013  0.57492  0.20569  1.0000
  C   C3137     1.0  0.32373  0.50543  0.18035  1.0000
  C   C3138     1.0  0.33759  0.54291  0.10540  1.0000
  C   C3139     1.0  0.31831  0.77436  0.96962  1.0000
  S   S442      1.0  0.29690  0.64658  0.98909  1.0000
  C   C3140     1.0  0.33886  0.96186  0.09489  1.0000
  H   H2516     1.0  0.23584  0.62317  0.00959  1.0000
  C   C3141     1.0  0.26030  0.81140  0.08124  1.0000
  H   H2517     1.0  0.37637  0.53707  0.13488  1.0000
  C   C3142     1.0  0.47801  0.90869  0.01634  1.0000
  H   H2518     1.0  0.33205  0.90196  0.16335  1.0000
  C   C3143     1.0  0.43425  0.84023  0.99012  1.0000
  C   C3144     1.0  0.25856  0.80446  0.14588  1.0000
  H   H2519     1.0  0.35340  0.54300  0.96724  1.0000
  C   C3145     1.0  0.47985  0.88841  0.05452  1.0000
  C   C3146     1.0  0.39778  0.90483  0.14150  1.0000
  C   C3147     1.0  0.40903  0.90950  0.12446  1.0000
  C   C3148     1.0  0.40400  0.90860  0.10851  1.0000
  C   C3149     1.0  0.38787  0.90269  0.10946  1.0000
  C   C3150     1.0  0.37667  0.89780  0.12650  1.0000
  C   C3151     1.0  0.38158  0.89897  0.14248  1.0000
  H   H2520     1.0  0.42156  0.91395  0.12353  1.0000
  H   H2521     1.0  0.41269  0.91241  0.09537  1.0000
  H   H2522     1.0  0.36416  0.89332  0.12734  1.0000
  H   H2523     1.0  0.37280  0.89538  0.15562  1.0000
  C   C3152     1.0  0.35741  0.86316  0.01614  1.0000
  C   C3153     1.0  0.36790  0.86261  0.99853  1.0000
  C   C3154     1.0  0.35985  0.86160  0.98455  1.0000
  C   C3155     1.0  0.34117  0.86133  0.98807  1.0000
  C   C3156     1.0  0.33047  0.86246  0.00554  1.0000
  C   C3157     1.0  0.33860  0.86331  0.01962  1.0000
  H   H2524     1.0  0.38234  0.86293  0.99563  1.0000
  C   C3158     1.0  0.34001  0.55401  0.99133  1.0000
  H   H2525     1.0  0.31599  0.86234  0.00825  1.0000
  H   H2526     1.0  0.33044  0.86377  0.03318  1.0000
  C   C3159     1.0  0.28783  0.93122  0.08248  1.0000
  C   C3160     1.0  0.30228  0.94064  0.07574  1.0000
  C   C3161     1.0  0.47813  0.91739  0.98383  1.0000
  H   H2527     1.0  0.34825  0.93258  0.09754  1.0000
  H   H2528     1.0  0.23997  0.85269  0.05961  1.0000
  C   C3162     1.0  0.26970  0.94099  0.08569  1.0000
  H   H2529     1.0  0.31630  0.93319  0.07327  1.0000
  C   C3163     1.0  0.29465  0.66568  0.97105  1.0000
  C   C3164     1.0  0.34885  0.96466  0.12726  1.0000
  H   H2530     1.0  0.25850  0.93373  0.09094  1.0000
  C   C3165     1.0  0.30493  0.78977  0.11791  1.0000
  C   C3166     1.0  0.30430  0.80679  0.10595  1.0000
  C   C3167     1.0  0.31441  0.81910  0.10719  1.0000
  C   C3168     1.0  0.32522  0.81450  0.12040  1.0000
  C   C3169     1.0  0.32555  0.79761  0.13258  1.0000
  C   C3170     1.0  0.31547  0.78525  0.13132  1.0000
  H   H2531     1.0  0.29609  0.81044  0.09561  1.0000
  H   H2532     1.0  0.31390  0.83207  0.09787  1.0000
  H   H2533     1.0  0.33384  0.79397  0.14288  1.0000
  H   H2534     1.0  0.31600  0.77218  0.14064  1.0000
  C   C3171     1.0  0.25448  0.82511  0.06706  1.0000
  H   H2535     1.0  0.44237  0.88962  0.21318  1.0000
  H   H2536     1.0  0.36914  0.54596  0.17448  1.0000
  H   H2537     1.0  0.24448  0.69417  0.12678  1.0000
  H   H2538     1.0  0.47361  0.87198  0.03882  1.0000
  C   C3172     1.0  0.45474  0.84786  0.01868  1.0000
  H   H2539     1.0  0.32831  0.56105  0.20772  1.0000
  C   C3173     1.0  0.38550  0.51375  0.12215  1.0000
  Fe  Fe222     1.0  0.46350  0.91142  0.17459  1.0000
  H   H2540     1.0  0.27590  0.85352  0.16087  1.0000
  H   H2541     1.0  0.37595  0.62146  0.18044  1.0000
  H   H2542     1.0  0.46424  0.92642  0.05892  1.0000
  C   C3174     1.0  0.23987  0.84513  0.08843  1.0000
  C   C3175     1.0  0.28515  0.86217  0.13198  1.0000
  C   C3176     1.0  0.25724  0.84683  0.12798  1.0000
  H   H2543     1.0  0.23927  0.66165  0.13108  1.0000
  C   C3177     1.0  0.36254  0.55886  0.16725  1.0000
  H   H2544     1.0  0.35213  0.74553  0.97779  1.0000
  H   H2545     1.0  0.29009  0.80879  0.98956  1.0000
  C   C3178     1.0  0.35912  0.81243  0.98990  1.0000
  C   C3179     1.0  0.27774  0.58800  0.08637  1.0000
  C   C3180     1.0  0.26043  0.58590  0.08556  1.0000
  C   C3181     1.0  0.25507  0.56907  0.09327  1.0000
  C   C3182     1.0  0.26705  0.55432  0.10162  1.0000
  C   C3183     1.0  0.28425  0.55656  0.10258  1.0000
  C   C3184     1.0  0.28958  0.57335  0.09494  1.0000
  C   C3185     1.0  0.47661  0.51695  0.18330  1.0000
  C   C3186     1.0  0.24432  0.84199  0.07063  1.0000
  H   H2546     1.0  0.29361  0.54528  0.10889  1.0000
  H   H2547     1.0  0.30302  0.57489  0.09542  1.0000
  C   C3187     1.0  0.26656  0.69328  0.07376  1.0000
  C   C3188     1.0  0.26525  0.70808  0.08177  1.0000
  C   C3189     1.0  0.27386  0.70579  0.09650  1.0000
  C   C3190     1.0  0.28411  0.68876  0.10302  1.0000
  C   C3191     1.0  0.28576  0.67415  0.09469  1.0000
  C   C3192     1.0  0.27679  0.67630  0.08035  1.0000
  C   C3193     1.0  0.36491  0.95119  0.12803  1.0000
  H   H2548     1.0  0.27259  0.71718  0.10275  1.0000
  H   H2549     1.0  0.29412  0.66112  0.09927  1.0000
  H   H2550     1.0  0.27795  0.66481  0.07430  1.0000
  P   P107      1.0  0.33028  0.96098  0.11901  1.0000
  H   H2551     1.0  0.29149  0.86891  0.10272  1.0000
  H   H2552     1.0  0.26926  0.53346  0.18829  1.0000
  C   C3194     1.0  0.27837  0.55608  0.01171  1.0000
  P   P108      1.0  0.33789  0.63398  0.19748  1.0000
  C   C3195     1.0  0.23494  0.58684  0.04924  1.0000
  H   H2553     1.0  0.28129  0.61983  0.96619  1.0000
  C   C3196     1.0  0.46018  0.86243  0.00507  1.0000
  C   C3197     1.0  0.47167  0.87850  0.08745  1.0000
  C   C3198     1.0  0.35496  0.54960  0.97741  1.0000
  C   C3199     1.0  0.26039  0.89530  0.05491  1.0000
  H   H2554     1.0  0.30934  0.71748  0.96735  1.0000
  H   H2555     1.0  0.45198  0.90344  0.03347  1.0000
  C   C3200     1.0  0.35947  0.63527  0.20198  1.0000
  C   C3201     1.0  0.25583  0.81447  0.09903  1.0000
  C   C3202     1.0  0.40151  0.52032  0.14224  1.0000
  C   C3203     1.0  0.31574  0.58961  0.20223  1.0000
  C   C3204     1.0  0.40189  0.82661  0.99947  1.0000
  C   C3205     1.0  0.34723  0.55971  0.16016  1.0000
  C   C3206     1.0  0.30878  0.53252  0.07082  1.0000
  C   C3207     1.0  0.32501  0.51965  0.07212  1.0000
  C   C3208     1.0  0.34093  0.52178  0.05893  1.0000
  C   C3209     1.0  0.34054  0.53660  0.04415  1.0000
  C   C3210     1.0  0.32416  0.54947  0.04259  1.0000
  C   C3211     1.0  0.30842  0.54761  0.05635  1.0000
  P   P109      1.0  0.32295  0.56797  0.02294  1.0000
  C   C3212     1.0  0.30156  0.57026  0.01590  1.0000
  C   C3213     1.0  0.32478  0.58893  0.02798  1.0000
  C   C3214     1.0  0.32804  0.60380  0.01364  1.0000
  C   C3215     1.0  0.32983  0.61999  0.01728  1.0000
  C   C3216     1.0  0.32873  0.62138  0.03519  1.0000
  C   C3217     1.0  0.32573  0.60660  0.04949  1.0000
  C   C3218     1.0  0.32360  0.59045  0.04597  1.0000
  C   C3219     1.0  0.29484  0.55459  0.01710  1.0000
  H   H2556     1.0  0.24173  0.56739  0.09254  1.0000
  C   C3220     1.0  0.26841  0.57321  0.00513  1.0000
  C   C3221     1.0  0.27497  0.58887  0.00386  1.0000
  C   C3222     1.0  0.29149  0.58744  0.00918  1.0000
  C   C3223     1.0  0.34195  0.56253  0.00458  1.0000
  C   C3224     1.0  0.37400  0.56203  0.98978  1.0000
  H   H2557     1.0  0.25200  0.96754  0.08473  1.0000
  C   C3225     1.0  0.35910  0.56646  0.00372  1.0000
  H   H2558     1.0  0.29644  0.53067  0.08102  1.0000
  H   H2559     1.0  0.32523  0.50797  0.08335  1.0000
  H   H2560     1.0  0.35350  0.51171  0.06009  1.0000
  H   H2561     1.0  0.35297  0.53773  0.03393  1.0000
  H   H2562     1.0  0.29579  0.55765  0.05578  1.0000
  H   H2563     1.0  0.32891  0.60303  0.99964  1.0000
  H   H2564     1.0  0.33167  0.63162  0.00620  1.0000
  H   H2565     1.0  0.32975  0.63406  0.03804  1.0000
  H   H2566     1.0  0.32430  0.60792  0.06343  1.0000
  H   H2567     1.0  0.32074  0.57941  0.05736  1.0000
  H   H2568     1.0  0.30235  0.54118  0.02219  1.0000
  C   C3226     1.0  0.41327  0.49287  0.12964  1.0000
  C   C3227     1.0  0.46482  0.49105  0.18228  1.0000
  H   H2569     1.0  0.26715  0.60217  0.99894  1.0000
  H   H2570     1.0  0.29614  0.59982  0.00815  1.0000
  H   H2571     1.0  0.26837  0.79835  0.07854  1.0000
  H   H2572     1.0  0.36101  0.57284  0.01389  1.0000
  H   H2573     1.0  0.27321  0.54396  0.01279  1.0000
  H   H2574     1.0  0.46632  0.95394  0.06815  1.0000
  C   C3228     1.0  0.45957  0.90704  0.01969  1.0000
  C   C3229     1.0  0.28520  0.84947  0.03752  1.0000
  H   H2575     1.0  0.40262  0.52911  0.15065  1.0000
  C   C3230     1.0  0.25214  0.57541  0.04956  1.0000
  H   H2576     1.0  0.24539  0.76723  0.17569  1.0000
  H   H2577     1.0  0.42632  0.50131  0.14704  1.0000
  C   C3231     1.0  0.30243  0.78414  0.97921  1.0000
  H   H2578     1.0  0.24958  0.90484  0.03029  1.0000
  C   C3232     1.0  0.26027  0.64328  0.97117  1.0000
  C   C3233     1.0  0.25699  0.89508  0.07357  1.0000
  S   S443      1.0  0.33130  0.85850  0.97105  1.0000
  C   C3234     1.0  0.25349  0.55659  0.05528  1.0000
  H   H2579     1.0  0.39897  0.83194  0.02605  1.0000
  C   C3235     1.0  0.37770  0.96996  0.14037  1.0000
  H   H2580     1.0  0.27368  0.88875  0.04824  1.0000
  C   C3236     1.0  0.46807  0.83484  0.02707  1.0000
  C   C3237     1.0  0.37373  0.79760  0.98833  1.0000
  C   C3238     1.0  0.47600  0.93275  0.05253  1.0000
  H   H2581     1.0  0.38323  0.79706  0.97535  1.0000
  H   H2582     1.0  0.39781  0.48972  0.11117  1.0000
  H   H2583     1.0  0.45736  0.85618  0.09700  1.0000
  C   C3239     1.0  0.42813  0.79820  0.06173  1.0000
  H   H2584     1.0  0.40761  0.82382  0.97144  1.0000
  H   H2585     1.0  0.26758  0.88819  0.08131  1.0000
  C   C3240     1.0  0.42104  0.50362  0.20160  1.0000
  C   C3241     1.0  0.31797  0.80901  0.97514  1.0000
  C   C3242     1.0  0.40346  0.50034  0.20356  1.0000
  C   C3243     1.0  0.36913  0.57467  0.16530  1.0000
  C   C3244     1.0  0.29055  0.54769  0.18686  1.0000
  H   H2586     1.0  0.38763  0.77226  0.00243  1.0000
  C   C3245     1.0  0.30235  0.80130  0.98215  1.0000
  C   C3246     1.0  0.34405  0.57244  0.08913  1.0000
  C   C3247     1.0  0.34456  0.55421  0.08930  1.0000
  C   C3248     1.0  0.32848  0.56840  0.12101  1.0000
  C   C3249     1.0  0.33620  0.57949  0.10497  1.0000
  P   P110      1.0  0.31886  0.57729  0.14164  1.0000
  C   C3250     1.0  0.30297  0.56374  0.15671  1.0000
  C   C3251     1.0  0.30286  0.55836  0.17548  1.0000
  S   S444      1.0  0.24422  0.64798  0.06332  1.0000
  H   H2587     1.0  0.35736  0.82350  0.97831  1.0000
  C   C3252     1.0  0.27801  0.54802  0.16100  1.0000
  C   C3253     1.0  0.29012  0.55890  0.14965  1.0000
  C   C3254     1.0  0.30529  0.60010  0.13779  1.0000
  C   C3255     1.0  0.29828  0.60739  0.12180  1.0000
  C   C3256     1.0  0.28788  0.62511  0.11906  1.0000
  C   C3257     1.0  0.28406  0.63554  0.13243  1.0000
  C   C3258     1.0  0.29045  0.62816  0.14865  1.0000
  C   C3259     1.0  0.30089  0.61044  0.15142  1.0000
  H   H2588     1.0  0.34973  0.58111  0.07671  1.0000
  C   C3260     1.0  0.24425  0.78036  0.16638  1.0000
  H   H2589     1.0  0.33603  0.59360  0.10466  1.0000
  H   H2590     1.0  0.31234  0.56217  0.18137  1.0000
  H   H2591     1.0  0.40078  0.87049  0.19963  1.0000
  C   C3261     1.0  0.30651  0.50479  0.21131  1.0000
  H   H2592     1.0  0.26860  0.54375  0.15532  1.0000
  H   H2593     1.0  0.28966  0.56330  0.13530  1.0000
  H   H2594     1.0  0.30070  0.59950  0.11140  1.0000
  H   H2595     1.0  0.28286  0.63077  0.10646  1.0000
  H   H2596     1.0  0.27623  0.64940  0.13020  1.0000
  H   H2597     1.0  0.28741  0.63631  0.15898  1.0000
  C   C3262     1.0  0.39627  0.89665  0.01935  1.0000
  C   C3263     1.0  0.39857  0.90382  0.03333  1.0000
  C   C3264     1.0  0.41128  0.89404  0.04417  1.0000
  C   C3265     1.0  0.42142  0.87694  0.04128  1.0000
  C   C3266     1.0  0.41852  0.86925  0.02786  1.0000
  C   C3267     1.0  0.40632  0.87948  0.01652  1.0000
  P   P111      1.0  0.43073  0.84656  0.02527  1.0000
  C   C3268     1.0  0.42557  0.82995  0.04604  1.0000
  C   C3269     1.0  0.41621  0.80349  0.07726  1.0000
  C   C3270     1.0  0.40877  0.82192  0.07716  1.0000
  C   C3271     1.0  0.41325  0.83509  0.06157  1.0000
  C   C3272     1.0  0.42374  0.83934  0.00796  1.0000
  C   C3273     1.0  0.40753  0.83243  0.01251  1.0000
  C   C3274     1.0  0.38055  0.47332  0.08879  1.0000
  H   H2598     1.0  0.45350  0.91651  0.97583  1.0000
  H   H2599     1.0  0.36560  0.60358  0.15460  1.0000
  H   H2600     1.0  0.32706  0.55070  0.99166  1.0000
  H   H2601     1.0  0.38621  0.90405  0.01110  1.0000
  H   H2602     1.0  0.39028  0.91679  0.03598  1.0000
  H   H2603     1.0  0.41280  0.89949  0.05522  1.0000
  H   H2604     1.0  0.43098  0.86940  0.05000  1.0000
  H   H2605     1.0  0.40397  0.87402  0.00592  1.0000
  H   H2606     1.0  0.33902  0.60515  0.14152  1.0000
  H   H2607     1.0  0.39923  0.82601  0.08909  1.0000
  H   H2608     1.0  0.40663  0.84914  0.06166  1.0000
  H   H2609     1.0  0.24026  0.66822  0.97194  1.0000
  H   H2610     1.0  0.41546  0.47183  0.16651  1.0000
  H   H2611     1.0  0.27102  0.80961  0.13930  1.0000
  H   H2612     1.0  0.36005  0.68888  0.20059  1.0000
  C   C3275     1.0  0.33756  0.51151  0.18472  1.0000
  C   C3276     1.0  0.30704  0.91640  0.12996  1.0000
  C   C3277     1.0  0.31434  0.90507  0.14469  1.0000
  C   C3278     1.0  0.32631  0.91080  0.15200  1.0000
  C   C3279     1.0  0.33111  0.92783  0.14452  1.0000
  C   C3280     1.0  0.32427  0.93904  0.12936  1.0000
  C   C3281     1.0  0.31195  0.93333  0.12235  1.0000
  C   C3282     1.0  0.34679  0.57807  0.20709  1.0000
  H   H2613     1.0  0.45016  0.87269  0.99838  1.0000
  S   S445      1.0  0.29481  0.48566  0.11044  1.0000
  H   H2614     1.0  0.30333  0.71552  0.20560  1.0000
  C   C3283     1.0  0.36047  0.59133  0.15616  1.0000
  C   C3284     1.0  0.33823  0.57644  0.15128  1.0000
  H   H2615     1.0  0.24639  0.69035  0.18255  1.0000
  C   C3285     1.0  0.26876  0.85500  0.11256  1.0000
  C   C3286     1.0  0.27370  0.85417  0.14741  1.0000
  C   C3287     1.0  0.34701  0.94575  0.08832  1.0000
  H   H2616     1.0  0.38719  0.56508  0.98921  1.0000
  H   H2617     1.0  0.40562  0.62369  0.18596  1.0000
  C   C3288     1.0  0.42196  0.88113  0.20463  1.0000
  C   C3289     1.0  0.45075  0.90988  0.00512  1.0000
  H   H2618     1.0  0.29787  0.91196  0.12413  1.0000
  H   H2619     1.0  0.31087  0.89176  0.15030  1.0000
  H   H2620     1.0  0.29003  0.77862  0.98416  1.0000
  H   H2621     1.0  0.34023  0.93201  0.15056  1.0000
  H   H2622     1.0  0.30627  0.94190  0.11086  1.0000
  H   H2623     1.0  0.38903  0.82192  0.00300  1.0000
  H   H2624     1.0  0.36637  0.93857  0.12362  1.0000
  Fe  Fe223     1.0  0.23860  0.64492  0.03719  1.0000
  C   C3290     1.0  0.33186  0.70247  0.20084  1.0000
  H   H2625     1.0  0.36009  0.93390  0.06477  1.0000
  H   H2626     1.0  0.37413  0.51723  0.11512  1.0000
  H   H2627     1.0  0.29242  0.85605  0.05999  1.0000
  H   H2628     1.0  0.38487  0.48554  0.08885  1.0000
  H   H2629     1.0  0.39646  0.50482  0.19217  1.0000
  H   H2630     1.0  0.42429  0.88949  0.19104  1.0000
  C   C3291     1.0  0.41231  0.82772  0.98173  1.0000
  C   C3292     1.0  0.36366  0.78434  0.02017  1.0000
  C   C3293     1.0  0.34851  0.79888  0.02160  1.0000
  C   C3294     1.0  0.34664  0.81316  0.00644  1.0000
  P   P112      1.0  0.33232  0.79927  0.04308  1.0000
  C   C3295     1.0  0.32167  0.77955  0.05002  1.0000
  C   C3296     1.0  0.34512  0.80100  0.05901  1.0000
  C   C3297     1.0  0.34498  0.78902  0.07602  1.0000
  C   C3298     1.0  0.35414  0.79149  0.08846  1.0000
  C   C3299     1.0  0.36355  0.80581  0.08400  1.0000
  C   C3300     1.0  0.36418  0.81746  0.06690  1.0000
  C   C3301     1.0  0.35504  0.81508  0.05444  1.0000
  C   C3302     1.0  0.30877  0.77733  0.06650  1.0000
  C   C3303     1.0  0.30039  0.76218  0.07207  1.0000
  C   C3304     1.0  0.30458  0.74926  0.06113  1.0000
  C   C3305     1.0  0.31697  0.75162  0.04443  1.0000
  C   C3306     1.0  0.32536  0.76678  0.03879  1.0000
  C   C3307     1.0  0.31365  0.81877  0.04131  1.0000
  C   C3308     1.0  0.30946  0.83114  0.05302  1.0000
  C   C3309     1.0  0.29530  0.84643  0.05110  1.0000
  C   C3310     1.0  0.46474  0.86257  0.06759  1.0000
  C   C3311     1.0  0.28896  0.83698  0.02614  1.0000
  C   C3312     1.0  0.30295  0.82154  0.02820  1.0000
  H   H2631     1.0  0.38084  0.57401  0.17103  1.0000
  C   C3313     1.0  0.39318  0.63832  0.20769  1.0000
  H   H2632     1.0  0.36570  0.77349  0.03191  1.0000
  H   H2633     1.0  0.33573  0.82500  0.00722  1.0000
  H   H2634     1.0  0.33757  0.77801  0.08002  1.0000
  H   H2635     1.0  0.35340  0.78266  0.10185  1.0000
  H   H2636     1.0  0.36995  0.80813  0.09398  1.0000
  H   H2637     1.0  0.37140  0.82863  0.06342  1.0000
  H   H2638     1.0  0.35529  0.82457  0.04142  1.0000
  H   H2639     1.0  0.30541  0.78716  0.07524  1.0000
  H   H2640     1.0  0.29084  0.76031  0.08507  1.0000
  H   H2641     1.0  0.29825  0.73738  0.06567  1.0000
  H   H2642     1.0  0.32018  0.74160  0.03594  1.0000
  H   H2643     1.0  0.33463  0.76841  0.02568  1.0000
  H   H2644     1.0  0.31713  0.82919  0.06358  1.0000
  H   H2645     1.0  0.26746  0.85519  0.09893  1.0000
  H   H2646     1.0  0.28126  0.83944  0.01550  1.0000
  H   H2647     1.0  0.30583  0.81202  0.01921  1.0000
  H   H2648     1.0  0.29604  0.69538  0.99318  1.0000
  H   H2649     1.0  0.23835  0.90468  0.09643  1.0000
  C   C3314     1.0  0.35385  0.94644  0.06966  1.0000
  C   C3315     1.0  0.34930  0.59588  0.20465  1.0000
  C   C3316     1.0  0.24148  0.81410  0.14185  1.0000
  H   H2650     1.0  0.30677  0.61870  0.19759  1.0000
  H   H2651     1.0  0.42750  0.51077  0.18857  1.0000
  H   H2652     1.0  0.25980  0.64018  0.98574  1.0000
  C   C3317     1.0  0.30762  0.73711  0.98373  1.0000
  C   C3318     1.0  0.30293  0.74040  0.00156  1.0000
  C   C3319     1.0  0.29526  0.72781  0.01612  1.0000
  C   C3320     1.0  0.29264  0.71168  0.01307  1.0000
  C   C3321     1.0  0.29782  0.70803  0.99548  1.0000
  C   C3322     1.0  0.30534  0.72062  0.98089  1.0000
  H   H2653     1.0  0.46432  0.82371  0.03790  1.0000
  H   H2654     1.0  0.33822  0.52869  0.10561  1.0000
  H   H2655     1.0  0.26440  0.58116  0.04569  1.0000
  C   C3323     1.0  0.43271  0.81135  0.04615  1.0000
  H   H2656     1.0  0.43364  0.78388  0.06171  1.0000
  H   H2657     1.0  0.43353  0.47423  0.08831  1.0000
  H   H2658     1.0  0.34235  0.54732  0.16172  1.0000
  H   H2659     1.0  0.27451  0.86152  0.03575  1.0000
  H   H2660     1.0  0.44664  0.84570  0.98601  1.0000
  H   H2661     1.0  0.23899  0.53463  0.06563  1.0000
  C   C3324     1.0  0.47993  0.88997  0.07222  1.0000
  C   C3325     1.0  0.47866  0.86370  0.99955  1.0000
  H   H2662     1.0  0.26060  0.80364  0.10974  1.0000
  H   H2663     1.0  0.47866  0.92858  0.19847  1.0000
  H   H2664     1.0  0.27315  0.78058  0.16114  1.0000
  H   H2665     1.0  0.38353  0.55013  0.96588  1.0000
  H   H2666     1.0  0.30535  0.75249  0.00437  1.0000
  H   H2667     1.0  0.29136  0.73043  0.02985  1.0000
  H   H2668     1.0  0.28672  0.70193  0.02436  1.0000
  C   C3326     1.0  0.47289  0.87411  0.05232  1.0000
  H   H2669     1.0  0.30261  0.58715  0.20176  1.0000
  C   C3327     1.0  0.28256  0.86272  0.11461  1.0000
  H   H2670     1.0  0.31408  0.67087  0.19472  1.0000
  C   C3328     1.0  0.27829  0.54233  0.17959  1.0000
  H   H2671     1.0  0.45814  0.48102  0.06157  1.0000
  C   C3329     1.0  0.25987  0.78780  0.15820  1.0000
  C   C3330     1.0  0.41483  0.50447  0.14028  1.0000
  H   H2672     1.0  0.25117  0.84018  0.15755  1.0000
  H   H2673     1.0  0.46377  0.96841  0.17939  1.0000
  S   S446      1.0  0.45722  0.89847  0.15457  1.0000
  C   C3331     1.0  0.46498  0.50448  0.19152  1.0000
  C   C3332     1.0  0.37612  0.78363  0.00354  1.0000
  C   C3333     1.0  0.26599  0.96011  0.08216  1.0000
  C   C3334     1.0  0.39885  0.49799  0.12009  1.0000
  C   C3335     1.0  0.47691  0.48729  0.09440  1.0000
  S   S447      1.0  0.47511  0.93356  0.15321  1.0000
  C   C3336     1.0  0.33584  0.51439  0.20233  1.0000
  H   H2674     1.0  0.24836  0.63304  0.11986  1.0000
  C   C3337     1.0  0.31027  0.66285  0.20823  1.0000
  H   H2675     1.0  0.47746  0.52707  0.19031  1.0000
  H   H2676     1.0  0.30974  0.96703  0.06683  1.0000
  C   C3338     1.0  0.34520  0.59220  0.14898  1.0000
  S   S448      1.0  0.25560  0.69617  0.05543  1.0000
  C   C3339     1.0  0.33733  0.64625  0.17429  1.0000
  C   C3340     1.0  0.32977  0.64034  0.16256  1.0000
  C   C3341     1.0  0.32876  0.65066  0.14501  1.0000
  C   C3342     1.0  0.33542  0.66683  0.13900  1.0000
  C   C3343     1.0  0.34327  0.67260  0.15042  1.0000
  C   C3344     1.0  0.34429  0.66234  0.16795  1.0000
  C   C3345     1.0  0.31501  0.70853  0.21179  1.0000
  H   H2677     1.0  0.32488  0.54077  0.13369  1.0000
  Fe  Fe224     1.0  0.46652  0.92190  0.13359  1.0000
  C   C3346     1.0  0.24745  0.69199  0.15411  1.0000
  H   H2678     1.0  0.36813  0.86101  0.97106  1.0000
  C   C3347     1.0  0.46014  0.91477  0.98718  1.0000
  H   H2679     1.0  0.41252  0.79333  0.08930  1.0000
  H   H2680     1.0  0.34966  0.51392  0.17442  1.0000
  C   C3348     1.0  0.47608  0.49015  0.16508  1.0000
  H   H2681     1.0  0.32442  0.62800  0.16685  1.0000
  H   H2682     1.0  0.32239  0.64650  0.13613  1.0000
  H   H2683     1.0  0.33413  0.67511  0.12562  1.0000
  H   H2684     1.0  0.34807  0.68536  0.14596  1.0000
  H   H2685     1.0  0.35001  0.66736  0.17675  1.0000
  H   H2686     1.0  0.45904  0.85181  0.06583  1.0000
  S   S449      1.0  0.35327  0.52241  0.20717  1.0000
  H   H2687     1.0  0.43669  0.90813  0.00769  1.0000
  H   H2688     1.0  0.45642  0.48093  0.18864  1.0000
  C   C3349     1.0  0.29855  0.95978  0.07214  1.0000
  C   C3350     1.0  0.44556  0.47787  0.09021  1.0000
  H   H2689     1.0  0.36205  0.59784  0.20663  1.0000
  C   C3351     1.0  0.24688  0.90452  0.04481  1.0000
  C   C3352     1.0  0.46390  0.86493  0.08515  1.0000
  H   H2690     1.0  0.26678  0.54772  0.05591  1.0000
  C   C3353     1.0  0.23880  0.69037  0.17248  1.0000
  H   H2691     1.0  0.25798  0.82266  0.05330  1.0000
  C   C3354     1.0  0.40870  0.87036  0.20949  1.0000
  H   H2692     1.0  0.39133  0.94319  0.13575  1.0000
  H   H2693     1.0  0.46470  0.48425  0.12287  1.0000
  C   C3355     1.0  0.38675  0.52487  0.13331  1.0000
  H   H2694     1.0  0.25552  0.57433  0.00120  1.0000
  H   H2695     1.0  0.47128  0.88026  0.10105  1.0000
  C   C3356     1.0  0.37605  0.62808  0.19118  1.0000
  H   H2696     1.0  0.44161  0.80702  0.03406  1.0000
  S   S450      1.0  0.24168  0.72812  0.18707  1.0000
  H   H2697     1.0  0.29622  0.86775  0.13341  1.0000
  C   C3357     1.0  0.25973  0.84661  0.14545  1.0000
  C   C3358     1.0  0.23564  0.64230  0.11756  1.0000
  C   C3359     1.0  0.39285  0.62942  0.19418  1.0000
  C   C3360     1.0  0.45941  0.48182  0.07500  1.0000
  C   C3361     1.0  0.47701  0.94850  0.05766  1.0000
  H   H2698     1.0  0.29085  0.54312  0.20125  1.0000
  C   C3362     1.0  0.31817  0.60744  0.19983  1.0000
  C   C3363     1.0  0.27952  0.68007  0.97253  1.0000
  C   C3364     1.0  0.47515  0.48635  0.07712  1.0000
  H   H2699     1.0  0.35786  0.96364  0.04295  1.0000
  C   C3365     1.0  0.44749  0.47821  0.10771  1.0000
  S   S451      1.0  0.47836  0.89183  0.19573  1.0000
  C   C3366     1.0  0.23757  0.69267  0.14100  1.0000
  C   C3367     1.0  0.46304  0.48346  0.10962  1.0000
  P   P113      1.0  0.24021  0.83555  0.12565  1.0000
  C   C3368     1.0  0.24035  0.90456  0.08208  1.0000
  C   C3369     1.0  0.35272  0.96320  0.05743  1.0000
  H   H2700     1.0  0.48351  0.47364  0.21025  1.0000
  H   H2701     1.0  0.47625  0.47950  0.15820  1.0000
  C   C3370     1.0  0.24553  0.83132  0.10278  1.0000
  S   S452      1.0  0.48412  0.91503  0.10723  1.0000
  H   H2702     1.0  0.47862  0.84375  0.96560  1.0000
  H   H2703     1.0  0.35770  0.56664  0.21037  1.0000
  P   P114      1.0  0.31793  0.75284  0.96465  1.0000
  H   H2704     1.0  0.48260  0.87491  0.98882  1.0000
  P   P115      1.0  0.43006  0.47205  0.12743  1.0000
  C   C3371     1.0  0.36263  0.47098  0.09744  1.0000
  H   H2705     1.0  0.40614  0.63938  0.21011  1.0000
  H   H2706     1.0  0.38315  0.72786  0.96794  1.0000
  C   C3372     1.0  0.35474  0.73885  0.96639  1.0000
  C   C3373     1.0  0.33358  0.79963  0.96507  1.0000
  C   C3374     1.0  0.31912  0.64465  0.21316  1.0000
  S   S453      1.0  0.42269  0.71875  0.35497  1.0000
  H   H2707     1.0  0.43441  0.66100  0.37999  1.0000
  S   S454      1.0  0.42678  0.76609  0.36288  1.0000
  C   C3375     1.0  0.35585  0.71872  0.45567  1.0000
  C   C3376     1.0  0.42648  0.55504  0.22541  1.0000
  H   H2708     1.0  0.30028  0.71045  0.23922  1.0000
  S   S455      1.0  0.26383  0.68946  0.36174  1.0000
  Fe  Fe225     1.0  0.38493  0.68823  0.28592  1.0000
  S   S456      1.0  0.39047  0.65977  0.30220  1.0000
  S   S457      1.0  0.40295  0.70820  0.28364  1.0000
  Fe  Fe226     1.0  0.35095  0.68267  0.27578  1.0000
  S   S458      1.0  0.35355  0.65408  0.29210  1.0000
  Fe  Fe227     1.0  0.36011  0.66500  0.31328  1.0000
  S   S459      1.0  0.34889  0.65611  0.34326  1.0000
  Fe  Fe228     1.0  0.38345  0.65137  0.27938  1.0000
  S   S460      1.0  0.39875  0.62563  0.26917  1.0000
  S   S461      1.0  0.35485  0.69402  0.29836  1.0000
  S   S462      1.0  0.38070  0.67944  0.26174  1.0000
  C   C3377     1.0  0.31332  0.70566  0.23082  1.0000
  Fe  Fe229     1.0  0.35017  0.52638  0.23588  1.0000
  S   S463      1.0  0.32649  0.54505  0.24976  1.0000
  Fe  Fe230     1.0  0.37052  0.51795  0.26684  1.0000
  S   S464      1.0  0.34874  0.53608  0.28320  1.0000
  S   S465      1.0  0.39489  0.50033  0.27790  1.0000
  Fe  Fe231     1.0  0.32912  0.52376  0.27524  1.0000
  S   S466      1.0  0.30474  0.51709  0.29723  1.0000
  Fe  Fe232     1.0  0.34813  0.55574  0.25645  1.0000
  S   S467      1.0  0.34296  0.58624  0.25336  1.0000
  S   S468      1.0  0.35103  0.50398  0.26082  1.0000
  S   S469      1.0  0.37177  0.53867  0.24062  1.0000
  H   H2709     1.0  0.43155  0.63079  0.27897  1.0000
  H   H2710     1.0  0.44931  0.50023  0.25345  1.0000
  S   S470      1.0  0.46662  0.76785  0.37016  1.0000
  C   C3378     1.0  0.28651  0.48934  0.31482  1.0000
  C   C3379     1.0  0.43778  0.53076  0.28020  1.0000
  C   C3380     1.0  0.43970  0.51202  0.28702  1.0000
  C   C3381     1.0  0.42623  0.50286  0.28666  1.0000
  C   C3382     1.0  0.41080  0.51241  0.27937  1.0000
  C   C3383     1.0  0.40850  0.53127  0.27308  1.0000
  C   C3384     1.0  0.42193  0.54045  0.27362  1.0000
  H   H2711     1.0  0.46228  0.76979  0.40856  1.0000
  C   C3385     1.0  0.27300  0.48802  0.45146  1.0000
  H   H2712     1.0  0.39650  0.53875  0.26762  1.0000
  H   H2713     1.0  0.42017  0.55502  0.26868  1.0000
  C   C3386     1.0  0.38400  0.61463  0.26354  1.0000
  C   C3387     1.0  0.38922  0.59607  0.26267  1.0000
  C   C3388     1.0  0.37682  0.58704  0.25953  1.0000
  C   C3389     1.0  0.35941  0.59674  0.25668  1.0000
  C   C3390     1.0  0.35467  0.61541  0.25665  1.0000
  C   C3391     1.0  0.36674  0.62424  0.26038  1.0000
  H   H2714     1.0  0.40260  0.58855  0.26503  1.0000
  H   H2715     1.0  0.38065  0.57263  0.25948  1.0000
  H   H2716     1.0  0.34140  0.62307  0.25418  1.0000
  H   H2717     1.0  0.36274  0.63862  0.26049  1.0000
  C   C3392     1.0  0.28771  0.68107  0.35704  1.0000
  C   C3393     1.0  0.29725  0.67187  0.37100  1.0000
  C   C3394     1.0  0.31612  0.66445  0.36677  1.0000
  C   C3395     1.0  0.32549  0.66616  0.34855  1.0000
  C   C3396     1.0  0.31603  0.67563  0.33462  1.0000
  C   C3397     1.0  0.29723  0.68320  0.33888  1.0000
  H   H2718     1.0  0.29016  0.67046  0.38503  1.0000
  H   H2719     1.0  0.32342  0.65741  0.37762  1.0000
  H   H2720     1.0  0.32310  0.67698  0.32051  1.0000
  H   H2721     1.0  0.29002  0.69048  0.32801  1.0000
  H   H2722     1.0  0.25450  0.50096  0.43292  1.0000
  H   H2723     1.0  0.29445  0.50231  0.22164  1.0000
  H   H2724     1.0  0.28509  0.48669  0.44067  1.0000
  C   C3398     1.0  0.44545  0.64013  0.29481  1.0000
  H   H2725     1.0  0.27863  0.62499  0.30072  1.0000
  S   S471      1.0  0.32592  0.69376  0.26286  1.0000
  C   C3399     1.0  0.41690  0.71653  0.33502  1.0000
  C   C3400     1.0  0.40755  0.70268  0.33620  1.0000
  C   C3401     1.0  0.40332  0.69991  0.32055  1.0000
  C   C3402     1.0  0.40820  0.71115  0.30359  1.0000
  C   C3403     1.0  0.41753  0.72501  0.30241  1.0000
  C   C3404     1.0  0.42182  0.72775  0.31807  1.0000
  H   H2726     1.0  0.40376  0.69392  0.34925  1.0000
  H   H2727     1.0  0.39632  0.68907  0.32159  1.0000
  H   H2728     1.0  0.42137  0.73372  0.28932  1.0000
  H   H2729     1.0  0.42900  0.73847  0.31699  1.0000
  C   C3405     1.0  0.43609  0.77145  0.42699  1.0000
  C   C3406     1.0  0.45403  0.77440  0.42069  1.0000
  C   C3407     1.0  0.46133  0.78333  0.43009  1.0000
  C   C3408     1.0  0.45092  0.78893  0.44615  1.0000
  C   C3409     1.0  0.43311  0.78552  0.45281  1.0000
  C   C3410     1.0  0.42569  0.77685  0.44319  1.0000
  H   H2730     1.0  0.46745  0.55220  0.23634  1.0000
  H   H2731     1.0  0.27144  0.50716  0.27068  1.0000
  H   H2732     1.0  0.47406  0.52290  0.22655  1.0000
  H   H2733     1.0  0.41186  0.77442  0.44824  1.0000
  H   H2734     1.0  0.43599  0.68694  0.26212  1.0000
  H   H2735     1.0  0.39583  0.48078  0.24870  1.0000
  C   C3411     1.0  0.32654  0.68065  0.43269  1.0000
  C   C3412     1.0  0.31350  0.66984  0.43598  1.0000
  C   C3413     1.0  0.30023  0.67450  0.42525  1.0000
  C   C3414     1.0  0.29962  0.69020  0.41147  1.0000
  C   C3415     1.0  0.31247  0.70128  0.40832  1.0000
  C   C3416     1.0  0.32611  0.69623  0.41880  1.0000
  P   P116      1.0  0.31203  0.72167  0.39077  1.0000
  C   C3417     1.0  0.28942  0.72913  0.38525  1.0000
  C   C3418     1.0  0.31665  0.73899  0.40003  1.0000
  C   C3419     1.0  0.30824  0.74091  0.41803  1.0000
  C   C3420     1.0  0.31112  0.75466  0.42511  1.0000
  C   C3421     1.0  0.32265  0.76642  0.41443  1.0000
  C   C3422     1.0  0.33155  0.76425  0.39676  1.0000
  C   C3423     1.0  0.32862  0.75058  0.38958  1.0000
  C   C3424     1.0  0.27491  0.73891  0.39636  1.0000
  C   C3425     1.0  0.28600  0.72476  0.37000  1.0000
  C   C3426     1.0  0.32884  0.71751  0.37039  1.0000
  C   C3427     1.0  0.32914  0.73095  0.35430  1.0000
  C   C3428     1.0  0.34204  0.72794  0.33845  1.0000
  H   H2736     1.0  0.36351  0.68478  0.35396  1.0000
  H   H2737     1.0  0.28162  0.66827  0.24882  1.0000
  C   C3429     1.0  0.34129  0.70078  0.37017  1.0000
  C   C3430     1.0  0.47148  0.47860  0.26078  1.0000
  S   S472      1.0  0.46054  0.80036  0.45732  1.0000
  H   H2738     1.0  0.28999  0.66623  0.42806  1.0000
  H   H2739     1.0  0.28894  0.69376  0.40360  1.0000
  H   H2740     1.0  0.33623  0.70450  0.41632  1.0000
  H   H2741     1.0  0.32465  0.77723  0.41984  1.0000
  H   H2742     1.0  0.34067  0.77323  0.38856  1.0000
  H   H2743     1.0  0.33578  0.74921  0.37591  1.0000
  H   H2744     1.0  0.27685  0.74212  0.40844  1.0000
  H   H2745     1.0  0.29662  0.71657  0.36156  1.0000
  H   H2746     1.0  0.31931  0.74375  0.35401  1.0000
  H   H2747     1.0  0.34222  0.73830  0.32604  1.0000
  C   C3431     1.0  0.44133  0.51598  0.34697  1.0000
  C   C3432     1.0  0.46081  0.53185  0.22588  1.0000
  H   H2748     1.0  0.34096  0.68987  0.38208  1.0000
  C   C3433     1.0  0.48410  0.90909  0.42629  1.0000
  C   C3434     1.0  0.30569  0.48620  0.28525  1.0000
  C   C3435     1.0  0.37641  0.72576  0.37983  1.0000
  Fe  Fe233     1.0  0.44146  0.75733  0.38635  1.0000
  C   C3436     1.0  0.36295  0.75528  0.44153  1.0000
  C   C3437     1.0  0.46139  0.59101  0.27161  1.0000
  H   H2749     1.0  0.43312  0.59805  0.26887  1.0000
  C   C3438     1.0  0.44745  0.58429  0.30943  1.0000
  C   C3439     1.0  0.35931  0.47251  0.30808  1.0000
  H   H2750     1.0  0.46991  0.88487  0.26133  1.0000
  C   C3440     1.0  0.44460  0.52430  0.35958  1.0000
  C   C3441     1.0  0.43906  0.67373  0.27098  1.0000
  C   C3442     1.0  0.43388  0.84189  0.27952  1.0000
  S   S473      1.0  0.45507  0.54225  0.27957  1.0000
  C   C3443     1.0  0.46545  0.85601  0.24556  1.0000
  H   H2751     1.0  0.29726  0.63606  0.25777  1.0000
  C   C3444     1.0  0.44680  0.59910  0.35412  1.0000
  H   H2752     1.0  0.46854  0.48031  0.27477  1.0000
  C   C3445     1.0  0.47958  0.47491  0.22439  1.0000
  H   H2753     1.0  0.35322  0.48479  0.33150  1.0000
  C   C3446     1.0  0.43650  0.64210  0.28057  1.0000
  C   C3447     1.0  0.39446  0.49193  0.22047  1.0000
  C   C3448     1.0  0.23784  0.60108  0.32616  1.0000
  C   C3449     1.0  0.26583  0.63817  0.37393  1.0000
  H   H2754     1.0  0.25189  0.72191  0.43374  1.0000
  H   H2755     1.0  0.34742  0.65078  0.22346  1.0000
  S   S474      1.0  0.46491  0.74729  0.33777  1.0000
  H   H2756     1.0  0.47219  0.91598  0.26125  1.0000
  C   C3450     1.0  0.35323  0.47283  0.32663  1.0000
  H   H2757     1.0  0.42588  0.66050  0.25794  1.0000
  H   H2758     1.0  0.31358  0.70864  0.46155  1.0000
  H   H2759     1.0  0.46343  0.84092  0.43719  1.0000
  C   C3451     1.0  0.41167  0.65136  0.35223  1.0000
  H   H2760     1.0  0.24755  0.52661  0.22292  1.0000
  H   H2761     1.0  0.26942  0.60448  0.28624  1.0000
  H   H2762     1.0  0.25362  0.59056  0.38391  1.0000
  H   H2763     1.0  0.42261  0.64843  0.32470  1.0000
  C   C3452     1.0  0.24332  0.61225  0.33474  1.0000
  C   C3453     1.0  0.45276  0.58368  0.34609  1.0000
  H   H2764     1.0  0.43163  0.85406  0.45105  1.0000
  H   H2765     1.0  0.48272  0.88573  0.33263  1.0000
  H   H2766     1.0  0.37115  0.69887  0.39177  1.0000
  C   C3454     1.0  0.25428  0.74037  0.37675  1.0000
  H   H2767     1.0  0.45928  0.65943  0.35299  1.0000
  C   C3455     1.0  0.47168  0.67229  0.31416  1.0000
  Fe  Fe234     1.0  0.43966  0.73835  0.35660  1.0000
  Fe  Fe235     1.0  0.23475  0.65148  0.41931  1.0000
  C   C3456     1.0  0.43220  0.88113  0.21722  1.0000
  H   H2768     1.0  0.37702  0.65317  0.22837  1.0000
  H   H2769     1.0  0.39809  0.64991  0.35184  1.0000
  C   C3457     1.0  0.29886  0.49601  0.29926  1.0000
  C   C3458     1.0  0.33969  0.71704  0.45137  1.0000
  C   C3459     1.0  0.37223  0.71160  0.39444  1.0000
  C   C3460     1.0  0.43119  0.71713  0.44694  1.0000
  H   H2770     1.0  0.28121  0.49690  0.32569  1.0000
  H   H2771     1.0  0.46634  0.90040  0.35883  1.0000
  C   C3461     1.0  0.47323  0.80651  0.38268  1.0000
  C   C3462     1.0  0.47336  0.82869  0.31066  1.0000
  H   H2772     1.0  0.23555  0.49846  0.29462  1.0000
  C   C3463     1.0  0.29186  0.66155  0.23886  1.0000
  H   H2773     1.0  0.47516  0.78577  0.42498  1.0000
  H   H2774     1.0  0.44063  0.83294  0.27000  1.0000
  Fe  Fe236     1.0  0.24549  0.68177  0.43132  1.0000
  C   C3464     1.0  0.26087  0.73745  0.44836  1.0000
  P   P117      1.0  0.43850  0.57806  0.33367  1.0000
  C   C3465     1.0  0.37627  0.74413  0.40106  1.0000
  C   C3466     1.0  0.25176  0.49761  0.23316  1.0000
  C   C3467     1.0  0.35993  0.64453  0.21528  1.0000
  H   H2775     1.0  0.42078  0.59221  0.30185  1.0000
  C   C3468     1.0  0.39906  0.72968  0.45713  1.0000
  C   C3469     1.0  0.42406  0.87202  0.28667  1.0000
  H   H2776     1.0  0.46136  0.83635  0.30531  1.0000
  H   H2777     1.0  0.33474  0.75245  0.45370  1.0000
  C   C3470     1.0  0.43226  0.90827  0.24365  1.0000
  H   H2778     1.0  0.37867  0.72397  0.36590  1.0000
  H   H2779     1.0  0.40378  0.65607  0.37968  1.0000
  H   H2780     1.0  0.34562  0.80508  0.44913  1.0000
  H   H2781     1.0  0.41329  0.83946  0.32424  1.0000
  H   H2782     1.0  0.24314  0.58942  0.30233  1.0000
  C   C3471     1.0  0.42935  0.87027  0.23484  1.0000
  C   C3472     1.0  0.43262  0.86081  0.27394  1.0000
  P   P118      1.0  0.37127  0.73187  0.43887  1.0000
  H   H2783     1.0  0.31505  0.49133  0.27313  1.0000
  C   C3473     1.0  0.32849  0.69691  0.23897  1.0000
  C   C3474     1.0  0.48071  0.57631  0.35816  1.0000
  C   C3475     1.0  0.42060  0.49001  0.23354  1.0000
  H   H2784     1.0  0.41936  0.61608  0.32450  1.0000
  C   C3476     1.0  0.35413  0.69780  0.35424  1.0000
  H   H2785     1.0  0.44834  0.51602  0.37216  1.0000
  H   H2786     1.0  0.25698  0.75035  0.43944  1.0000
  H   H2787     1.0  0.27063  0.47563  0.27017  1.0000
  H   H2788     1.0  0.36443  0.70907  0.32608  1.0000
  S   S475      1.0  0.23843  0.62084  0.42465  1.0000
  H   H2789     1.0  0.44985  0.94244  0.24894  1.0000
  Fe  Fe237     1.0  0.47658  0.74017  0.36315  1.0000
  H   H2790     1.0  0.48334  0.88281  0.42254  1.0000
  C   C3477     1.0  0.43971  0.55373  0.33896  1.0000
  C   C3478     1.0  0.26522  0.48671  0.26004  1.0000
  C   C3479     1.0  0.46650  0.58158  0.30256  1.0000
  C   C3480     1.0  0.31420  0.63502  0.23107  1.0000
  H   H2791     1.0  0.43712  0.57280  0.23577  1.0000
  H   H2792     1.0  0.44571  0.68991  0.32228  1.0000
  C   C3481     1.0  0.37674  0.64604  0.21806  1.0000
  H   H2793     1.0  0.32111  0.62107  0.23524  1.0000
  C   C3482     1.0  0.47306  0.81115  0.32152  1.0000
  H   H2794     1.0  0.36401  0.48419  0.29868  1.0000
  C   C3483     1.0  0.40304  0.48675  0.23542  1.0000
  H   H2795     1.0  0.45303  0.61494  0.37023  1.0000
  C   C3484     1.0  0.25817  0.48307  0.24656  1.0000
  C   C3485     1.0  0.25708  0.60385  0.38066  1.0000
  C   C3486     1.0  0.27024  0.60644  0.38888  1.0000
  C   C3487     1.0  0.27458  0.62361  0.38554  1.0000
  C   C3488     1.0  0.43548  0.59039  0.29710  1.0000
  H   H2796     1.0  0.48338  0.70611  0.35498  1.0000
  Fe  Fe238     1.0  0.47990  0.52535  0.29074  1.0000
  H   H2797     1.0  0.42075  0.90647  0.23907  1.0000
  H   H2798     1.0  0.44729  0.62715  0.30422  1.0000
  C   C3489     1.0  0.43211  0.65756  0.36810  1.0000
  P   P119      1.0  0.44299  0.87025  0.25088  1.0000
  C   C3490     1.0  0.44721  0.52651  0.22035  1.0000
  H   H2799     1.0  0.27653  0.59533  0.39844  1.0000
  H   H2800     1.0  0.28431  0.62580  0.39237  1.0000
  C   C3491     1.0  0.46099  0.91380  0.25639  1.0000
  H   H2801     1.0  0.37820  0.79470  0.43483  1.0000
  H   H2802     1.0  0.38061  0.48991  0.22211  1.0000
  S   S476      1.0  0.48344  0.48397  0.35101  1.0000
  C   C3492     1.0  0.29652  0.67115  0.22100  1.0000
  H   H2803     1.0  0.38260  0.75259  0.37173  1.0000
  C   C3493     1.0  0.47341  0.58498  0.28374  1.0000
  H   H2804     1.0  0.41341  0.85090  0.25304  1.0000
  C   C3494     1.0  0.26199  0.60682  0.29964  1.0000
  H   H2805     1.0  0.42658  0.48653  0.24554  1.0000
  C   C3495     1.0  0.34447  0.76141  0.44930  1.0000
  H   H2806     1.0  0.26223  0.63006  0.33130  1.0000
  H   H2807     1.0  0.30424  0.75629  0.43886  1.0000
  H   H2808     1.0  0.33680  0.67706  0.44104  1.0000
  H   H2809     1.0  0.24650  0.57604  0.36058  1.0000
  C   C3496     1.0  0.43434  0.89103  0.34979  1.0000
  C   C3497     1.0  0.44214  0.88883  0.33188  1.0000
  C   C3498     1.0  0.45172  0.87173  0.32854  1.0000
  C   C3499     1.0  0.45353  0.85687  0.34308  1.0000
  C   C3500     1.0  0.44575  0.85890  0.36112  1.0000
  C   C3501     1.0  0.43611  0.87614  0.36438  1.0000
  P   P120      1.0  0.44756  0.83916  0.37956  1.0000
  C   C3502     1.0  0.43119  0.82567  0.38022  1.0000
  H   H2810     1.0  0.45947  0.71528  0.32266  1.0000
  H   H2811     1.0  0.42795  0.48830  0.29173  1.0000
  C   C3503     1.0  0.41484  0.65489  0.36789  1.0000
  C   C3504     1.0  0.37496  0.76755  0.43598  1.0000
  C   C3505     1.0  0.32030  0.51097  0.21565  1.0000
  C   C3506     1.0  0.41846  0.84549  0.31021  1.0000
  C   C3507     1.0  0.42283  0.81608  0.39697  1.0000
  C   C3508     1.0  0.41015  0.80571  0.39751  1.0000
  C   C3509     1.0  0.40609  0.80433  0.38137  1.0000
  C   C3510     1.0  0.41478  0.81332  0.36461  1.0000
  C   C3511     1.0  0.42727  0.82396  0.36401  1.0000
  C   C3512     1.0  0.44290  0.84554  0.40151  1.0000
  C   C3513     1.0  0.42489  0.85302  0.40945  1.0000
  C   C3514     1.0  0.42089  0.85635  0.42715  1.0000
  C   C3515     1.0  0.43481  0.85214  0.43709  1.0000
  C   C3516     1.0  0.45277  0.84484  0.42924  1.0000
  C   C3517     1.0  0.45681  0.84158  0.41153  1.0000
  H   H2812     1.0  0.42692  0.90431  0.35237  1.0000
  H   H2813     1.0  0.44083  0.90036  0.32059  1.0000
  H   H2814     1.0  0.45782  0.86994  0.31468  1.0000
  H   H2815     1.0  0.46104  0.84371  0.34031  1.0000
  H   H2816     1.0  0.43000  0.87822  0.37808  1.0000
  H   H2817     1.0  0.46177  0.80014  0.39009  1.0000
  C   C3518     1.0  0.26567  0.50457  0.26034  1.0000
  C   C3519     1.0  0.42579  0.65041  0.33679  1.0000
  C   C3520     1.0  0.34532  0.69081  0.22799  1.0000
  C   C3521     1.0  0.46047  0.68857  0.31852  1.0000
  H   H2818     1.0  0.42641  0.81611  0.40965  1.0000
  H   H2819     1.0  0.40410  0.79805  0.41042  1.0000
  H   H2820     1.0  0.39678  0.79569  0.38183  1.0000
  H   H2821     1.0  0.41236  0.81151  0.35202  1.0000
  H   H2822     1.0  0.43418  0.83028  0.35082  1.0000
  H   H2823     1.0  0.41384  0.85569  0.40217  1.0000
  H   H2824     1.0  0.40690  0.86169  0.43337  1.0000
  H   H2825     1.0  0.26608  0.72719  0.35386  1.0000
  H   H2826     1.0  0.31888  0.51311  0.22929  1.0000
  C   C3522     1.0  0.47036  0.82529  0.37564  1.0000
  S   S477      1.0  0.42621  0.76148  0.41466  1.0000
  C   C3523     1.0  0.40861  0.71574  0.43063  1.0000
  C   C3524     1.0  0.37854  0.74197  0.38314  1.0000
  C   C3525     1.0  0.30066  0.64346  0.24388  1.0000
  S   S478      1.0  0.26076  0.66197  0.41310  1.0000
  H   H2827     1.0  0.47063  0.83534  0.40600  1.0000
  C   C3526     1.0  0.25263  0.63570  0.36571  1.0000
  C   C3527     1.0  0.25580  0.49613  0.44707  1.0000
  C   C3528     1.0  0.33828  0.77935  0.45180  1.0000
  H   H2828     1.0  0.29927  0.73191  0.42661  1.0000
  C   C3529     1.0  0.37720  0.59700  0.30857  1.0000
  C   C3530     1.0  0.38389  0.57890  0.30667  1.0000
  C   C3531     1.0  0.37174  0.56710  0.31038  1.0000
  C   C3532     1.0  0.35289  0.57338  0.31600  1.0000
  C   C3533     1.0  0.34600  0.59175  0.31730  1.0000
  C   C3534     1.0  0.35835  0.60340  0.31390  1.0000
  P   P121      1.0  0.32187  0.59971  0.32572  1.0000
  C   C3535     1.0  0.30871  0.58594  0.32063  1.0000
  C   C3536     1.0  0.32027  0.59869  0.34964  1.0000
  C   C3537     1.0  0.31806  0.58257  0.36252  1.0000
  C   C3538     1.0  0.31791  0.58157  0.38088  1.0000
  C   C3539     1.0  0.32043  0.59648  0.38642  1.0000
  C   C3540     1.0  0.32332  0.61232  0.37356  1.0000
  C   C3541     1.0  0.32340  0.61339  0.35523  1.0000
  C   C3542     1.0  0.29341  0.58049  0.33325  1.0000
  C   C3543     1.0  0.28423  0.56881  0.32940  1.0000
  C   C3544     1.0  0.28991  0.56298  0.31278  1.0000
  C   C3545     1.0  0.30447  0.56919  0.29979  1.0000
  C   C3546     1.0  0.31372  0.58076  0.30360  1.0000
  C   C3547     1.0  0.31395  0.62259  0.31402  1.0000
  C   C3548     1.0  0.32096  0.62806  0.29537  1.0000
  C   C3549     1.0  0.31488  0.64574  0.28613  1.0000
  C   C3550     1.0  0.30162  0.65803  0.29545  1.0000
  C   C3551     1.0  0.29409  0.65249  0.31392  1.0000
  C   C3552     1.0  0.30016  0.63481  0.32318  1.0000
  H   H2829     1.0  0.38659  0.60621  0.30558  1.0000
  H   H2830     1.0  0.39845  0.57408  0.30204  1.0000
  H   H2831     1.0  0.37693  0.55310  0.30876  1.0000
  H   H2832     1.0  0.34380  0.56386  0.31920  1.0000
  H   H2833     1.0  0.35345  0.61743  0.31542  1.0000
  H   H2834     1.0  0.31679  0.57068  0.35835  1.0000
  H   H2835     1.0  0.31602  0.56916  0.39080  1.0000
  H   H2836     1.0  0.32032  0.59573  0.40063  1.0000
  H   H2837     1.0  0.32563  0.62381  0.37769  1.0000
  H   H2838     1.0  0.32620  0.62565  0.34543  1.0000
  H   H2839     1.0  0.28864  0.58512  0.34604  1.0000
  H   H2840     1.0  0.27281  0.56409  0.33932  1.0000
  H   H2841     1.0  0.28313  0.55357  0.30995  1.0000
  H   H2842     1.0  0.30885  0.56475  0.28685  1.0000
  H   H2843     1.0  0.32511  0.58528  0.29336  1.0000
  H   H2844     1.0  0.33139  0.61873  0.28812  1.0000
  H   H2845     1.0  0.32094  0.65022  0.27189  1.0000
  H   H2846     1.0  0.29748  0.67195  0.28841  1.0000
  H   H2847     1.0  0.28383  0.66204  0.32114  1.0000
  H   H2848     1.0  0.29418  0.63082  0.33749  1.0000
  C   C3553     1.0  0.41599  0.85943  0.23963  1.0000
  H   H2849     1.0  0.44264  0.50131  0.34975  1.0000
  C   C3554     1.0  0.44245  0.59367  0.27829  1.0000
  H   H2850     1.0  0.40580  0.71214  0.41911  1.0000
  C   C3555     1.0  0.25798  0.72136  0.44509  1.0000
  C   C3556     1.0  0.43394  0.92596  0.24322  1.0000
  C   C3557     1.0  0.44345  0.54316  0.35577  1.0000
  C   C3558     1.0  0.24723  0.59829  0.30874  1.0000
  H   H2851     1.0  0.45175  0.68378  0.28701  1.0000
  C   C3559     1.0  0.24821  0.61847  0.36892  1.0000
  C   C3560     1.0  0.43669  0.52652  0.33065  1.0000
  H   H2852     1.0  0.26901  0.65149  0.37162  1.0000
  H   H2853     1.0  0.44576  0.54935  0.36586  1.0000
  C   C3561     1.0  0.43586  0.54532  0.32663  1.0000
  C   C3562     1.0  0.46058  0.48985  0.24868  1.0000
  C   C3563     1.0  0.36874  0.78547  0.43863  1.0000
  C   C3564     1.0  0.44835  0.92873  0.24952  1.0000
  H   H2854     1.0  0.37862  0.75655  0.40326  1.0000
  C   C3565     1.0  0.44802  0.67186  0.28521  1.0000
  C   C3566     1.0  0.39454  0.72476  0.44279  1.0000
  C   C3567     1.0  0.37186  0.73003  0.41585  1.0000
  C   C3568     1.0  0.41476  0.58941  0.33957  1.0000
  C   C3569     1.0  0.40142  0.57956  0.35060  1.0000
  C   C3570     1.0  0.38314  0.58844  0.35528  1.0000
  C   C3571     1.0  0.37807  0.60722  0.34922  1.0000
  C   C3572     1.0  0.39121  0.61709  0.33826  1.0000
  C   C3573     1.0  0.40943  0.60824  0.33325  1.0000
  H   H2855     1.0  0.43409  0.52009  0.32091  1.0000
  H   H2856     1.0  0.43252  0.55316  0.31374  1.0000
  C   C3574     1.0  0.37018  0.71362  0.41238  1.0000
  H   H2857     1.0  0.36780  0.70220  0.42349  1.0000
  C   C3575     1.0  0.28079  0.47305  0.31625  1.0000
  C   C3576     1.0  0.26724  0.61831  0.30785  1.0000
  H   H2858     1.0  0.40502  0.56502  0.35557  1.0000
  H   H2859     1.0  0.37287  0.58077  0.36359  1.0000
  H   H2860     1.0  0.36394  0.61419  0.35282  1.0000
  H   H2861     1.0  0.38709  0.63161  0.33359  1.0000
  Fe  Fe239     1.0  0.24884  0.68259  0.39094  1.0000
  H   H2862     1.0  0.47497  0.56046  0.34200  1.0000
  H   H2863     1.0  0.42796  0.81965  0.30181  1.0000
  H   H2864     1.0  0.42290  0.88664  0.28274  1.0000
  C   C3577     1.0  0.44544  0.89320  0.24973  1.0000
  H   H2865     1.0  0.45158  0.50454  0.29251  1.0000
  H   H2866     1.0  0.28062  0.47165  0.35697  1.0000
  C   C3578     1.0  0.46461  0.48824  0.23035  1.0000
  C   C3579     1.0  0.35042  0.79134  0.44661  1.0000
  C   C3580     1.0  0.43328  0.65889  0.26867  1.0000
  C   C3581     1.0  0.46824  0.70303  0.31863  1.0000
  H   H2867     1.0  0.32410  0.78387  0.45822  1.0000
  C   C3582     1.0  0.44627  0.65654  0.35272  1.0000
  H   H2868     1.0  0.41070  0.87299  0.31463  1.0000
  C   C3583     1.0  0.25793  0.62106  0.32529  1.0000
  H   H2869     1.0  0.24588  0.64730  0.35692  1.0000
  Fe  Fe240     1.0  0.45312  0.77445  0.34612  1.0000
  C   C3584     1.0  0.35458  0.71141  0.33845  1.0000
  H   H2870     1.0  0.38921  0.76318  0.42988  1.0000
  H   H2871     1.0  0.35706  0.68408  0.23412  1.0000
  C   C3585     1.0  0.45966  0.89612  0.25636  1.0000
  H   H2872     1.0  0.24623  0.75163  0.40102  1.0000
  S   S479      1.0  0.45255  0.72903  0.38134  1.0000
  C   C3586     1.0  0.26273  0.70465  0.45671  1.0000
  C   C3587     1.0  0.44333  0.65280  0.33693  1.0000
  H   H2873     1.0  0.43378  0.60816  0.35282  1.0000
  S   S480      1.0  0.45299  0.80197  0.32671  1.0000
  C   C3588     1.0  0.45142  0.65499  0.29721  1.0000
  H   H2874     1.0  0.42414  0.93755  0.23788  1.0000
  C   C3589     1.0  0.45766  0.60298  0.36417  1.0000
  S   S481      1.0  0.23556  0.70343  0.40849  1.0000
  H   H2875     1.0  0.23479  0.58399  0.42855  1.0000
  C   C3590     1.0  0.41709  0.86434  0.30478  1.0000
  C   C3591     1.0  0.26844  0.73700  0.46328  1.0000
  C   C3592     1.0  0.42671  0.83430  0.29754  1.0000
  H   H2876     1.0  0.31347  0.65797  0.44698  1.0000
  P   P122      1.0  0.46148  0.65289  0.31666  1.0000
  H   H2877     1.0  0.25290  0.58726  0.44979  1.0000
  H   H2878     1.0  0.33703  0.72252  0.43777  1.0000
  H   H2879     1.0  0.44540  0.71481  0.44810  1.0000
  S   S482      1.0  0.25904  0.68407  0.45346  1.0000
  H   H2880     1.0  0.46675  0.59324  0.25703  1.0000
  C   C3593     1.0  0.25743  0.74443  0.39216  1.0000
  C   C3594     1.0  0.46992  0.57240  0.34810  1.0000
  H   H2881     1.0  0.47617  0.57633  0.31153  1.0000
  C   C3595     1.0  0.24023  0.49813  0.46096  1.0000
  C   C3596     1.0  0.47914  0.63253  0.31998  1.0000
  C   C3597     1.0  0.45719  0.54853  0.23129  1.0000
  C   C3598     1.0  0.42684  0.71196  0.43273  1.0000
  C   C3599     1.0  0.47453  0.59151  0.36631  1.0000
  C   C3600     1.0  0.44006  0.56014  0.23104  1.0000
  C   C3601     1.0  0.41729  0.72590  0.45920  1.0000
  C   C3602     1.0  0.26860  0.73064  0.36563  1.0000
  H   H2882     1.0  0.43769  0.70565  0.42290  1.0000
  H   H2883     1.0  0.47109  0.85194  0.27255  1.0000
  C   C3603     1.0  0.43003  0.53833  0.22003  1.0000
  H   H2884     1.0  0.45404  0.87232  0.46346  1.0000
  C   C3604     1.0  0.24545  0.58270  0.46344  1.0000
  H   H2885     1.0  0.41303  0.56384  0.22573  1.0000
  H   H2886     1.0  0.47970  0.62367  0.29523  1.0000
  C   C3605     1.0  0.42981  0.49838  0.21658  1.0000
  C   C3606     1.0  0.47231  0.85154  0.22826  1.0000
  C   C3607     1.0  0.40572  0.85950  0.22698  1.0000
  C   C3608     1.0  0.47607  0.84879  0.25908  1.0000
  H   H2887     1.0  0.47186  0.90965  0.43694  1.0000
  H   H2888     1.0  0.41913  0.53455  0.21615  1.0000
  C   C3609     1.0  0.47950  0.89128  0.35932  1.0000
  H   H2889     1.0  0.24694  0.49520  0.22214  1.0000
  H   H2890     1.0  0.25983  0.53278  0.24710  1.0000
  H   H2891     1.0  0.24067  0.74439  0.37363  1.0000
  C   C3610     1.0  0.25220  0.51550  0.23348  1.0000
  C   C3611     1.0  0.25917  0.51898  0.24705  1.0000
  H   H2892     1.0  0.25545  0.55417  0.46306  1.0000
  P   P123      1.0  0.45168  0.50439  0.21445  1.0000
  H   H2893     1.0  0.48014  0.89479  0.38570  1.0000
  H   H2894     1.0  0.39545  0.85110  0.23071  1.0000
  H   H2895     1.0  0.23935  0.47831  0.32443  1.0000
  H   H2896     1.0  0.28982  0.68523  0.21713  1.0000
  H   H2897     1.0  0.48301  0.59458  0.37398  1.0000
  H   H2898     1.0  0.46465  0.85701  0.21746  1.0000
  H   H2899     1.0  0.48352  0.84765  0.36049  1.0000
  S   S483      1.0  0.24799  0.87987  0.59637  1.0000
  Fe  Fe241     1.0  0.24486  0.50196  0.57824  1.0000
  C   C3612     1.0  0.34478  0.70498  0.48731  1.0000
  C   C3613     1.0  0.39603  0.96378  0.57616  1.0000
  C   C3614     1.0  0.39636  0.93067  0.65572  1.0000
  H   H2900     1.0  0.23643  0.83426  0.64036  1.0000
  C   C3615     1.0  0.24790  0.82849  0.63064  1.0000
  H   H2901     1.0  0.28689  0.61846  0.71232  1.0000
  C   C3616     1.0  0.25731  0.55448  0.60738  1.0000
  Fe  Fe242     1.0  0.31644  0.61724  0.64781  1.0000
  S   S484      1.0  0.34686  0.61090  0.64696  1.0000
  S   S485      1.0  0.30865  0.62187  0.62070  1.0000
  Fe  Fe243     1.0  0.27025  0.77418  0.52715  1.0000
  S   S486      1.0  0.29888  0.76581  0.53259  1.0000
  C   C3617     1.0  0.43869  0.51511  0.66575  1.0000
  Fe  Fe244     1.0  0.28108  0.75924  0.49200  1.0000
  S   S487      1.0  0.31068  0.75059  0.49419  1.0000
  C   C3618     1.0  0.39567  0.94863  0.65673  1.0000
  Fe  Fe245     1.0  0.29988  0.73994  0.52383  1.0000
  Fe  Fe246     1.0  0.30737  0.77705  0.50276  1.0000
  S   S488      1.0  0.32784  0.79568  0.49119  1.0000
  S   S489      1.0  0.27867  0.78699  0.49774  1.0000
  S   S490      1.0  0.42844  0.58622  0.69181  1.0000
  H   H2902     1.0  0.47997  0.58195  0.62075  1.0000
  Fe  Fe247     1.0  0.43072  0.83452  0.50764  1.0000
  S   S491      1.0  0.42586  0.81483  0.53420  1.0000
  S   S492      1.0  0.42586  0.86467  0.50665  1.0000
  S   S493      1.0  0.44307  0.78205  0.51070  1.0000
  Fe  Fe248     1.0  0.41547  0.79981  0.51881  1.0000
  S   S494      1.0  0.39080  0.78728  0.53389  1.0000
  Fe  Fe249     1.0  0.45363  0.79899  0.52393  1.0000
  C   C3619     1.0  0.37821  0.89580  0.57465  1.0000
  S   S495      1.0  0.45917  0.81980  0.49825  1.0000
  C   C3620     1.0  0.34282  0.93955  0.58610  1.0000
  C   C3621     1.0  0.28032  0.94493  0.60545  1.0000
  H   H2903     1.0  0.41747  0.66989  0.51279  1.0000
  C   C3622     1.0  0.24687  0.56411  0.47091  1.0000
  H   H2904     1.0  0.32597  0.48979  0.57382  1.0000
  H   H2905     1.0  0.26859  0.88959  0.62478  1.0000
  C   C3623     1.0  0.31296  0.68343  0.56443  1.0000
  S   S496      1.0  0.23604  0.53239  0.57037  1.0000
  S   S497      1.0  0.26831  0.92030  0.59376  1.0000
  C   C3624     1.0  0.46058  0.88074  0.46806  1.0000
  S   S498      1.0  0.27946  0.67429  0.61459  1.0000
  C   C3625     1.0  0.44722  0.50270  0.67918  1.0000
  H   H2906     1.0  0.45660  0.76094  0.54916  1.0000
  H   H2907     1.0  0.30370  0.89686  0.68396  1.0000
  H   H2908     1.0  0.46911  0.89382  0.60445  1.0000
  H   H2909     1.0  0.38551  0.92370  0.66390  1.0000
  H   H2910     1.0  0.46940  0.56621  0.67915  1.0000
  C   C3626     1.0  0.36740  0.84550  0.50728  1.0000
  C   C3627     1.0  0.26984  0.57357  0.62011  1.0000
  H   H2911     1.0  0.48252  0.85469  0.50328  1.0000
  H   H2912     1.0  0.28444  0.94626  0.64737  1.0000
  C   C3628     1.0  0.24898  0.52241  0.52571  1.0000
  S   S499      1.0  0.29744  0.59800  0.66239  1.0000
  C   C3629     1.0  0.47318  0.87959  0.63129  1.0000
  C   C3630     1.0  0.34471  0.79409  0.50359  1.0000
  C   C3631     1.0  0.34359  0.78433  0.52158  1.0000
  C   C3632     1.0  0.35762  0.78265  0.53090  1.0000
  C   C3633     1.0  0.37299  0.79047  0.52217  1.0000
  C   C3634     1.0  0.37403  0.80039  0.50425  1.0000
  C   C3635     1.0  0.35980  0.80241  0.49507  1.0000
  H   H2913     1.0  0.38587  0.80633  0.49736  1.0000
  H   H2914     1.0  0.31159  0.84901  0.61795  1.0000
  C   C3636     1.0  0.35474  0.60756  0.66714  1.0000
  C   C3637     1.0  0.37366  0.60450  0.66622  1.0000
  C   C3638     1.0  0.38048  0.60248  0.68195  1.0000
  C   C3639     1.0  0.36844  0.60335  0.69873  1.0000
  H   H2915     1.0  0.43485  0.95572  0.62552  1.0000
  C   C3640     1.0  0.34261  0.60814  0.68393  1.0000
  H   H2916     1.0  0.38306  0.60392  0.65324  1.0000
  H   H2917     1.0  0.39505  0.60040  0.68097  1.0000
  H   H2918     1.0  0.32797  0.61031  0.68471  1.0000
  H   H2919     1.0  0.29013  0.87197  0.60038  1.0000
  C   C3641     1.0  0.43511  0.53377  0.66565  1.0000
  H   H2920     1.0  0.42850  0.54342  0.65530  1.0000
  H   H2921     1.0  0.43723  0.55443  0.67856  1.0000
  C   C3642     1.0  0.35563  0.93106  0.53913  1.0000
  C   C3643     1.0  0.37391  0.93119  0.53910  1.0000
  C   C3644     1.0  0.43723  0.88701  0.52225  1.0000
  C   C3645     1.0  0.43829  0.86907  0.52084  1.0000
  H   H2922     1.0  0.43461  0.49766  0.53579  1.0000
  C   C3646     1.0  0.45210  0.50903  0.69250  1.0000
  S   S500      1.0  0.26594  0.62800  0.64262  1.0000
  H   H2923     1.0  0.42911  0.89816  0.51431  1.0000
  C   C3647     1.0  0.36647  0.90524  0.52398  1.0000
  C   C3648     1.0  0.24995  0.84746  0.54747  1.0000
  C   C3649     1.0  0.26048  0.83924  0.53294  1.0000
  C   C3650     1.0  0.25976  0.82140  0.53248  1.0000
  H   H2924     1.0  0.48321  0.93535  0.71248  1.0000
  C   C3651     1.0  0.38028  0.55396  0.69276  1.0000
  C   C3652     1.0  0.27058  0.70417  0.47145  1.0000
  H   H2925     1.0  0.26950  0.84657  0.52210  1.0000
  H   H2926     1.0  0.26832  0.81508  0.52143  1.0000
  Fe  Fe250     1.0  0.44608  0.80443  0.48575  1.0000
  S   S501      1.0  0.25275  0.86926  0.54811  1.0000
  C   C3653     1.0  0.39826  0.95224  0.59289  1.0000
  C   C3654     1.0  0.45838  0.85832  0.54277  1.0000
  C   C3655     1.0  0.42473  0.93092  0.63326  1.0000
  C   C3656     1.0  0.24807  0.81181  0.54631  1.0000
  C   C3657     1.0  0.32875  0.70347  0.48287  1.0000
  H   H2927     1.0  0.37988  0.81487  0.55580  1.0000
  C   C3658     1.0  0.48236  0.73660  0.58076  1.0000
  C   C3659     1.0  0.23788  0.83808  0.56113  1.0000
  Fe  Fe251     1.0  0.44252  0.56468  0.71197  1.0000
  C   C3660     1.0  0.26506  0.94026  0.60224  1.0000
  C   C3661     1.0  0.24783  0.95167  0.60550  1.0000
  H   H2928     1.0  0.46223  0.51016  0.61364  1.0000
  C   C3662     1.0  0.24177  0.49179  0.47922  1.0000
  H   H2929     1.0  0.41143  0.90791  0.64320  1.0000
  H   H2930     1.0  0.27263  0.49316  0.60304  1.0000
  H   H2931     1.0  0.36837  0.84352  0.49365  1.0000
  H   H2932     1.0  0.34789  0.75444  0.48962  1.0000
  H   H2933     1.0  0.38856  0.73696  0.46633  1.0000
  C   C3663     1.0  0.31793  0.79705  0.59414  1.0000
  C   C3664     1.0  0.37979  0.85420  0.51056  1.0000
  H   H2934     1.0  0.23613  0.92259  0.65914  1.0000
  H   H2935     1.0  0.42071  0.73034  0.46992  1.0000
  S   S502      1.0  0.24752  0.78908  0.54644  1.0000
  C   C3665     1.0  0.24787  0.83380  0.61199  1.0000
  H   H2936     1.0  0.44523  0.90441  0.53536  1.0000
  H   H2937     1.0  0.36044  0.66617  0.52781  1.0000
  C   C3666     1.0  0.35953  0.75144  0.49612  1.0000
  H   H2938     1.0  0.48153  0.78246  0.59943  1.0000
  C   C3667     1.0  0.23940  0.96975  0.66536  1.0000
  H   H2939     1.0  0.35027  0.95059  0.58153  1.0000
  H   H2940     1.0  0.30110  0.88547  0.56810  1.0000
  Fe  Fe252     1.0  0.27694  0.62342  0.66820  1.0000
  H   H2941     1.0  0.34275  0.80589  0.62063  1.0000
  S   S503      1.0  0.43238  0.50788  0.64880  1.0000
  H   H2942     1.0  0.31167  0.81451  0.61373  1.0000
  C   C3668     1.0  0.26253  0.82636  0.59937  1.0000
  H   H2943     1.0  0.36077  0.80991  0.48113  1.0000
  C   C3669     1.0  0.44653  0.89059  0.53406  1.0000
  H   H2944     1.0  0.38423  0.95525  0.66577  1.0000
  H   H2945     1.0  0.47976  0.72034  0.69075  1.0000
  C   C3670     1.0  0.25220  0.57961  0.62972  1.0000
  H   H2946     1.0  0.30908  0.81271  0.52176  1.0000
  C   C3671     1.0  0.28141  0.70171  0.58451  1.0000
  H   H2947     1.0  0.44993  0.48826  0.67940  1.0000
  C   C3672     1.0  0.26229  0.91250  0.70014  1.0000
  H   H2948     1.0  0.42500  0.78975  0.46522  1.0000
  C   C3673     1.0  0.33128  0.56275  0.68946  1.0000
  H   H2949     1.0  0.38771  0.50794  0.69662  1.0000
  C   C3674     1.0  0.37088  0.47425  0.61648  1.0000
  C   C3675     1.0  0.47374  0.65116  0.65849  1.0000
  C   C3676     1.0  0.33200  0.78550  0.58446  1.0000
  H   H2950     1.0  0.26196  0.83035  0.58502  1.0000
  C   C3677     1.0  0.28923  0.71044  0.56706  1.0000
  S   S504      1.0  0.44639  0.92245  0.58351  1.0000
  C   C3678     1.0  0.35468  0.48472  0.61106  1.0000
  H   H2951     1.0  0.37198  0.56661  0.68703  1.0000
  H   H2952     1.0  0.45070  0.92020  0.48359  1.0000
  Fe  Fe253     1.0  0.28814  0.60412  0.63569  1.0000
  C   C3679     1.0  0.32824  0.96337  0.67779  1.0000
  H   H2953     1.0  0.48294  0.94255  0.50402  1.0000
  C   C3680     1.0  0.27695  0.80765  0.62416  1.0000
  H   H2954     1.0  0.31083  0.66067  0.58723  1.0000
  S   S505      1.0  0.29687  0.64209  0.65580  1.0000
  H   H2955     1.0  0.34637  0.70084  0.50140  1.0000
  H   H2956     1.0  0.37027  0.71405  0.47774  1.0000
  C   C3681     1.0  0.47580  0.56291  0.66588  1.0000
  C   C3682     1.0  0.34976  0.78125  0.58791  1.0000
  C   C3683     1.0  0.28274  0.95332  0.54903  1.0000
  C   C3684     1.0  0.36654  0.51217  0.60679  1.0000
  C   C3685     1.0  0.38230  0.50167  0.61294  1.0000
  H   H2957     1.0  0.40153  0.74150  0.51880  1.0000
  C   C3686     1.0  0.32009  0.95084  0.69196  1.0000
  C   C3687     1.0  0.41092  0.92179  0.64405  1.0000
  C   C3688     1.0  0.35293  0.50371  0.60550  1.0000
  H   H2958     1.0  0.43604  0.92414  0.62415  1.0000
  H   H2959     1.0  0.47977  0.86211  0.65623  1.0000
  C   C3689     1.0  0.26858  0.88715  0.63921  1.0000
  C   C3690     1.0  0.40662  0.87540  0.56523  1.0000
  C   C3691     1.0  0.33482  0.84943  0.59534  1.0000
  H   H2960     1.0  0.40041  0.76392  0.49008  1.0000
  H   H2961     1.0  0.40973  0.78635  0.59783  1.0000
  C   C3692     1.0  0.46670  0.75772  0.55763  1.0000
  C   C3693     1.0  0.31646  0.85480  0.60375  1.0000
  C   C3694     1.0  0.40963  0.95783  0.64610  1.0000
  S   S506      1.0  0.25585  0.62687  0.69424  1.0000
  C   C3695     1.0  0.46908  0.63733  0.67335  1.0000
  C   C3696     1.0  0.46917  0.74085  0.56984  1.0000
  C   C3697     1.0  0.42404  0.94889  0.63416  1.0000
  C   C3698     1.0  0.31016  0.50046  0.62429  1.0000
  C   C3699     1.0  0.29240  0.51101  0.62733  1.0000
  C   C3700     1.0  0.27884  0.50835  0.61970  1.0000
  C   C3701     1.0  0.28305  0.49515  0.60906  1.0000
  H   H2962     1.0  0.39737  0.48155  0.65528  1.0000
  H   H2963     1.0  0.36485  0.52688  0.60305  1.0000
  H   H2964     1.0  0.39278  0.50818  0.61417  1.0000
  C   C3702     1.0  0.36842  0.48136  0.66253  1.0000
  H   H2965     1.0  0.39272  0.65391  0.51408  1.0000
  H   H2966     1.0  0.34102  0.51202  0.60027  1.0000
  C   C3703     1.0  0.26300  0.49441  0.51461  1.0000
  H   H2967     1.0  0.26206  0.81084  0.65124  1.0000
  C   C3704     1.0  0.28827  0.78124  0.59108  1.0000
  H   H2968     1.0  0.33351  0.87621  0.55306  1.0000
  H   H2969     1.0  0.24276  0.88153  0.51294  1.0000
  C   C3705     1.0  0.34117  0.85700  0.57697  1.0000
  H   H2970     1.0  0.27030  0.91465  0.63817  1.0000
  C   C3706     1.0  0.37405  0.76055  0.48810  1.0000
  C   C3707     1.0  0.31459  0.48752  0.61313  1.0000
  C   C3708     1.0  0.27854  0.96106  0.61145  1.0000
  H   H2971     1.0  0.33497  0.51547  0.67751  1.0000
  H   H2972     1.0  0.28908  0.52133  0.63553  1.0000
  H   H2973     1.0  0.26505  0.51646  0.62211  1.0000
  C   C3709     1.0  0.35085  0.49104  0.66867  1.0000
  H   H2974     1.0  0.40241  0.91885  0.53126  1.0000
  C   C3710     1.0  0.38463  0.90573  0.52362  1.0000
  C   C3711     1.0  0.30496  0.67461  0.58183  1.0000
  H   H2975     1.0  0.35672  0.77500  0.54476  1.0000
  C   C3712     1.0  0.34245  0.47262  0.55541  1.0000
  H   H2976     1.0  0.28760  0.79688  0.62917  1.0000
  C   C3713     1.0  0.44846  0.52773  0.69243  1.0000
  S   S507      1.0  0.27025  0.74701  0.52123  1.0000
  H   H2977     1.0  0.44854  0.52508  0.57810  1.0000
  H   H2978     1.0  0.30661  0.84592  0.51763  1.0000
  C   C3714     1.0  0.25885  0.48302  0.48374  1.0000
  H   H2979     1.0  0.47145  0.52242  0.63565  1.0000
  H   H2980     1.0  0.34838  0.73201  0.51872  1.0000
  C   C3715     1.0  0.33992  0.54426  0.69171  1.0000
  C   C3716     1.0  0.30453  0.83762  0.53126  1.0000
  P   P124      1.0  0.36177  0.53712  0.67734  1.0000
  C   C3717     1.0  0.37864  0.53731  0.68985  1.0000
  C   C3718     1.0  0.36414  0.51529  0.67165  1.0000
  C   C3719     1.0  0.34868  0.50802  0.67310  1.0000
  C   C3720     1.0  0.26938  0.90139  0.64689  1.0000
  C   C3721     1.0  0.28043  0.49760  0.51377  1.0000
  H   H2981     1.0  0.38906  0.86247  0.53050  1.0000
  S   S508      1.0  0.27287  0.48793  0.56532  1.0000
  H   H2982     1.0  0.24283  0.47272  0.54577  1.0000
  C   C3722     1.0  0.47237  0.50928  0.56360  1.0000
  C   C3723     1.0  0.39243  0.55436  0.70336  1.0000
  S   S509      1.0  0.45977  0.93319  0.53871  1.0000
  H   H2983     1.0  0.36362  0.89505  0.51829  1.0000
  C   C3724     1.0  0.36396  0.55280  0.65566  1.0000
  C   C3725     1.0  0.38044  0.55890  0.64748  1.0000
  C   C3726     1.0  0.38185  0.57120  0.63070  1.0000
  C   C3727     1.0  0.36691  0.57728  0.62194  1.0000
  C   C3728     1.0  0.35062  0.57090  0.62982  1.0000
  C   C3729     1.0  0.34918  0.55859  0.64655  1.0000
  Fe  Fe254     1.0  0.28735  0.64522  0.62976  1.0000
  Fe  Fe255     1.0  0.44194  0.94705  0.56121  1.0000
  H   H2984     1.0  0.36415  0.64315  0.70368  1.0000
  H   H2985     1.0  0.23677  0.53203  0.53030  1.0000
  C   C3730     1.0  0.30590  0.81888  0.53359  1.0000
  C   C3731     1.0  0.36825  0.88390  0.57245  1.0000
  C   C3732     1.0  0.32427  0.91169  0.66710  1.0000
  C   C3733     1.0  0.39676  0.86350  0.56294  1.0000
  H   H2986     1.0  0.36244  0.96640  0.52193  1.0000
  C   C3734     1.0  0.30625  0.90891  0.67372  1.0000
  C   C3735     1.0  0.26240  0.81536  0.63673  1.0000
  C   C3736     1.0  0.46431  0.97073  0.64809  1.0000
  H   H2987     1.0  0.32032  0.50243  0.63070  1.0000
  H   H2988     1.0  0.39215  0.55430  0.65405  1.0000
  H   H2989     1.0  0.39440  0.57628  0.62469  1.0000
  H   H2990     1.0  0.36776  0.58726  0.60927  1.0000
  H   H2991     1.0  0.33889  0.57589  0.62323  1.0000
  H   H2992     1.0  0.33638  0.55394  0.65254  1.0000
  C   C3737     1.0  0.31421  0.65393  0.69201  1.0000
  H   H2993     1.0  0.23596  0.94820  0.60310  1.0000
  H   H2994     1.0  0.45850  0.49941  0.70301  1.0000
  C   C3738     1.0  0.32964  0.68490  0.68355  1.0000
  C   C3739     1.0  0.33523  0.67262  0.67164  1.0000
  C   C3740     1.0  0.32781  0.65681  0.67630  1.0000
  P   P125      1.0  0.35287  0.67630  0.65137  1.0000
  C   C3741     1.0  0.35150  0.66353  0.63542  1.0000
  C   C3742     1.0  0.34940  0.69929  0.63822  1.0000
  C   C3743     1.0  0.36296  0.70439  0.62300  1.0000
  C   C3744     1.0  0.35972  0.72138  0.61132  1.0000
  C   C3745     1.0  0.34287  0.73336  0.61469  1.0000
  C   C3746     1.0  0.32928  0.72834  0.62971  1.0000
  C   C3747     1.0  0.33238  0.71128  0.64127  1.0000
  C   C3748     1.0  0.36724  0.65303  0.62645  1.0000
  C   C3749     1.0  0.36585  0.64424  0.61324  1.0000
  C   C3750     1.0  0.34882  0.64601  0.60884  1.0000
  C   C3751     1.0  0.33320  0.65663  0.61759  1.0000
  C   C3752     1.0  0.33453  0.66543  0.63073  1.0000
  C   C3753     1.0  0.37460  0.66917  0.65861  1.0000
  C   C3754     1.0  0.38054  0.65077  0.66614  1.0000
  C   C3755     1.0  0.39722  0.64498  0.67207  1.0000
  C   C3756     1.0  0.40806  0.65753  0.67059  1.0000
  C   C3757     1.0  0.40208  0.67596  0.66341  1.0000
  C   C3758     1.0  0.38533  0.68182  0.65757  1.0000
  H   H2995     1.0  0.32139  0.93710  0.69026  1.0000
  H   H2996     1.0  0.46648  0.84713  0.55073  1.0000
  Fe  Fe256     1.0  0.24387  0.91039  0.59102  1.0000
  H   H2997     1.0  0.33575  0.69676  0.68064  1.0000
  H   H2998     1.0  0.33238  0.64670  0.66779  1.0000
  H   H2999     1.0  0.37583  0.69498  0.61987  1.0000
  H   H3000     1.0  0.37011  0.72507  0.59942  1.0000
  H   H3001     1.0  0.34020  0.74633  0.60544  1.0000
  H   H3002     1.0  0.31613  0.73748  0.63221  1.0000
  H   H3003     1.0  0.32125  0.70731  0.65215  1.0000
  H   H3004     1.0  0.38053  0.65150  0.62964  1.0000
  H   H3005     1.0  0.37785  0.63564  0.60677  1.0000
  H   H3006     1.0  0.34758  0.63880  0.59901  1.0000
  H   H3007     1.0  0.31992  0.65786  0.61448  1.0000
  H   H3008     1.0  0.32220  0.67362  0.63730  1.0000
  H   H3009     1.0  0.37220  0.64092  0.66744  1.0000
  H   H3010     1.0  0.40183  0.63073  0.67781  1.0000
  H   H3011     1.0  0.42111  0.65294  0.67500  1.0000
  H   H3012     1.0  0.41051  0.68565  0.66236  1.0000
  H   H3013     1.0  0.38083  0.69617  0.65235  1.0000
  S   S510      1.0  0.46809  0.88013  0.56012  1.0000
  H   H3014     1.0  0.26754  0.53692  0.53001  1.0000
  Fe  Fe257     1.0  0.46590  0.90947  0.56130  1.0000
  C   C3759     1.0  0.26633  0.52525  0.52538  1.0000
  C   C3760     1.0  0.25171  0.93726  0.66822  1.0000
  C   C3761     1.0  0.42786  0.48405  0.56386  1.0000
  P   P126      1.0  0.26851  0.91754  0.67550  1.0000
  C   C3762     1.0  0.29159  0.92160  0.66717  1.0000
  P   P127      1.0  0.26056  0.47488  0.50739  1.0000
  H   H3015     1.0  0.25013  0.58929  0.63834  1.0000
  H   H3016     1.0  0.35344  0.88743  0.57544  1.0000
  C   C3763     1.0  0.27738  0.81346  0.60532  1.0000
  S   S511      1.0  0.47723  0.93130  0.61272  1.0000
  C   C3764     1.0  0.23683  0.55834  0.48831  1.0000
  C   C3765     1.0  0.29531  0.93665  0.65330  1.0000
  C   C3766     1.0  0.31331  0.93939  0.64672  1.0000
  C   C3767     1.0  0.32777  0.92704  0.65372  1.0000
  C   C3768     1.0  0.25229  0.95435  0.67094  1.0000
  S   S512      1.0  0.45506  0.62343  0.67140  1.0000
  C   C3769     1.0  0.26832  0.89870  0.66576  1.0000
  C   C3770     1.0  0.26744  0.88129  0.67666  1.0000
  C   C3771     1.0  0.26673  0.86705  0.66889  1.0000
  C   C3772     1.0  0.26711  0.87002  0.65021  1.0000
  C   C3773     1.0  0.28316  0.95519  0.53048  1.0000
  H   H3017     1.0  0.29044  0.96454  0.61375  1.0000
  H   H3018     1.0  0.39584  0.89589  0.51773  1.0000
  C   C3774     1.0  0.38915  0.75683  0.49634  1.0000
  P   P128      1.0  0.36498  0.85091  0.56592  1.0000
  C   C3775     1.0  0.48172  0.57173  0.63300  1.0000
  H   H3019     1.0  0.26298  0.95588  0.67696  1.0000
  C   C3776     1.0  0.30435  0.86774  0.59390  1.0000
  H   H3020     1.0  0.36238  0.69268  0.57436  1.0000
  C   C3777     1.0  0.31056  0.87536  0.57565  1.0000
  H   H3021     1.0  0.34303  0.83516  0.55044  1.0000
  H   H3022     1.0  0.33891  0.48539  0.67001  1.0000
  C   C3778     1.0  0.29990  0.95475  0.51796  1.0000
  H   H3023     1.0  0.31604  0.95111  0.63607  1.0000
  H   H3024     1.0  0.34168  0.92935  0.64863  1.0000
  C   C3779     1.0  0.37746  0.86755  0.56674  1.0000
  H   H3025     1.0  0.37706  0.94073  0.54545  1.0000
  H   H3026     1.0  0.26670  0.87873  0.69123  1.0000
  H   H3027     1.0  0.26507  0.85393  0.67756  1.0000
  H   H3028     1.0  0.26577  0.85920  0.64436  1.0000
  H   H3029     1.0  0.30829  0.64189  0.69528  1.0000
  C   C3780     1.0  0.38377  0.48888  0.66035  1.0000
  C   C3781     1.0  0.28618  0.75041  0.60774  1.0000
  H   H3030     1.0  0.42147  0.87199  0.56263  1.0000
  C   C3782     1.0  0.31034  0.95603  0.70837  1.0000
  H   H3031     1.0  0.33202  0.77794  0.52824  1.0000
  H   H3032     1.0  0.23626  0.84351  0.60736  1.0000
  H   H3033     1.0  0.41114  0.94300  0.59418  1.0000
  H   H3034     1.0  0.39040  0.85903  0.49948  1.0000
  H   H3035     1.0  0.26979  0.95364  0.55882  1.0000
  C   C3783     1.0  0.44002  0.54005  0.67889  1.0000
  C   C3784     1.0  0.38455  0.48271  0.61749  1.0000
  C   C3785     1.0  0.29304  0.76625  0.60485  1.0000
  H   H3036     1.0  0.34487  0.83157  0.51920  1.0000
  C   C3786     1.0  0.28206  0.51292  0.51929  1.0000
  H   H3037     1.0  0.32515  0.67629  0.55664  1.0000
  H   H3038     1.0  0.44999  0.84085  0.53005  1.0000
  C   C3787     1.0  0.45706  0.87623  0.54445  1.0000
  C   C3788     1.0  0.35349  0.78827  0.60126  1.0000
  C   C3789     1.0  0.25981  0.63492  0.71209  1.0000
  C   C3790     1.0  0.47633  0.64082  0.61432  1.0000
  Fe  Fe258     1.0  0.47028  0.93339  0.58539  1.0000
  P   P129      1.0  0.33703  0.94630  0.55057  1.0000
  C   C3791     1.0  0.33459  0.93482  0.57417  1.0000
  C   C3792     1.0  0.31597  0.94969  0.54269  1.0000
  C   C3793     1.0  0.29904  0.95081  0.55508  1.0000
  S   S513      1.0  0.45466  0.53539  0.70928  1.0000
  C   C3794     1.0  0.47650  0.88194  0.61232  1.0000
  H   H3039     1.0  0.36850  0.67380  0.70404  1.0000
  H   H3040     1.0  0.27427  0.69131  0.48051  1.0000
  C   C3795     1.0  0.32576  0.91988  0.58032  1.0000
  C   C3796     1.0  0.32473  0.91016  0.59831  1.0000
  C   C3797     1.0  0.33269  0.91515  0.61022  1.0000
  C   C3798     1.0  0.34181  0.92977  0.60408  1.0000
  H   H3041     1.0  0.23695  0.90482  0.70054  1.0000
  H   H3042     1.0  0.25936  0.54498  0.59858  1.0000
  C   C3799     1.0  0.43633  0.48483  0.54548  1.0000
  P   P130      1.0  0.33734  0.47360  0.60931  1.0000
  S   S514      1.0  0.46435  0.95912  0.56471  1.0000
  H   H3043     1.0  0.46237  0.63859  0.61835  1.0000
  C   C3800     1.0  0.35200  0.91775  0.53183  1.0000
  P   P131      1.0  0.29525  0.80233  0.58918  1.0000
  C   C3801     1.0  0.24599  0.96775  0.61176  1.0000
  H   H3044     1.0  0.40039  0.78782  0.56892  1.0000
  H   H3045     1.0  0.29834  0.94970  0.56944  1.0000
  C   C3802     1.0  0.44589  0.96926  0.65176  1.0000
  H   H3046     1.0  0.31804  0.69815  0.49350  1.0000
  C   C3803     1.0  0.23736  0.93564  0.66086  1.0000
  H   H3047     1.0  0.30836  0.58270  0.69952  1.0000
  H   H3048     1.0  0.31951  0.91581  0.57127  1.0000
  H   H3049     1.0  0.31744  0.89898  0.60309  1.0000
  H   H3050     1.0  0.33172  0.90774  0.62421  1.0000
  S   S515      1.0  0.43413  0.47116  0.62400  1.0000
  C   C3804     1.0  0.24733  0.50715  0.52019  1.0000
  H   H3051     1.0  0.46100  0.73102  0.57073  1.0000
  H   H3052     1.0  0.46866  0.66905  0.60144  1.0000
  H   H3053     1.0  0.33597  0.48040  0.54413  1.0000
  C   C3805     1.0  0.38162  0.50589  0.66461  1.0000
  H   H3054     1.0  0.33802  0.91682  0.53243  1.0000
  C   C3806     1.0  0.31595  0.68201  0.69923  1.0000
  H   H3055     1.0  0.26081  0.76331  0.57481  1.0000
  C   C3807     1.0  0.27642  0.78018  0.58040  1.0000
  S   S516      1.0  0.41775  0.82115  0.49286  1.0000
  C   C3808     1.0  0.39739  0.89155  0.57105  1.0000
  C   C3809     1.0  0.35314  0.84087  0.53937  1.0000
  H   H3056     1.0  0.46334  0.88979  0.63802  1.0000
  H   H3057     1.0  0.32927  0.77990  0.57411  1.0000
  H   H3058     1.0  0.44183  0.95696  0.66042  1.0000
  C   C3810     1.0  0.38375  0.95270  0.60810  1.0000
  H   H3059     1.0  0.31139  0.69166  0.70823  1.0000
  H   H3060     1.0  0.47281  0.62362  0.70051  1.0000
  C   C3811     1.0  0.33665  0.47780  0.57236  1.0000
  C   C3812     1.0  0.38187  0.82840  0.59387  1.0000
  H   H3061     1.0  0.28550  0.92066  0.70481  1.0000
  H   H3062     1.0  0.29275  0.48825  0.50902  1.0000
  H   H3063     1.0  0.26930  0.73712  0.59904  1.0000
  C   C3813     1.0  0.39349  0.81280  0.60137  1.0000
  H   H3064     1.0  0.46784  0.65382  0.64656  1.0000
  C   C3814     1.0  0.27315  0.91529  0.71096  1.0000
  S   S517      1.0  0.41409  0.96366  0.55691  1.0000
  C   C3815     1.0  0.40020  0.79818  0.59239  1.0000
  S   S518      1.0  0.31571  0.71242  0.53551  1.0000
  H   H3065     1.0  0.27920  0.71973  0.48631  1.0000
  H   H3066     1.0  0.40426  0.85099  0.55848  1.0000
  C   C3816     1.0  0.37899  0.85614  0.52826  1.0000
  C   C3817     1.0  0.36559  0.84958  0.54278  1.0000
  C   C3818     1.0  0.26991  0.76416  0.58310  1.0000
  H   H3067     1.0  0.33712  0.57288  0.67861  1.0000
  C   C3819     1.0  0.27337  0.72026  0.47478  1.0000
  H   H3068     1.0  0.33551  0.90196  0.67234  1.0000
  H   H3069     1.0  0.38551  0.94370  0.62097  1.0000
  C   C3820     1.0  0.39494  0.79897  0.57614  1.0000
  C   C3821     1.0  0.46246  0.52482  0.57031  1.0000
  C   C3822     1.0  0.37671  0.82941  0.57738  1.0000
  C   C3823     1.0  0.23974  0.56023  0.61730  1.0000
  H   H3070     1.0  0.46622  0.49741  0.56636  1.0000
  C   C3824     1.0  0.29994  0.84568  0.54648  1.0000
  C   C3825     1.0  0.27470  0.74934  0.59679  1.0000
  S   S519      1.0  0.28926  0.58087  0.62202  1.0000
  C   C3826     1.0  0.29762  0.81620  0.56648  1.0000
  H   H3071     1.0  0.34398  0.83949  0.60320  1.0000
  C   C3827     1.0  0.29671  0.83499  0.56404  1.0000
  C   C3828     1.0  0.33969  0.80017  0.61058  1.0000
  H   H3072     1.0  0.29834  0.86029  0.54467  1.0000
  C   C3829     1.0  0.28930  0.68387  0.59206  1.0000
  H   H3073     1.0  0.47885  0.81162  0.57683  1.0000
  S   S520      1.0  0.34937  0.96537  0.62622  1.0000
  H   H3074     1.0  0.32912  0.95193  0.51417  1.0000
  H   H3075     1.0  0.28590  0.55629  0.60141  1.0000
  H   H3076     1.0  0.27190  0.79179  0.57022  1.0000
  H   H3077     1.0  0.33955  0.51763  0.70921  1.0000
  H   H3078     1.0  0.34817  0.93356  0.61320  1.0000
  C   C3830     1.0  0.38834  0.91871  0.53117  1.0000
  H   H3079     1.0  0.37110  0.90835  0.57913  1.0000
  C   C3831     1.0  0.35409  0.83883  0.52168  1.0000
  H   H3080     1.0  0.26905  0.70874  0.59219  1.0000
  H   H3081     1.0  0.28302  0.72422  0.56141  1.0000
  C   C3832     1.0  0.36712  0.96503  0.60682  1.0000
  C   C3833     1.0  0.30814  0.66659  0.70338  1.0000
  C   C3834     1.0  0.30271  0.80814  0.55111  1.0000
  C   C3835     1.0  0.31626  0.95212  0.52402  1.0000
  C   C3836     1.0  0.35831  0.71252  0.47379  1.0000
  H   H3082     1.0  0.29326  0.84147  0.57567  1.0000
  H   H3083     1.0  0.30162  0.76700  0.61367  1.0000
  H   H3084     1.0  0.40513  0.90079  0.57270  1.0000
  H   H3085     1.0  0.36065  0.77257  0.58017  1.0000
  H   H3086     1.0  0.37759  0.83998  0.60049  1.0000
  C   C3837     1.0  0.38317  0.81445  0.56871  1.0000
  H   H3087     1.0  0.39364  0.51167  0.66256  1.0000
  C   C3838     1.0  0.32201  0.80482  0.60682  1.0000
  H   H3088     1.0  0.28952  0.73895  0.61856  1.0000
  H   H3089     1.0  0.39784  0.81230  0.61380  1.0000
  H   H3090     1.0  0.29360  0.93611  0.60321  1.0000
  C   C3839     1.0  0.44898  0.85475  0.53106  1.0000
  C   C3840     1.0  0.47645  0.63421  0.68893  1.0000
  H   H3091     1.0  0.27049  0.95699  0.52586  1.0000
  C   C3841     1.0  0.32889  0.87005  0.56720  1.0000
  C   C3842     1.0  0.27231  0.56098  0.60895  1.0000
  Fe  Fe259     1.0  0.44428  0.60449  0.69690  1.0000
  C   C3843     1.0  0.30514  0.70139  0.55704  1.0000
  H   H3092     1.0  0.30417  0.79361  0.55256  1.0000
  C   C3844     1.0  0.37136  0.67286  0.52759  1.0000
  C   C3845     1.0  0.38951  0.66601  0.51982  1.0000
  C   C3846     1.0  0.40345  0.67498  0.51916  1.0000
  C   C3847     1.0  0.39926  0.69072  0.52640  1.0000
  C   C3848     1.0  0.38113  0.69738  0.53468  1.0000
  C   C3849     1.0  0.36714  0.68858  0.53482  1.0000
  P   P132      1.0  0.37548  0.71868  0.54223  1.0000
  C   C3850     1.0  0.35416  0.71978  0.55878  1.0000
  C   C3851     1.0  0.39200  0.72068  0.55422  1.0000
  C   C3852     1.0  0.40285  0.70512  0.56295  1.0000
  C   C3853     1.0  0.41563  0.70692  0.57217  1.0000
  C   C3854     1.0  0.41751  0.72423  0.57288  1.0000
  C   C3855     1.0  0.40635  0.73974  0.56468  1.0000
  C   C3856     1.0  0.39344  0.73797  0.55565  1.0000
  C   C3857     1.0  0.34011  0.73536  0.55770  1.0000
  C   C3858     1.0  0.32349  0.73559  0.57042  1.0000
  C   C3859     1.0  0.32095  0.72037  0.58434  1.0000
  C   C3860     1.0  0.33509  0.70508  0.58584  1.0000
  C   C3861     1.0  0.35169  0.70481  0.57320  1.0000
  C   C3862     1.0  0.37460  0.73568  0.52146  1.0000
  C   C3863     1.0  0.35978  0.73898  0.51272  1.0000
  C   C3864     1.0  0.38953  0.74431  0.51286  1.0000
  H   H3093     1.0  0.24221  0.61977  0.49161  1.0000
  H   H3094     1.0  0.36714  0.78466  0.60420  1.0000
  H   H3095     1.0  0.41009  0.69785  0.52532  1.0000
  H   H3096     1.0  0.35290  0.69398  0.54023  1.0000
  H   H3097     1.0  0.40152  0.69162  0.56261  1.0000
  H   H3098     1.0  0.42425  0.69491  0.57860  1.0000
  H   H3099     1.0  0.42768  0.72563  0.57969  1.0000
  H   H3100     1.0  0.40790  0.75320  0.56499  1.0000
  H   H3101     1.0  0.38487  0.75013  0.54943  1.0000
  H   H3102     1.0  0.34172  0.74711  0.54682  1.0000
  H   H3103     1.0  0.31231  0.74725  0.56904  1.0000
  H   H3104     1.0  0.30781  0.72006  0.59361  1.0000
  H   H3105     1.0  0.33288  0.69320  0.59642  1.0000
  C   C3865     1.0  0.47393  0.57618  0.65010  1.0000
  C   C3866     1.0  0.23691  0.82030  0.56050  1.0000
  C   C3867     1.0  0.38907  0.52104  0.69803  1.0000
  C   C3868     1.0  0.30074  0.48457  0.60603  1.0000
  H   H3106     1.0  0.41964  0.49624  0.56848  1.0000
  H   H3107     1.0  0.23742  0.54394  0.49386  1.0000
  H   H3108     1.0  0.29548  0.51508  0.51919  1.0000
  Fe  Fe260     1.0  0.23733  0.88421  0.57082  1.0000
  C   C3869     1.0  0.34947  0.60594  0.69973  1.0000
  H   H3109     1.0  0.33569  0.95944  0.66503  1.0000
  H   H3110     1.0  0.39361  0.56722  0.70561  1.0000
  Fe  Fe261     1.0  0.44127  0.47821  0.64733  1.0000
  C   C3870     1.0  0.47666  0.50801  0.61398  1.0000
  C   C3871     1.0  0.40299  0.53818  0.71116  1.0000
  H   H3111     1.0  0.39675  0.47445  0.62212  1.0000
  C   C3872     1.0  0.23725  0.57289  0.62837  1.0000
  C   C3873     1.0  0.24578  0.90657  0.70865  1.0000
  C   C3874     1.0  0.31501  0.56843  0.70141  1.0000
  H   H3112     1.0  0.47433  0.95964  0.65381  1.0000
  C   C3875     1.0  0.45039  0.89704  0.47306  1.0000
  H   H3113     1.0  0.46624  0.58982  0.65121  1.0000
  C   C3876     1.0  0.27457  0.48163  0.46975  1.0000
  C   C3877     1.0  0.45863  0.90764  0.47956  1.0000
  C   C3878     1.0  0.34200  0.96873  0.54684  1.0000
  H   H3114     1.0  0.34006  0.60615  0.71272  1.0000
  C   C3879     1.0  0.48254  0.86410  0.64149  1.0000
  H   H3115     1.0  0.30018  0.95639  0.50356  1.0000
  C   C3880     1.0  0.47983  0.65796  0.60485  1.0000
  H   H3116     1.0  0.24877  0.65085  0.48154  1.0000
  C   C3881     1.0  0.47892  0.87489  0.46982  1.0000
  Fe  Fe262     1.0  0.48256  0.94295  0.54414  1.0000
  C   C3882     1.0  0.47756  0.77027  0.55624  1.0000
  H   H3117     1.0  0.43600  0.90123  0.47228  1.0000
  S   S521      1.0  0.23495  0.91466  0.56443  1.0000
  H   H3118     1.0  0.37350  0.77061  0.47556  1.0000
  C   C3883     1.0  0.23470  0.64890  0.48508  1.0000
  S   S522      1.0  0.27181  0.75757  0.46685  1.0000
  H   H3119     1.0  0.46314  0.55162  0.57306  1.0000
  C   C3884     1.0  0.33256  0.53176  0.70665  1.0000
  C   C3885     1.0  0.47072  0.53976  0.56748  1.0000
  C   C3886     1.0  0.40137  0.52153  0.70843  1.0000
  C   C3887     1.0  0.48196  0.51501  0.62639  1.0000
  H   H3120     1.0  0.48283  0.90988  0.48711  1.0000
  S   S523      1.0  0.47521  0.79142  0.54106  1.0000
  H   H3121     1.0  0.30356  0.47409  0.59816  1.0000
  C   C3888     1.0  0.47689  0.90168  0.48161  1.0000
  H   H3122     1.0  0.28801  0.47567  0.47293  1.0000
  C   C3889     1.0  0.32626  0.70939  0.46487  1.0000
  H   H3123     1.0  0.34061  0.62915  0.72719  1.0000
  Fe  Fe263     1.0  0.34703  0.70202  0.87612  1.0000
  S   S524      1.0  0.33970  0.71808  0.89848  1.0000
  S   S525      1.0  0.36873  0.67625  0.87468  1.0000
  Fe  Fe264     1.0  0.31607  0.72478  0.85721  1.0000
  S   S526      1.0  0.30603  0.74247  0.87791  1.0000
  C   C3890     1.0  0.26797  0.91130  0.73003  1.0000
  Fe  Fe265     1.0  0.33564  0.74256  0.87583  1.0000
  S   S527      1.0  0.34167  0.77059  0.87149  1.0000
  Fe  Fe266     1.0  0.31071  0.71682  0.89888  1.0000
  S   S528      1.0  0.28811  0.71472  0.92393  1.0000
  S   S529      1.0  0.34549  0.72667  0.85336  1.0000
  S   S530      1.0  0.31814  0.69894  0.87833  1.0000
  C   C3891     1.0  0.43041  0.93620  0.85729  1.0000
  S   S531      1.0  0.36117  0.87633  0.92128  1.0000
  Fe  Fe267     1.0  0.37028  0.82371  0.92477  1.0000
  S   S532      1.0  0.38139  0.84254  0.89967  1.0000
  S   S533      1.0  0.37460  0.79323  0.92811  1.0000
  Fe  Fe268     1.0  0.38827  0.85641  0.91865  1.0000
  S   S534      1.0  0.41668  0.86309  0.90848  1.0000
  Fe  Fe269     1.0  0.35369  0.86089  0.90414  1.0000
  S   S535      1.0  0.34075  0.87230  0.87946  1.0000
  S   S536      1.0  0.23528  0.93324  0.85424  1.0000
  S   S537      1.0  0.34198  0.84074  0.92774  1.0000
  H   H3124     1.0  0.28989  0.81125  0.93901  1.0000
  S   S538      1.0  0.25419  0.90968  0.81109  1.0000
  H   H3125     1.0  0.34588  0.95448  0.76747  1.0000
  H   H3126     1.0  0.26661  0.84866  0.84579  1.0000
  C   C3892     1.0  0.23726  0.61932  0.90788  1.0000
  H   H3127     1.0  0.40975  0.50902  0.71432  1.0000
  S   S539      1.0  0.47047  0.63617  0.82718  1.0000
  Fe  Fe270     1.0  0.40760  0.59422  0.71598  1.0000
  Fe  Fe271     1.0  0.47101  0.66493  0.82766  1.0000
  S   S540      1.0  0.44735  0.68888  0.82960  1.0000
  S   S541      1.0  0.37934  0.83590  0.94365  1.0000
  H   H3128     1.0  0.24769  0.90184  0.75316  1.0000
  C   C3893     1.0  0.29477  0.85496  0.90183  1.0000
  C   C3894     1.0  0.26279  0.64376  0.74437  1.0000
  H   H3129     1.0  0.34550  0.80582  0.95908  1.0000
  H   H3130     1.0  0.26222  0.82644  0.77996  1.0000
  H   H3131     1.0  0.25559  0.77044  0.79597  1.0000
  S   S542      1.0  0.43841  0.59104  0.76635  1.0000
  C   C3895     1.0  0.42782  0.91945  0.86863  1.0000
  C   C3896     1.0  0.34076  0.74050  0.95702  1.0000
  C   C3897     1.0  0.24984  0.64909  0.88354  1.0000
  H   H3132     1.0  0.25793  0.60476  0.77138  1.0000
  H   H3133     1.0  0.23844  0.89744  0.88125  1.0000
  H   H3134     1.0  0.28998  0.91400  0.85412  1.0000
  C   C3898     1.0  0.27773  0.69503  0.95799  1.0000
  C   C3899     1.0  0.44991  0.87644  0.94326  1.0000
  C   C3900     1.0  0.28170  0.70594  0.84986  1.0000
  C   C3901     1.0  0.24230  0.96121  0.94005  1.0000
  H   H3135     1.0  0.29687  0.86697  0.89140  1.0000
  C   C3902     1.0  0.32438  0.96586  0.75208  1.0000
  S   S543      1.0  0.30374  0.73063  0.83217  1.0000
  H   H3136     1.0  0.23569  0.66014  0.74408  1.0000
  H   H3137     1.0  0.44073  0.89232  0.87988  1.0000
  H   H3138     1.0  0.32038  0.95292  0.75417  1.0000
  C   C3903     1.0  0.27594  0.62792  0.71895  1.0000
  C   C3904     1.0  0.46721  0.60925  0.75367  1.0000
  C   C3905     1.0  0.45456  0.60242  0.76872  1.0000
  C   C3906     1.0  0.45485  0.60439  0.78615  1.0000
  C   C3907     1.0  0.46763  0.61328  0.78858  1.0000
  H   H3139     1.0  0.25413  0.66079  0.87397  1.0000
  C   C3908     1.0  0.48048  0.61991  0.77362  1.0000
  H   H3140     1.0  0.44508  0.59911  0.79774  1.0000
  C   C3909     1.0  0.43151  0.87496  0.95054  1.0000
  H   H3141     1.0  0.37488  0.69640  0.77069  1.0000
  C   C3910     1.0  0.47883  0.72478  0.81750  1.0000
  H   H3142     1.0  0.34952  0.69008  0.72836  1.0000
  H   H3143     1.0  0.29194  0.77202  0.80991  1.0000
  H   H3144     1.0  0.41861  0.94724  0.85620  1.0000
  H   H3145     1.0  0.30454  0.94602  0.71936  1.0000
  S   S544      1.0  0.27075  0.93640  0.88077  1.0000
  H   H3146     1.0  0.48191  0.50212  0.90544  1.0000
  H   H3147     1.0  0.25837  0.72146  0.73052  1.0000
  C   C3911     1.0  0.25995  0.76628  0.83979  1.0000
  C   C3912     1.0  0.24075  0.63866  0.87783  1.0000
  C   C3913     1.0  0.48104  0.48049  0.78473  1.0000
  H   H3148     1.0  0.36457  0.71383  0.92627  1.0000
  C   C3914     1.0  0.25756  0.94940  0.74861  1.0000
  C   C3915     1.0  0.27240  0.63182  0.96012  1.0000
  H   H3149     1.0  0.25021  0.81514  0.84595  1.0000
  H   H3150     1.0  0.28225  0.77114  0.90452  1.0000
  C   C3916     1.0  0.25337  0.75074  0.85008  1.0000
  S   S545      1.0  0.27399  0.94313  0.82685  1.0000
  C   C3917     1.0  0.32139  0.89015  0.88018  1.0000
  C   C3918     1.0  0.31446  0.89842  0.89532  1.0000
  C   C3919     1.0  0.29883  0.91255  0.89545  1.0000
  C   C3920     1.0  0.29004  0.91837  0.88051  1.0000
  C   C3921     1.0  0.29678  0.90982  0.86557  1.0000
  C   C3922     1.0  0.31247  0.89583  0.86536  1.0000
  H   H3151     1.0  0.32124  0.89405  0.90682  1.0000
  H   H3152     1.0  0.29364  0.91909  0.90707  1.0000
  C   C3923     1.0  0.24702  0.65135  0.73707  1.0000
  H   H3153     1.0  0.31771  0.88937  0.85371  1.0000
  C   C3924     1.0  0.25487  0.68206  0.90251  1.0000
  C   C3925     1.0  0.45779  0.87362  0.92557  1.0000
  C   C3926     1.0  0.44749  0.86917  0.91530  1.0000
  C   C3927     1.0  0.42910  0.86779  0.92247  1.0000
  S   S546      1.0  0.25058  0.69118  0.78380  1.0000
  C   C3928     1.0  0.25722  0.71383  0.89658  1.0000
  H   H3154     1.0  0.46756  0.61498  0.80202  1.0000
  H   H3155     1.0  0.45380  0.86687  0.90168  1.0000
  C   C3929     1.0  0.25811  0.79848  0.75428  1.0000
  C   C3930     1.0  0.47415  0.74367  0.81180  1.0000
  C   C3931     1.0  0.39051  0.67970  0.86185  1.0000
  C   C3932     1.0  0.39389  0.69730  0.85484  1.0000
  C   C3933     1.0  0.41134  0.69990  0.84479  1.0000
  C   C3934     1.0  0.42555  0.68493  0.84179  1.0000
  C   C3935     1.0  0.42214  0.66728  0.84853  1.0000
  C   C3936     1.0  0.40461  0.66467  0.85853  1.0000
  H   H3156     1.0  0.38321  0.70896  0.85747  1.0000
  H   H3157     1.0  0.41392  0.71357  0.83963  1.0000
  H   H3158     1.0  0.43303  0.65570  0.84613  1.0000
  H   H3159     1.0  0.40203  0.65102  0.86387  1.0000
  C   C3937     1.0  0.35097  0.77631  0.88747  1.0000
  C   C3938     1.0  0.35124  0.79464  0.88605  1.0000
  C   C3939     1.0  0.35823  0.79994  0.89861  1.0000
  C   C3940     1.0  0.36543  0.78681  0.91246  1.0000
  C   C3941     1.0  0.36535  0.76840  0.91382  1.0000
  C   C3942     1.0  0.35800  0.76315  0.90142  1.0000
  H   H3160     1.0  0.34614  0.80474  0.87508  1.0000
  H   H3161     1.0  0.35829  0.81416  0.89736  1.0000
  H   H3162     1.0  0.37104  0.75822  0.92442  1.0000
  H   H3163     1.0  0.35800  0.74896  0.90249  1.0000
  H   H3164     1.0  0.28713  0.70491  0.86175  1.0000
  C   C3943     1.0  0.29599  0.83810  0.93260  1.0000
  C   C3944     1.0  0.36182  0.72083  0.93748  1.0000
  H   H3165     1.0  0.26369  0.68770  0.73810  1.0000
  C   C3945     1.0  0.29114  0.69582  0.94189  1.0000
  C   C3946     1.0  0.30642  0.68157  0.94037  1.0000
  C   C3947     1.0  0.42235  0.96220  0.81790  1.0000
  C   C3948     1.0  0.26030  0.81414  0.75870  1.0000
  H   H3166     1.0  0.27645  0.91325  0.73839  1.0000
  H   H3167     1.0  0.31687  0.68215  0.92799  1.0000
  H   H3168     1.0  0.24944  0.79610  0.88207  1.0000
  H   H3169     1.0  0.26858  0.94405  0.78979  1.0000
  H   H3170     1.0  0.46088  0.75098  0.81773  1.0000
  C   C3949     1.0  0.26901  0.94857  0.77527  1.0000
  C   C3950     1.0  0.26078  0.81414  0.77667  1.0000
  C   C3951     1.0  0.30809  0.66645  0.95489  1.0000
  S   S547      1.0  0.42029  0.57107  0.73592  1.0000
  H   H3171     1.0  0.28332  0.74542  0.96017  1.0000
  C   C3952     1.0  0.46656  0.48107  0.76005  1.0000
  H   H3172     1.0  0.31192  0.81026  0.86137  1.0000
  H   H3173     1.0  0.27353  0.76733  0.84034  1.0000
  C   C3953     1.0  0.28916  0.65507  0.89795  1.0000
  H   H3174     1.0  0.47539  0.56637  0.76039  1.0000
  H   H3175     1.0  0.27662  0.66303  0.81697  1.0000
  C   C3954     1.0  0.31621  0.53747  0.71851  1.0000
  C   C3955     1.0  0.31369  0.65153  0.87131  1.0000
  C   C3956     1.0  0.29512  0.65285  0.87974  1.0000
  C   C3957     1.0  0.26112  0.69715  0.83579  1.0000
  H   H3176     1.0  0.34081  0.65186  0.87430  1.0000
  C   C3958     1.0  0.47892  0.51268  0.89374  1.0000
  C   C3959     1.0  0.23487  0.90521  0.80607  1.0000
  H   H3177     1.0  0.26104  0.71020  0.80768  1.0000
  H   H3178     1.0  0.28963  0.62636  0.74067  1.0000
  H   H3179     1.0  0.48059  0.81346  0.87959  1.0000
  C   C3960     1.0  0.25850  0.79864  0.79045  1.0000
  H   H3180     1.0  0.31070  0.78219  0.90177  1.0000
  H   H3181     1.0  0.40689  0.86962  0.94581  1.0000
  Fe  Fe272     1.0  0.24153  0.66734  0.77972  1.0000
  H   H3182     1.0  0.28908  0.96475  0.77149  1.0000
  H   H3183     1.0  0.48363  0.47417  0.79830  1.0000
  H   H3184     1.0  0.28422  0.72838  0.80573  1.0000
  H   H3185     1.0  0.30229  0.86490  0.92196  1.0000
  H   H3186     1.0  0.31813  0.65022  0.85716  1.0000
  H   H3187     1.0  0.28553  0.65252  0.87182  1.0000
  C   C3961     1.0  0.29491  0.78389  0.81277  1.0000
  C   C3962     1.0  0.28097  0.79929  0.81520  1.0000
  C   C3963     1.0  0.25308  0.64458  0.90140  1.0000
  C   C3964     1.0  0.44286  0.90520  0.87090  1.0000
  H   H3188     1.0  0.40303  0.66083  0.73407  1.0000
  H   H3189     1.0  0.46632  0.96647  0.71570  1.0000
  C   C3965     1.0  0.28548  0.81474  0.81806  1.0000
  C   C3966     1.0  0.30337  0.81433  0.81958  1.0000
  C   C3967     1.0  0.31689  0.79858  0.81814  1.0000
  C   C3968     1.0  0.31268  0.78341  0.81463  1.0000
  C   C3969     1.0  0.28093  0.75796  0.93268  1.0000
  C   C3970     1.0  0.26718  0.85916  0.86907  1.0000
  H   H3190     1.0  0.27532  0.82714  0.81905  1.0000
  H   H3191     1.0  0.30672  0.82614  0.82213  1.0000
  H   H3192     1.0  0.33062  0.79808  0.81984  1.0000
  H   H3193     1.0  0.28386  0.81333  0.90869  1.0000
  C   C3971     1.0  0.27055  0.71369  0.73564  1.0000
  C   C3972     1.0  0.28310  0.72266  0.73826  1.0000
  C   C3973     1.0  0.29850  0.71264  0.74542  1.0000
  C   C3974     1.0  0.30109  0.69357  0.75053  1.0000
  C   C3975     1.0  0.28868  0.68468  0.74741  1.0000
  P   P133      1.0  0.32060  0.68008  0.75998  1.0000
  C   C3976     1.0  0.33484  0.66831  0.74232  1.0000
  C   C3977     1.0  0.33210  0.69343  0.76785  1.0000
  C   C3978     1.0  0.35135  0.68987  0.76519  1.0000
  C   C3979     1.0  0.36005  0.69927  0.77268  1.0000
  C   C3980     1.0  0.34958  0.71193  0.78325  1.0000
  C   C3981     1.0  0.33043  0.71528  0.78629  1.0000
  C   C3982     1.0  0.32171  0.70601  0.77872  1.0000
  C   C3983     1.0  0.33192  0.65141  0.74137  1.0000
  C   C3984     1.0  0.31248  0.66459  0.78049  1.0000
  C   C3985     1.0  0.29582  0.67025  0.79205  1.0000
  H   H3194     1.0  0.45621  0.95672  0.79593  1.0000
  C   C3986     1.0  0.46056  0.90770  0.86191  1.0000
  C   C3987     1.0  0.31710  0.63576  0.80205  1.0000
  C   C3988     1.0  0.32327  0.64738  0.78578  1.0000
  C   C3989     1.0  0.28936  0.84061  0.89786  1.0000
  H   H3195     1.0  0.29893  0.83709  0.94586  1.0000
  H   H3196     1.0  0.47706  0.92617  0.84389  1.0000
  H   H3197     1.0  0.30815  0.71985  0.74709  1.0000
  H   H3198     1.0  0.29058  0.66997  0.75098  1.0000
  H   H3199     1.0  0.35626  0.71890  0.78946  1.0000
  H   H3200     1.0  0.32232  0.72474  0.79491  1.0000
  H   H3201     1.0  0.30684  0.70837  0.78175  1.0000
  H   H3202     1.0  0.32125  0.64519  0.75112  1.0000
  H   H3203     1.0  0.34577  0.77587  0.95372  1.0000
  C   C3990     1.0  0.32649  0.65237  0.88095  1.0000
  C   C3991     1.0  0.24144  0.81892  0.82063  1.0000
  H   H3204     1.0  0.32532  0.62238  0.80594  1.0000
  H   H3205     1.0  0.33645  0.64295  0.77741  1.0000
  P   P134      1.0  0.46639  0.55861  0.84444  1.0000
  C   C3992     1.0  0.47118  0.54025  0.86355  1.0000
  C   C3993     1.0  0.45485  0.57925  0.85277  1.0000
  C   C3994     1.0  0.44409  0.59326  0.84219  1.0000
  C   C3995     1.0  0.43591  0.60971  0.84795  1.0000
  C   C3996     1.0  0.43834  0.61226  0.86436  1.0000
  C   C3997     1.0  0.44902  0.59841  0.87497  1.0000
  C   C3998     1.0  0.45735  0.58201  0.86918  1.0000
  C   C3999     1.0  0.46004  0.52719  0.87121  1.0000
  C   C4000     1.0  0.46387  0.51354  0.88630  1.0000
  H   H3206     1.0  0.26590  0.70604  0.95923  1.0000
  C   C4001     1.0  0.45196  0.55392  0.83163  1.0000
  C   C4002     1.0  0.43398  0.55165  0.84006  1.0000
  C   C4003     1.0  0.42266  0.54815  0.83026  1.0000
  C   C4004     1.0  0.42889  0.54780  0.81172  1.0000
  C   C4005     1.0  0.44645  0.55086  0.80303  1.0000
  C   C4006     1.0  0.45805  0.55372  0.81292  1.0000
  H   H3207     1.0  0.44246  0.59170  0.82924  1.0000
  H   H3208     1.0  0.42809  0.62068  0.83946  1.0000
  H   H3209     1.0  0.43242  0.62515  0.86865  1.0000
  H   H3210     1.0  0.45156  0.60068  0.88731  1.0000
  C   C4007     1.0  0.23728  0.89180  0.79593  1.0000
  H   H3211     1.0  0.44849  0.52726  0.86567  1.0000
  H   H3212     1.0  0.45523  0.50353  0.89225  1.0000
  H   H3213     1.0  0.25425  0.95135  0.94366  1.0000
  H   H3214     1.0  0.42866  0.55274  0.85421  1.0000
  H   H3215     1.0  0.40888  0.54617  0.83690  1.0000
  H   H3216     1.0  0.41996  0.54567  0.80392  1.0000
  H   H3217     1.0  0.45084  0.55148  0.78847  1.0000
  H   H3218     1.0  0.25472  0.77067  0.76439  1.0000
  H   H3219     1.0  0.35258  0.85851  0.82662  1.0000
  H   H3220     1.0  0.32271  0.87089  0.81677  1.0000
  H   H3221     1.0  0.46415  0.79216  0.95140  1.0000
  C   C4008     1.0  0.24554  0.64689  0.72105  1.0000
  C   C4009     1.0  0.26981  0.96047  0.73790  1.0000
  P   P135      1.0  0.26496  0.65822  0.90864  1.0000
  H   H3222     1.0  0.26393  0.87368  0.89071  1.0000
  C   C4010     1.0  0.30589  0.75921  0.94604  1.0000
  H   H3223     1.0  0.45000  0.82709  0.90169  1.0000
  C   C4011     1.0  0.26035  0.85902  0.85387  1.0000
  C   C4012     1.0  0.24922  0.77978  0.82874  1.0000
  H   H3224     1.0  0.46615  0.57188  0.87732  1.0000
  H   H3225     1.0  0.45779  0.47562  0.75467  1.0000
  H   H3226     1.0  0.36921  0.62166  0.76185  1.0000
  C   C4013     1.0  0.37228  0.72873  0.96096  1.0000
  C   C4014     1.0  0.45967  0.80945  0.92549  1.0000
  C   C4015     1.0  0.45422  0.79886  0.94282  1.0000
  H   H3227     1.0  0.26523  0.72394  0.89546  1.0000
  C   C4016     1.0  0.46962  0.47364  0.77774  1.0000
  C   C4017     1.0  0.42838  0.81568  0.92088  1.0000
  C   C4018     1.0  0.44650  0.81822  0.91475  1.0000
  C   C4019     1.0  0.24062  0.90263  0.72768  1.0000
  H   H3228     1.0  0.32578  0.77466  0.92807  1.0000
  C   C4020     1.0  0.30024  0.64135  0.81325  1.0000
  C   C4021     1.0  0.26298  0.79941  0.87733  1.0000
  C   C4022     1.0  0.28750  0.82485  0.91144  1.0000
  C   C4023     1.0  0.48023  0.61788  0.75615  1.0000
  C   C4024     1.0  0.31322  0.76997  0.92955  1.0000
  C   C4025     1.0  0.25898  0.87299  0.87905  1.0000
  P   P136      1.0  0.28671  0.84192  0.87494  1.0000
  H   H3229     1.0  0.27549  0.77410  0.86844  1.0000
  H   H3230     1.0  0.26872  0.75285  0.93372  1.0000
  C   C4026     1.0  0.43607  0.79640  0.94891  1.0000
  Fe  Fe273     1.0  0.43679  0.59047  0.73774  1.0000
  H   H3231     1.0  0.42711  0.94764  0.81894  1.0000
  H   H3232     1.0  0.41830  0.82243  0.91246  1.0000
  C   C4027     1.0  0.24077  0.82328  0.83737  1.0000
  C   C4028     1.0  0.37584  0.71978  0.94645  1.0000
  S   S548      1.0  0.26416  0.64732  0.76565  1.0000
  H   H3233     1.0  0.47093  0.50711  0.80942  1.0000
  H   H3234     1.0  0.29416  0.86418  0.83741  1.0000
  C   C4029     1.0  0.42110  0.87060  0.94019  1.0000
  C   C4030     1.0  0.26507  0.69533  0.90082  1.0000
  C   C4031     1.0  0.26581  0.81605  0.87891  1.0000
  C   C4032     1.0  0.47505  0.49526  0.74923  1.0000
  Fe  Fe274     1.0  0.24940  0.93334  0.82502  1.0000
  H   H3235     1.0  0.29534  0.63232  0.82577  1.0000
  H   H3236     1.0  0.47226  0.89682  0.86418  1.0000
  C   C4033     1.0  0.23911  0.71924  0.89411  1.0000
  C   C4034     1.0  0.23439  0.62380  0.89001  1.0000
  H   H3237     1.0  0.26398  0.68717  0.86375  1.0000
  C   C4035     1.0  0.27762  0.78704  0.86957  1.0000
  H   H3238     1.0  0.46701  0.60786  0.74015  1.0000
  H   H3239     1.0  0.26115  0.82641  0.74830  1.0000
  H   H3240     1.0  0.48321  0.95456  0.77080  1.0000
  C   C4036     1.0  0.28966  0.65862  0.80829  1.0000
  H   H3241     1.0  0.24132  0.87313  0.83619  1.0000
  C   C4037     1.0  0.28748  0.71761  0.83355  1.0000
  H   H3242     1.0  0.27903  0.69149  0.90301  1.0000
  C   C4038     1.0  0.38575  0.64113  0.74617  1.0000
  C   C4039     1.0  0.24435  0.88654  0.87375  1.0000
  H   H3243     1.0  0.43646  0.83544  0.96327  1.0000
  C   C4040     1.0  0.47137  0.95772  0.81571  1.0000
  P   P137      1.0  0.45154  0.96069  0.83403  1.0000
  C   C4041     1.0  0.23607  0.74851  0.84943  1.0000
  Fe  Fe275     1.0  0.25871  0.94511  0.85542  1.0000
  H   H3244     1.0  0.25712  0.79864  0.74051  1.0000
  C   C4042     1.0  0.46948  0.95634  0.79852  1.0000
  C   C4043     1.0  0.28096  0.95999  0.76472  1.0000
  C   C4044     1.0  0.28000  0.71913  0.81832  1.0000
  H   H3245     1.0  0.29473  0.56027  0.72500  1.0000
  H   H3246     1.0  0.41416  0.91752  0.87593  1.0000
  C   C4045     1.0  0.45696  0.96589  0.86681  1.0000
  C   C4046     1.0  0.32440  0.84049  0.86481  1.0000
  H   H3247     1.0  0.47260  0.50103  0.73552  1.0000
  C   C4047     1.0  0.23791  0.88649  0.85839  1.0000
  C   C4048     1.0  0.24456  0.60793  0.76780  1.0000
  H   H3248     1.0  0.32514  0.83254  0.87840  1.0000
  S   S549      1.0  0.37678  0.60161  0.71847  1.0000
  S   S550      1.0  0.46024  0.58232  0.71527  1.0000
  H   H3249     1.0  0.30665  0.78134  0.85821  1.0000
  H   H3250     1.0  0.24220  0.67629  0.93871  1.0000
  H   H3251     1.0  0.48267  0.76770  0.79469  1.0000
  C   C4049     1.0  0.25173  0.90492  0.73839  1.0000
  C   C4050     1.0  0.30743  0.84747  0.85946  1.0000
  C   C4051     1.0  0.25676  0.78271  0.76774  1.0000
  C   C4052     1.0  0.26851  0.69586  0.85099  1.0000
  C   C4053     1.0  0.25733  0.94326  0.76726  1.0000
  C   C4054     1.0  0.27350  0.69469  0.73996  1.0000
  P   P138      1.0  0.25779  0.79927  0.81383  1.0000
  C   C4055     1.0  0.30463  0.77437  0.91464  1.0000
  C   C4056     1.0  0.46320  0.92437  0.85037  1.0000
  H   H3252     1.0  0.31986  0.65538  0.95365  1.0000
  C   C4057     1.0  0.34431  0.73106  0.94278  1.0000
  C   C4058     1.0  0.25704  0.78273  0.78576  1.0000
  C   C4059     1.0  0.24930  0.65916  0.96335  1.0000
  H   H3253     1.0  0.24813  0.94569  0.74252  1.0000
  H   H3254     1.0  0.46439  0.50359  0.84295  1.0000
  H   H3255     1.0  0.28068  0.73741  0.73494  1.0000
  H   H3256     1.0  0.47153  0.55622  0.80576  1.0000
  C   C4060     1.0  0.30738  0.55579  0.71582  1.0000
  S   S551      1.0  0.46297  0.88134  0.95658  1.0000
  C   C4061     1.0  0.26687  0.70886  0.81941  1.0000
  C   C4062     1.0  0.29811  0.80761  0.86561  1.0000
  C   C4063     1.0  0.30215  0.65616  0.90742  1.0000
  H   H3257     1.0  0.35968  0.67946  0.75787  1.0000
  C   C4064     1.0  0.28858  0.76823  0.91618  1.0000
  C   C4065     1.0  0.48222  0.50328  0.81654  1.0000
  C   C4066     1.0  0.29088  0.82359  0.92873  1.0000
  H   H3258     1.0  0.28762  0.68371  0.78862  1.0000
  H   H3259     1.0  0.29795  0.65871  0.92116  1.0000
  H   H3260     1.0  0.33059  0.65584  0.90628  1.0000
  C   C4067     1.0  0.32072  0.65461  0.89902  1.0000
  H   H3261     1.0  0.32313  0.77114  0.81356  1.0000
  C   C4068     1.0  0.34775  0.67660  0.72849  1.0000
  H   H3262     1.0  0.26199  0.74017  0.85811  1.0000
  C   C4069     1.0  0.39553  0.65392  0.74666  1.0000
  C   C4070     1.0  0.27740  0.63232  0.73508  1.0000
  C   C4071     1.0  0.37647  0.63183  0.76236  1.0000
  C   C4072     1.0  0.37706  0.63520  0.77913  1.0000
  C   C4073     1.0  0.38702  0.64791  0.77980  1.0000
  C   C4074     1.0  0.39614  0.65737  0.76340  1.0000
  P   P139      1.0  0.38865  0.65135  0.80161  1.0000
  C   C4075     1.0  0.40805  0.66198  0.79831  1.0000
  C   C4076     1.0  0.36730  0.66422  0.81241  1.0000
  C   C4077     1.0  0.36707  0.67324  0.82616  1.0000
  C   C4078     1.0  0.35056  0.68286  0.83470  1.0000
  C   C4079     1.0  0.33406  0.68323  0.83002  1.0000
  C   C4080     1.0  0.33405  0.67395  0.81673  1.0000
  C   C4081     1.0  0.35058  0.66453  0.80792  1.0000
  C   C4082     1.0  0.42601  0.65163  0.79519  1.0000
  C   C4083     1.0  0.44113  0.65967  0.79249  1.0000
  C   C4084     1.0  0.43849  0.67806  0.79297  1.0000
  C   C4085     1.0  0.42073  0.68853  0.79578  1.0000
  C   C4086     1.0  0.40556  0.68064  0.79811  1.0000
  C   C4087     1.0  0.39351  0.62926  0.81624  1.0000
  C   C4088     1.0  0.40334  0.61407  0.80867  1.0000
  C   C4089     1.0  0.40661  0.59688  0.81988  1.0000
  C   C4090     1.0  0.40031  0.59469  0.83876  1.0000
  C   C4091     1.0  0.39095  0.60979  0.84646  1.0000
  C   C4092     1.0  0.38760  0.62703  0.83527  1.0000
  C   C4093     1.0  0.30696  0.85826  0.84191  1.0000
  C   C4094     1.0  0.44809  0.93869  0.84780  1.0000
  C   C4095     1.0  0.29517  0.79109  0.86386  1.0000
  H   H3263     1.0  0.37014  0.62755  0.79160  1.0000
  H   H3264     1.0  0.40409  0.66708  0.76347  1.0000
  H   H3265     1.0  0.37960  0.67276  0.83047  1.0000
  H   H3266     1.0  0.35054  0.68997  0.84508  1.0000
  H   H3267     1.0  0.32132  0.69071  0.83673  1.0000
  H   H3268     1.0  0.32120  0.67431  0.81313  1.0000
  H   H3269     1.0  0.35020  0.65765  0.79756  1.0000
  H   H3270     1.0  0.42843  0.63736  0.79473  1.0000
  H   H3271     1.0  0.45496  0.65164  0.79020  1.0000
  H   H3272     1.0  0.45021  0.68413  0.79148  1.0000
  H   H3273     1.0  0.41878  0.70270  0.79653  1.0000
  H   H3274     1.0  0.39201  0.68916  0.79993  1.0000
  H   H3275     1.0  0.40860  0.61541  0.79408  1.0000
  H   H3276     1.0  0.41423  0.58536  0.81377  1.0000
  H   H3277     1.0  0.40292  0.58139  0.84749  1.0000
  H   H3278     1.0  0.38642  0.60820  0.86113  1.0000
  H   H3279     1.0  0.38050  0.63852  0.84160  1.0000
  H   H3280     1.0  0.35356  0.83935  0.85745  1.0000
  C   C4096     1.0  0.28336  0.82035  0.87286  1.0000
  C   C4097     1.0  0.29787  0.85379  0.91916  1.0000
  H   H3281     1.0  0.38567  0.63807  0.73325  1.0000
  H   H3282     1.0  0.47182  0.87493  0.91974  1.0000
  H   H3283     1.0  0.25435  0.82555  0.88495  1.0000
  C   C4098     1.0  0.32322  0.86210  0.83005  1.0000
  C   C4099     1.0  0.34003  0.85512  0.83555  1.0000
  C   C4100     1.0  0.34062  0.84424  0.85288  1.0000
  H   H3284     1.0  0.47393  0.77477  0.92144  1.0000
  Fe  Fe276     1.0  0.35158  0.85454  0.94482  1.0000
  H   H3285     1.0  0.25095  0.88439  0.79132  1.0000
  H   H3286     1.0  0.33363  0.73159  0.93568  1.0000
  H   H3287     1.0  0.46390  0.96869  0.89117  1.0000
  H   H3288     1.0  0.40923  0.80242  0.94227  1.0000
  C   C4101     1.0  0.28947  0.75352  0.94763  1.0000
  H   H3289     1.0  0.28315  0.62727  0.93283  1.0000
  C   C4102     1.0  0.27353  0.63620  0.94123  1.0000
  Fe  Fe277     1.0  0.23468  0.68523  0.81240  1.0000
  C   C4103     1.0  0.24663  0.62958  0.91356  1.0000
  H   H3290     1.0  0.48053  0.63183  0.92945  1.0000
  C   C4104     1.0  0.25053  0.66369  0.94444  1.0000
  C   C4105     1.0  0.33373  0.78247  0.96220  1.0000
  H   H3291     1.0  0.41256  0.53855  0.71918  1.0000
  C   C4106     1.0  0.26272  0.65226  0.93320  1.0000
  H   H3292     1.0  0.46920  0.71746  0.82769  1.0000
  C   C4107     1.0  0.33903  0.96662  0.75937  1.0000
  H   H3293     1.0  0.38945  0.71204  0.94213  1.0000
  H   H3294     1.0  0.24790  0.93464  0.77564  1.0000
  S   S552      1.0  0.24478  0.68395  0.83786  1.0000
  H   H3295     1.0  0.31047  0.52774  0.72991  1.0000
  C   C4108     1.0  0.34263  0.64238  0.72759  1.0000
  C   C4109     1.0  0.42322  0.80460  0.93782  1.0000
  H   H3296     1.0  0.25281  0.59071  0.74802  1.0000
  H   H3297     1.0  0.45324  0.95284  0.87330  1.0000
  C   C4110     1.0  0.24592  0.87274  0.84847  1.0000
  C   C4111     1.0  0.23659  0.68758  0.90018  1.0000
  C   C4112     1.0  0.24168  0.60009  0.75460  1.0000
  S   S553      1.0  0.42236  0.61425  0.71960  1.0000
  C   C4113     1.0  0.28189  0.96552  0.74582  1.0000
  H   H3298     1.0  0.48056  0.81480  0.75485  1.0000
  H   H3299     1.0  0.40009  0.96303  0.80516  1.0000
  H   H3300     1.0  0.43201  0.78798  0.96213  1.0000
  H   H3301     1.0  0.47658  0.69586  0.71850  1.0000
  H   H3302     1.0  0.47671  0.53331  0.77006  1.0000
  H   H3303     1.0  0.48045  0.59174  0.82386  1.0000
  H   H3304     1.0  0.23850  0.64232  0.86394  1.0000
  C   C4114     1.0  0.47847  0.50146  0.83552  1.0000
  H   H3305     1.0  0.46720  0.83552  0.94227  1.0000
  C   C4115     1.0  0.48061  0.82859  0.94508  1.0000
  H   H3306     1.0  0.26966  0.96537  0.72351  1.0000
  H   H3307     1.0  0.24861  0.62579  0.92748  1.0000
  P   P140      1.0  0.48361  0.81075  0.91713  1.0000
  H   H3308     1.0  0.42526  0.87723  0.96419  1.0000
  H   H3309     1.0  0.29746  0.66434  0.71545  1.0000
  C   C4116     1.0  0.35838  0.66754  0.71459  1.0000
  C   C4117     1.0  0.48110  0.96319  0.71432  1.0000
  C   C4118     1.0  0.35589  0.65036  0.71425  1.0000
  H   H3310     1.0  0.67755  0.15041  0.02300  1.0000
  C   C4119     1.0  0.50979  0.18722  0.05682  1.0000
  H   H3311     1.0  0.67938  0.25214  0.20513  1.0000
  Fe  Fe278     1.0  0.54121  0.45154  0.13578  1.0000
  S   S554      1.0  0.56722  0.43079  0.13835  1.0000
  H   H3312     1.0  0.63608  0.04421  0.03640  1.0000
  Fe  Fe279     1.0  0.57701  0.45232  0.14612  1.0000
  S   S555      1.0  0.60745  0.45279  0.13707  1.0000
  H   H3313     1.0  0.55245  0.99374  0.00334  1.0000
  H   H3314     1.0  0.63305  0.01286  0.05184  1.0000
  Fe  Fe280     1.0  0.61199  0.11981  0.00989  1.0000
  S   S556      1.0  0.63999  0.11901  0.99147  1.0000
  S   S557      1.0  0.59373  0.14641  0.01564  1.0000
  Fe  Fe281     1.0  0.61503  0.07878  0.01703  1.0000
  S   S558      1.0  0.64324  0.07447  0.99961  1.0000
  S   S559      1.0  0.59901  0.05687  0.03289  1.0000
  Fe  Fe282     1.0  0.64906  0.09478  0.01260  1.0000
  S   S560      1.0  0.67581  0.08743  0.02261  1.0000
  Fe  Fe283     1.0  0.63186  0.09892  0.98002  1.0000
  S   S561      1.0  0.62168  0.09704  0.03183  1.0000
  S   S562      1.0  0.60317  0.10183  0.99648  1.0000
  Fe  Fe284     1.0  0.53504  0.16871  0.10752  1.0000
  S   S563      1.0  0.54698  0.14299  0.09639  1.0000
  Fe  Fe285     1.0  0.54117  0.19204  0.13116  1.0000
  S   S564      1.0  0.56061  0.19283  0.14853  1.0000
  S   S565      1.0  0.53059  0.16615  0.13778  1.0000
  S   S566      1.0  0.54795  0.19319  0.10091  1.0000
  Fe  Fe286     1.0  0.62988  0.26419  0.17628  1.0000
  S   S567      1.0  0.65690  0.24409  0.17660  1.0000
  Fe  Fe287     1.0  0.59393  0.27383  0.16279  1.0000
  S   S568      1.0  0.57682  0.27018  0.14461  1.0000
  S   S569      1.0  0.62112  0.28221  0.15104  1.0000
  H   H3315     1.0  0.71445  0.46986  0.03729  1.0000
  C   C4120     1.0  0.50147  0.47070  0.98515  1.0000
  H   H3316     1.0  0.53039  0.12895  0.19038  1.0000
  H   H3317     1.0  0.70948  0.33792  0.13670  1.0000
  S   S570      1.0  0.61514  0.33192  0.15537  1.0000
  C   C4121     1.0  0.60147  0.97346  0.09825  1.0000
  H   H3318     1.0  0.59875  0.14481  0.08007  1.0000
  H   H3319     1.0  0.61196  0.14743  0.13887  1.0000
  H   H3320     1.0  0.68951  0.00091  0.05778  1.0000
  H   H3321     1.0  0.73258  0.22102  0.18272  1.0000
  C   C4122     1.0  0.56597  0.21414  0.14661  1.0000
  C   C4123     1.0  0.57720  0.21585  0.15763  1.0000
  C   C4124     1.0  0.58101  0.23291  0.15685  1.0000
  C   C4125     1.0  0.57349  0.24835  0.14511  1.0000
  C   C4126     1.0  0.56256  0.24656  0.13387  1.0000
  C   C4127     1.0  0.55881  0.22951  0.13459  1.0000
  H   H3322     1.0  0.58289  0.20396  0.16683  1.0000
  H   H3323     1.0  0.58967  0.23414  0.16536  1.0000
  H   H3324     1.0  0.55682  0.25844  0.12468  1.0000
  H   H3325     1.0  0.55023  0.22827  0.12598  1.0000
  C   C4128     1.0  0.58120  0.14549  0.03828  1.0000
  C   C4129     1.0  0.57942  0.12876  0.05005  1.0000
  C   C4130     1.0  0.56902  0.12822  0.06787  1.0000
  C   C4131     1.0  0.56032  0.14437  0.07409  1.0000
  C   C4132     1.0  0.56219  0.16115  0.06242  1.0000
  C   C4133     1.0  0.57256  0.16169  0.04451  1.0000
  H   H3326     1.0  0.58567  0.11622  0.04532  1.0000
  H   H3327     1.0  0.56755  0.11522  0.07682  1.0000
  H   H3328     1.0  0.55551  0.17368  0.06710  1.0000
  H   H3329     1.0  0.57388  0.17468  0.03548  1.0000
  C   C4134     1.0  0.61117  0.00332  0.01291  1.0000
  C   C4135     1.0  0.59704  0.00655  0.02789  1.0000
  C   C4136     1.0  0.59336  0.02308  0.03381  1.0000
  C   C4137     1.0  0.60374  0.03648  0.02479  1.0000
  C   C4138     1.0  0.61773  0.03334  0.00970  1.0000
  C   C4139     1.0  0.62140  0.01682  0.00375  1.0000
  H   H3330     1.0  0.58237  0.02555  0.04533  1.0000
  H   H3331     1.0  0.62578  0.04358  0.00265  1.0000
  H   H3332     1.0  0.63226  0.01447  0.99207  1.0000
  H   H3333     1.0  0.55986  0.46486  0.06641  1.0000
  H   H3334     1.0  0.52363  0.18974  0.05178  1.0000
  H   H3335     1.0  0.50505  0.38671  0.07924  1.0000
  H   H3336     1.0  0.60918  0.06414  0.97486  1.0000
  H   H3337     1.0  0.69230  0.08751  0.96956  1.0000
  H   H3338     1.0  0.49528  0.02284  0.08717  1.0000
  C   C4140     1.0  0.58359  0.01857  0.97591  1.0000
  H   H3339     1.0  0.60856  0.44211  0.17485  1.0000
  C   C4141     1.0  0.59776  0.36752  0.15397  1.0000
  C   C4142     1.0  0.58444  0.38178  0.16043  1.0000
  H   H3340     1.0  0.60800  0.37051  0.14177  1.0000
  H   H3341     1.0  0.58463  0.39562  0.15323  1.0000
  C   C4143     1.0  0.50792  0.43025  0.12416  1.0000
  C   C4144     1.0  0.55346  0.03782  0.98203  1.0000
  H   H3342     1.0  0.51239  0.42798  0.13687  1.0000
  C   C4145     1.0  0.70802  0.26491  0.14156  1.0000
  C   C4146     1.0  0.69049  0.27523  0.13986  1.0000
  C   C4147     1.0  0.67470  0.26897  0.15055  1.0000
  C   C4148     1.0  0.67639  0.25217  0.16274  1.0000
  C   C4149     1.0  0.69391  0.24164  0.16407  1.0000
  C   C4150     1.0  0.70968  0.24804  0.15361  1.0000
  C   C4151     1.0  0.49498  0.41249  0.97055  1.0000
  H   H3343     1.0  0.66126  0.27716  0.14936  1.0000
  H   H3344     1.0  0.69533  0.22870  0.17353  1.0000
  H   H3345     1.0  0.72309  0.24001  0.15494  1.0000
  C   C4152     1.0  0.70076  0.13135  0.03215  1.0000
  C   C4153     1.0  0.70944  0.11301  0.03557  1.0000
  C   C4154     1.0  0.70169  0.09966  0.03251  1.0000
  C   C4155     1.0  0.68529  0.10457  0.02598  1.0000
  C   C4156     1.0  0.67669  0.12290  0.02246  1.0000
  C   C4157     1.0  0.68433  0.13624  0.02566  1.0000
  H   H3346     1.0  0.59812  0.01662  0.96999  1.0000
  H   H3347     1.0  0.70851  0.08551  0.03505  1.0000
  H   H3348     1.0  0.66422  0.12677  0.01717  1.0000
  H   H3349     1.0  0.68911  0.28817  0.13036  1.0000
  C   C4158     1.0  0.59169  0.15415  0.12220  1.0000
  C   C4159     1.0  0.52241  0.14678  0.98017  1.0000
  C   C4160     1.0  0.61076  0.20891  0.21228  1.0000
  C   C4161     1.0  0.71546  0.44565  0.07244  1.0000
  H   H3350     1.0  0.50164  0.41963  0.00997  1.0000
  C   C4162     1.0  0.52433  0.14212  0.19400  1.0000
  H   H3351     1.0  0.58799  0.97148  0.10595  1.0000
  C   C4163     1.0  0.60756  0.98913  0.09791  1.0000
  C   C4164     1.0  0.58458  0.34573  0.17908  1.0000
  H   H3352     1.0  0.58463  0.33184  0.18636  1.0000
  C   C4165     1.0  0.66417  0.04035  0.03865  1.0000
  C   C4166     1.0  0.69330  0.27320  0.18879  1.0000
  H   H3353     1.0  0.69245  0.45897  0.11228  1.0000
  C   C4167     1.0  0.61931  0.46905  0.00317  1.0000
  S   S571      1.0  0.48615  0.41281  0.04985  1.0000
  H   H3354     1.0  0.64397  0.45843  0.13145  1.0000
  C   C4168     1.0  0.71010  0.27878  0.18184  1.0000
  H   H3355     1.0  0.65116  0.09894  0.10880  1.0000
  H   H3356     1.0  0.51145  0.45768  0.08203  1.0000
  H   H3357     1.0  0.52901  0.18620  0.18010  1.0000
  C   C4169     1.0  0.64583  0.01708  0.05057  1.0000
  H   H3358     1.0  0.57625  0.05467  0.99885  1.0000
  P   P141      1.0  0.65930  0.98129  0.06653  1.0000
  C   C4170     1.0  0.49452  0.29533  0.02935  1.0000
  H   H3359     1.0  0.53148  0.30060  0.04271  1.0000
  C   C4171     1.0  0.50201  0.23932  0.16262  1.0000
  H   H3360     1.0  0.65065  0.36435  0.17912  1.0000
  H   H3361     1.0  0.59883  0.99926  0.10543  1.0000
  Fe  Fe288     1.0  0.50315  0.18415  0.13574  1.0000
  H   H3362     1.0  0.62348  0.06057  0.07159  1.0000
  C   C4172     1.0  0.57141  0.37813  0.17645  1.0000
  C   C4173     1.0  0.62798  0.17510  0.20317  1.0000
  H   H3363     1.0  0.53995  0.26885  0.21262  1.0000
  C   C4174     1.0  0.57144  0.36004  0.18570  1.0000
  C   C4175     1.0  0.57282  0.07336  0.97324  1.0000
  C   C4176     1.0  0.55927  0.16647  0.21022  1.0000
  C   C4177     1.0  0.68317  0.44406  0.07842  1.0000
  C   C4178     1.0  0.68012  0.45051  0.09446  1.0000
  C   C4179     1.0  0.69474  0.45416  0.09972  1.0000
  H   H3364     1.0  0.71750  0.97986  0.06483  1.0000
  C   C4180     1.0  0.63633  0.97865  0.07809  1.0000
  H   H3365     1.0  0.50754  0.37581  0.97399  1.0000
  H   H3366     1.0  0.54307  0.15619  0.17275  1.0000
  C   C4181     1.0  0.55786  0.00549  0.99494  1.0000
  S   S572      1.0  0.55521  0.39585  0.18548  1.0000
  C   C4182     1.0  0.66075  0.00481  0.05711  1.0000
  C   C4183     1.0  0.57606  0.45911  0.08690  1.0000
  H   H3367     1.0  0.69213  0.03253  0.04217  1.0000
  Fe  Fe289     1.0  0.55418  0.42417  0.16802  1.0000
  H   H3368     1.0  0.64284  0.05700  0.96732  1.0000
  H   H3369     1.0  0.67183  0.44118  0.07439  1.0000
  H   H3370     1.0  0.66645  0.45273  0.10282  1.0000
  H   H3371     1.0  0.68834  0.12000  0.97045  1.0000
  H   H3372     1.0  0.72660  0.00666  0.06906  1.0000
  C   C4184     1.0  0.70017  0.16849  0.15224  1.0000
  C   C4185     1.0  0.69250  0.17714  0.16703  1.0000
  H   H3373     1.0  0.69146  0.16926  0.18084  1.0000
  C   C4186     1.0  0.68769  0.20620  0.14615  1.0000
  C   C4187     1.0  0.69467  0.19756  0.13114  1.0000
  C   C4188     1.0  0.70135  0.17864  0.13438  1.0000
  P   P142      1.0  0.69610  0.21092  0.10808  1.0000
  C   C4189     1.0  0.67883  0.23166  0.10891  1.0000
  C   C4190     1.0  0.71859  0.21675  0.10103  1.0000
  H   H3374     1.0  0.71077  0.29168  0.17237  1.0000
  C   C4191     1.0  0.59143  0.46210  0.09138  1.0000
  H   H3375     1.0  0.67561  0.22011  0.20738  1.0000
  C   C4192     1.0  0.68332  0.24874  0.10042  1.0000
  C   C4193     1.0  0.67013  0.26471  0.10200  1.0000
  C   C4194     1.0  0.65233  0.26377  0.11188  1.0000
  C   C4195     1.0  0.64767  0.24685  0.12021  1.0000
  C   C4196     1.0  0.66084  0.23085  0.11872  1.0000
  C   C4197     1.0  0.69186  0.19826  0.09320  1.0000
  C   C4198     1.0  0.67547  0.20336  0.08654  1.0000
  C   C4199     1.0  0.67229  0.19354  0.07510  1.0000
  C   C4200     1.0  0.68542  0.17857  0.07015  1.0000
  C   C4201     1.0  0.70172  0.17338  0.07667  1.0000
  C   C4202     1.0  0.70496  0.18317  0.08807  1.0000
  C   C4203     1.0  0.72583  0.03386  0.08526  1.0000
  C   C4204     1.0  0.49892  0.04433  0.12072  1.0000
  C   C4205     1.0  0.65527  0.97301  0.03497  1.0000
  C   C4206     1.0  0.48881  0.25043  0.05674  1.0000
  C   C4207     1.0  0.48638  0.01323  0.09395  1.0000
  C   C4208     1.0  0.48647  0.46314  0.99596  1.0000
  H   H3376     1.0  0.57731  0.18546  0.20134  1.0000
  C   C4209     1.0  0.61590  0.05641  0.96429  1.0000
  H   H3377     1.0  0.69703  0.24985  0.09273  1.0000
  H   H3378     1.0  0.67379  0.27785  0.09571  1.0000
  H   H3379     1.0  0.64217  0.27615  0.11319  1.0000
  H   H3380     1.0  0.63388  0.24616  0.12800  1.0000
  H   H3381     1.0  0.65707  0.21784  0.12543  1.0000
  H   H3382     1.0  0.66512  0.21500  0.08991  1.0000
  H   H3383     1.0  0.65971  0.19764  0.06991  1.0000
  H   H3384     1.0  0.68315  0.17112  0.06104  1.0000
  H   H3385     1.0  0.50945  0.04427  0.10842  1.0000
  H   H3386     1.0  0.71790  0.17911  0.09257  1.0000
  H   H3387     1.0  0.49596  0.07317  0.11903  1.0000
  C   C4210     1.0  0.63702  0.38880  0.16305  1.0000
  C   C4211     1.0  0.53108  0.00208  0.09260  1.0000
  C   C4212     1.0  0.52572  0.00790  0.10931  1.0000
  H   H3388     1.0  0.65455  0.06809  0.06019  1.0000
  C   C4213     1.0  0.50667  0.98789  0.14268  1.0000
  C   C4214     1.0  0.51268  0.29615  0.02856  1.0000
  C   C4215     1.0  0.50730  0.44702  0.09330  1.0000
  C   C4216     1.0  0.52325  0.42354  0.96545  1.0000
  C   C4217     1.0  0.67916  0.02820  0.04484  1.0000
  H   H3389     1.0  0.50606  0.00454  0.16170  1.0000
  C   C4218     1.0  0.55564  0.01576  0.10422  1.0000
  H   H3390     1.0  0.72126  0.02213  0.09465  1.0000
  C   C4219     1.0  0.71237  0.45169  0.08880  1.0000
  S   S573      1.0  0.50650  0.18452  0.10599  1.0000
  C   C4220     1.0  0.49310  0.02819  0.13077  1.0000
  Fe  Fe290     1.0  0.59412  0.27742  0.20110  1.0000
  C   C4221     1.0  0.56162  0.10515  0.97555  1.0000
  C   C4222     1.0  0.52339  0.17456  0.18835  1.0000
  H   H3391     1.0  0.56512  0.02113  0.10870  1.0000
  H   H3392     1.0  0.53204  0.02426  0.99943  1.0000
  H   H3393     1.0  0.70518  0.43197  0.14576  1.0000
  C   C4223     1.0  0.49119  0.06082  0.12657  1.0000
  C   C4224     1.0  0.60377  0.44971  0.18571  1.0000
  C   C4225     1.0  0.49596  0.43622  0.09134  1.0000
  C   C4226     1.0  0.60183  0.14505  0.09295  1.0000
  S   S574      1.0  0.58237  0.29669  0.17792  1.0000
  S   S575      1.0  0.60344  0.25390  0.18671  1.0000
  S   S576      1.0  0.51330  0.21008  0.13114  1.0000
  H   H3394     1.0  0.70759  0.17157  0.12327  1.0000
  C   C4227     1.0  0.71345  0.05059  0.08320  1.0000
  H   H3395     1.0  0.59441  0.45609  0.10483  1.0000
  H   H3396     1.0  0.61945  0.41328  0.15124  1.0000
  S   S577      1.0  0.70980  0.14839  0.03636  1.0000
  C   C4228     1.0  0.49676  0.41926  0.12213  1.0000
  H   H3397     1.0  0.55613  0.11071  0.00260  1.0000
  H   H3398     1.0  0.57632  0.22048  0.19826  1.0000
  H   H3399     1.0  0.70928  0.41874  0.11864  1.0000
  H   H3400     1.0  0.50783  0.30613  0.07009  1.0000
  C   C4229     1.0  0.64348  0.07725  0.06712  1.0000
  H   H3401     1.0  0.70700  0.10517  0.09991  1.0000
  C   C4230     1.0  0.72810  0.20817  0.18793  1.0000
  C   C4231     1.0  0.67754  0.01041  0.05386  1.0000
  H   H3402     1.0  0.55822  0.11932  0.96899  1.0000
  S   S578      1.0  0.72757  0.27353  0.12868  1.0000
  C   C4232     1.0  0.50690  0.17054  0.06804  1.0000
  C   C4233     1.0  0.53741  0.15083  0.98439  1.0000
  C   C4234     1.0  0.71768  0.17436  0.20105  1.0000
  C   C4235     1.0  0.56862  0.17854  0.21298  1.0000
  C   C4236     1.0  0.67851  0.98002  0.09340  1.0000
  C   C4237     1.0  0.64753  0.03483  0.04157  1.0000
  C   C4238     1.0  0.49561  0.22540  0.17638  1.0000
  C   C4239     1.0  0.49075  0.42222  0.10570  1.0000
  H   H3403     1.0  0.70180  0.13064  0.07382  1.0000
  H   H3404     1.0  0.54084  0.14521  0.99775  1.0000
  C   C4240     1.0  0.63630  0.19017  0.19552  1.0000
  H   H3405     1.0  0.58534  0.99013  0.98837  1.0000
  C   C4241     1.0  0.50575  0.21611  0.18994  1.0000
  H   H3406     1.0  0.49848  0.27489  0.08779  1.0000
  C   C4242     1.0  0.54834  0.00367  0.08155  1.0000
  C   C4243     1.0  0.72538  0.25052  0.19838  1.0000
  H   H3407     1.0  0.57456  0.15912  0.10262  1.0000
  C   C4244     1.0  0.62094  0.40230  0.16295  1.0000
  C   C4245     1.0  0.57182  0.06867  0.99220  1.0000
  H   H3408     1.0  0.52213  0.99622  0.08798  1.0000
  H   H3409     1.0  0.50012  0.25601  0.04749  1.0000
  C   C4246     1.0  0.50124  0.16090  0.21287  1.0000
  C   C4247     1.0  0.70080  0.44153  0.06748  1.0000
  H   H3410     1.0  0.52380  0.25438  0.15126  1.0000
  C   C4248     1.0  0.69359  0.10948  0.09631  1.0000
  C   C4249     1.0  0.60740  0.38720  0.19302  1.0000
  H   H3411     1.0  0.72213  0.10914  0.04052  1.0000
  H   H3412     1.0  0.51422  0.13790  0.99025  1.0000
  H   H3413     1.0  0.59792  0.08238  0.08620  1.0000
  H   H3414     1.0  0.67428  0.99470  0.09128  1.0000
  H   H3415     1.0  0.58097  0.16079  0.13192  1.0000
  S   S579      1.0  0.56556  0.44425  0.17610  1.0000
  S   S580      1.0  0.62129  0.28625  0.19265  1.0000
  C   C4250     1.0  0.54639  0.02268  0.99273  1.0000
  C   C4251     1.0  0.50827  0.17643  0.20291  1.0000
  C   C4252     1.0  0.52266  0.22050  0.18914  1.0000
  C   C4253     1.0  0.50949  0.97625  0.17436  1.0000
  H   H3416     1.0  0.50819  0.28886  0.16024  1.0000
  H   H3417     1.0  0.52897  0.42968  0.98890  1.0000
  H   H3418     1.0  0.70297  0.43638  0.05516  1.0000
  C   C4254     1.0  0.49589  0.37018  0.97428  1.0000
  H   H3419     1.0  0.54205  0.23767  0.17470  1.0000
  C   C4255     1.0  0.56040  0.10031  0.99444  1.0000
  C   C4256     1.0  0.50441  0.41871  0.99576  1.0000
  C   C4257     1.0  0.49694  0.35136  0.97997  1.0000
  H   H3420     1.0  0.72354  0.45451  0.09318  1.0000
  H   H3421     1.0  0.70530  0.15390  0.15452  1.0000
  H   H3422     1.0  0.56531  0.07836  0.01729  1.0000
  H   H3423     1.0  0.53463  0.01850  0.12828  1.0000
  C   C4258     1.0  0.71931  0.06605  0.07171  1.0000
  C   C4259     1.0  0.50395  0.30317  0.05878  1.0000
  C   C4260     1.0  0.50739  0.99091  0.15964  1.0000
  H   H3424     1.0  0.62438  0.36278  0.20509  1.0000
  H   H3425     1.0  0.68091  0.28179  0.18471  1.0000
  C   C4261     1.0  0.51985  0.42434  0.98387  1.0000
  P   P143      1.0  0.50327  0.00671  0.12365  1.0000
  C   C4262     1.0  0.61160  0.08536  0.08172  1.0000
  C   C4263     1.0  0.62601  0.07304  0.07355  1.0000
  H   H3426     1.0  0.66006  0.09700  0.06322  1.0000
  C   C4264     1.0  0.64655  0.09374  0.06882  1.0000
  C   C4265     1.0  0.63227  0.10599  0.07741  1.0000
  C   C4266     1.0  0.61469  0.10176  0.08370  1.0000
  P   P144      1.0  0.63696  0.12688  0.07992  1.0000
  C   C4267     1.0  0.61932  0.13706  0.09687  1.0000
  C   C4268     1.0  0.65902  0.12070  0.08656  1.0000
  S   S581      1.0  0.51368  0.23306  0.07851  1.0000
  Fe  Fe291     1.0  0.51896  0.20896  0.10138  1.0000
  H   H3427     1.0  0.66552  0.05396  0.03122  1.0000
  C   C4269     1.0  0.69067  0.12389  0.08162  1.0000
  C   C4270     1.0  0.67354  0.12941  0.07664  1.0000
  C   C4271     1.0  0.62295  0.13805  0.11350  1.0000
  C   C4272     1.0  0.60915  0.14657  0.12610  1.0000
  C   C4273     1.0  0.52892  0.23449  0.17543  1.0000
  C   C4274     1.0  0.63688  0.14383  0.05909  1.0000
  C   C4275     1.0  0.63940  0.16130  0.05867  1.0000
  C   C4276     1.0  0.63888  0.17477  0.04278  1.0000
  C   C4277     1.0  0.63551  0.17098  0.02733  1.0000
  C   C4278     1.0  0.63265  0.15374  0.02777  1.0000
  C   C4279     1.0  0.63324  0.14021  0.04360  1.0000
  C   C4280     1.0  0.66208  0.10610  0.10124  1.0000
  S   S582      1.0  0.52723  0.44324  0.16488  1.0000
  C   C4281     1.0  0.60104  0.44049  0.20389  1.0000
  H   H3428     1.0  0.60326  0.11102  0.09000  1.0000
  C   C4282     1.0  0.62351  0.37395  0.19344  1.0000
  C   C4283     1.0  0.58807  0.15334  0.10565  1.0000
  C   C4284     1.0  0.72353  0.46626  0.00959  1.0000
  H   H3429     1.0  0.67196  0.14016  0.06478  1.0000
  H   H3430     1.0  0.63640  0.13253  0.11672  1.0000
  H   H3431     1.0  0.56095  0.16407  0.19661  1.0000
  H   H3432     1.0  0.64179  0.16447  0.07064  1.0000
  H   H3433     1.0  0.64099  0.18817  0.04247  1.0000
  H   H3434     1.0  0.63501  0.18139  0.01502  1.0000
  H   H3435     1.0  0.62989  0.15084  0.01583  1.0000
  H   H3436     1.0  0.63080  0.12704  0.04365  1.0000
  C   C4285     1.0  0.53218  0.30029  0.15574  1.0000
  C   C4286     1.0  0.51512  0.29990  0.15270  1.0000
  C   C4287     1.0  0.50710  0.31368  0.13980  1.0000
  C   C4288     1.0  0.51626  0.32771  0.12975  1.0000
  C   C4289     1.0  0.53360  0.32797  0.13246  1.0000
  C   C4290     1.0  0.54131  0.31435  0.14583  1.0000
  P   P145      1.0  0.54620  0.34527  0.11869  1.0000
  C   C4291     1.0  0.57033  0.33477  0.11463  1.0000
  C   C4292     1.0  0.53822  0.35407  0.09743  1.0000
  C   C4293     1.0  0.54671  0.34629  0.08206  1.0000
  C   C4294     1.0  0.54016  0.35304  0.06581  1.0000
  C   C4295     1.0  0.52516  0.36760  0.06476  1.0000
  C   C4296     1.0  0.51665  0.37538  0.08000  1.0000
  C   C4297     1.0  0.52299  0.36856  0.09631  1.0000
  C   C4298     1.0  0.58361  0.34373  0.11598  1.0000
  C   C4299     1.0  0.60204  0.33492  0.11430  1.0000
  C   C4300     1.0  0.60738  0.31709  0.11140  1.0000
  C   C4301     1.0  0.59431  0.30809  0.10996  1.0000
  C   C4302     1.0  0.57588  0.31690  0.11146  1.0000
  C   C4303     1.0  0.54281  0.36377  0.13026  1.0000
  C   C4304     1.0  0.53821  0.36096  0.14938  1.0000
  C   C4305     1.0  0.53604  0.37534  0.15814  1.0000
  C   C4306     1.0  0.53859  0.39251  0.14792  1.0000
  C   C4307     1.0  0.54349  0.39532  0.12892  1.0000
  C   C4308     1.0  0.54562  0.38103  0.12010  1.0000
  H   H3437     1.0  0.53865  0.28947  0.16547  1.0000
  Fe  Fe292     1.0  0.61031  0.30355  0.16818  1.0000
  H   H3438     1.0  0.49136  0.43867  0.07864  1.0000
  H   H3439     1.0  0.50989  0.33812  0.11969  1.0000
  H   H3440     1.0  0.55465  0.31425  0.14826  1.0000
  H   H3441     1.0  0.55833  0.33503  0.08255  1.0000
  H   H3442     1.0  0.54671  0.34701  0.05397  1.0000
  H   H3443     1.0  0.52006  0.37286  0.05218  1.0000
  H   H3444     1.0  0.55964  0.25187  0.18912  1.0000
  H   H3445     1.0  0.51592  0.37468  0.10800  1.0000
  H   H3446     1.0  0.57983  0.35729  0.11886  1.0000
  H   H3447     1.0  0.61210  0.34169  0.11596  1.0000
  H   H3448     1.0  0.62158  0.31013  0.11071  1.0000
  H   H3449     1.0  0.59830  0.29405  0.10827  1.0000
  H   H3450     1.0  0.56590  0.30948  0.11081  1.0000
  H   H3451     1.0  0.53651  0.34770  0.15756  1.0000
  H   H3452     1.0  0.53275  0.37316  0.17291  1.0000
  H   H3453     1.0  0.53697  0.40359  0.15475  1.0000
  H   H3454     1.0  0.54557  0.40864  0.12103  1.0000
  H   H3455     1.0  0.54956  0.38346  0.10536  1.0000
  C   C4309     1.0  0.55791  0.24531  0.20344  1.0000
  S   S583      1.0  0.52769  0.45792  0.11144  1.0000
  C   C4310     1.0  0.59789  0.34947  0.16332  1.0000
  C   C4311     1.0  0.57197  0.46703  0.06969  1.0000
  H   H3456     1.0  0.59563  0.38627  0.20418  1.0000
  C   C4312     1.0  0.60626  0.40148  0.17791  1.0000
  C   C4313     1.0  0.53143  0.15746  0.18403  1.0000
  H   H3457     1.0  0.55230  0.99928  0.06858  1.0000
  C   C4314     1.0  0.51337  0.44406  0.10966  1.0000
  H   H3458     1.0  0.56134  0.35711  0.19805  1.0000
  C   C4315     1.0  0.63169  0.39944  0.09886  1.0000
  C   C4316     1.0  0.62905  0.41841  0.09359  1.0000
  C   C4317     1.0  0.63493  0.42832  0.10305  1.0000
  C   C4318     1.0  0.64339  0.41930  0.11779  1.0000
  C   C4319     1.0  0.64621  0.40022  0.12314  1.0000
  C   C4320     1.0  0.64016  0.39036  0.11362  1.0000
  P   P146      1.0  0.65563  0.38904  0.14330  1.0000
  C   C4321     1.0  0.66700  0.36565  0.14216  1.0000
  C   C4322     1.0  0.67160  0.40216  0.14453  1.0000
  C   C4323     1.0  0.66950  0.40949  0.15998  1.0000
  C   C4324     1.0  0.68156  0.42023  0.16038  1.0000
  C   C4325     1.0  0.69588  0.42355  0.14549  1.0000
  C   C4326     1.0  0.69812  0.41620  0.13014  1.0000
  C   C4327     1.0  0.68581  0.40589  0.12947  1.0000
  C   C4328     1.0  0.65640  0.35238  0.14512  1.0000
  C   C4329     1.0  0.66484  0.33417  0.14487  1.0000
  C   C4330     1.0  0.68396  0.32899  0.14177  1.0000
  C   C4331     1.0  0.69465  0.34201  0.13897  1.0000
  C   C4332     1.0  0.68625  0.36024  0.13924  1.0000
  H   H3459     1.0  0.62687  0.39177  0.09171  1.0000
  H   H3460     1.0  0.62213  0.42547  0.08242  1.0000
  H   H3461     1.0  0.63238  0.44307  0.09942  1.0000
  H   H3462     1.0  0.64711  0.42734  0.12539  1.0000
  H   H3463     1.0  0.64167  0.37573  0.11763  1.0000
  H   H3464     1.0  0.65846  0.40716  0.17163  1.0000
  C   C4333     1.0  0.69253  0.25619  0.20039  1.0000
  C   C4334     1.0  0.48692  0.25715  0.11152  1.0000
  H   H3465     1.0  0.68312  0.22084  0.14420  1.0000
  H   H3466     1.0  0.68741  0.40076  0.11724  1.0000
  H   H3467     1.0  0.64153  0.35604  0.14784  1.0000
  H   H3468     1.0  0.65647  0.32407  0.14722  1.0000
  H   H3469     1.0  0.69051  0.31486  0.14164  1.0000
  C   C4335     1.0  0.48720  0.00347  0.11180  1.0000
  H   H3470     1.0  0.69491  0.36986  0.13742  1.0000
  S   S584      1.0  0.72102  0.46931  0.12605  1.0000
  H   H3471     1.0  0.69937  0.05167  0.09063  1.0000
  C   C4336     1.0  0.56061  0.01053  0.08733  1.0000
  H   H3472     1.0  0.49966  0.24721  0.11149  1.0000
  H   H3473     1.0  0.57397  0.01171  0.07871  1.0000
  H   H3474     1.0  0.58882  0.99642  0.03481  1.0000
  C   C4337     1.0  0.56555  0.08208  0.00274  1.0000
  S   S585      1.0  0.61637  0.98256  0.00541  1.0000
  C   C4338     1.0  0.57640  0.00345  0.98649  1.0000
  C   C4339     1.0  0.53833  0.01433  0.11524  1.0000
  C   C4340     1.0  0.73030  0.21362  0.08443  1.0000
  H   H3475     1.0  0.70980  0.07907  0.07016  1.0000
  C   C4341     1.0  0.51739  0.30007  0.04327  1.0000
  C   C4342     1.0  0.72414  0.22543  0.11203  1.0000
  C   C4343     1.0  0.48568  0.30227  0.05972  1.0000
  H   H3476     1.0  0.67977  0.42607  0.17221  1.0000
  C   C4344     1.0  0.67930  0.10056  0.10611  1.0000
  H   H3477     1.0  0.62967  0.00369  0.08819  1.0000
  H   H3478     1.0  0.52311  0.29360  0.01662  1.0000
  H   H3479     1.0  0.60368  0.42574  0.20708  1.0000
  C   C4345     1.0  0.62775  0.20701  0.20018  1.0000
  H   H3480     1.0  0.49436  0.24626  0.15200  1.0000
  C   C4346     1.0  0.63834  0.37482  0.17860  1.0000
  C   C4347     1.0  0.62500  0.99165  0.08800  1.0000
  H   H3481     1.0  0.71520  0.22842  0.12464  1.0000
  C   C4348     1.0  0.68643  0.19602  0.16398  1.0000
  H   H3482     1.0  0.51855  0.16016  0.07171  1.0000
  C   C4349     1.0  0.51861  0.24391  0.16218  1.0000
  H   H3483     1.0  0.59363  0.41151  0.17744  1.0000
  H   H3484     1.0  0.71199  0.16188  0.07265  1.0000
  H   H3485     1.0  0.68160  0.08926  0.11740  1.0000
  C   C4350     1.0  0.70865  0.24456  0.20504  1.0000
  H   H3486     1.0  0.54444  0.05110  0.98052  1.0000
  H   H3487     1.0  0.56001  0.16485  0.97455  1.0000
  H   H3488     1.0  0.63424  0.21867  0.19433  1.0000
  H   H3489     1.0  0.63468  0.16199  0.19971  1.0000
  C   C4351     1.0  0.57211  0.03587  0.97346  1.0000
  H   H3490     1.0  0.72630  0.20754  0.07528  1.0000
  H   H3491     1.0  0.64938  0.18884  0.18601  1.0000
  H   H3492     1.0  0.50921  0.34270  0.98420  1.0000
  H   H3493     1.0  0.68077  0.20288  0.17539  1.0000
  H   H3494     1.0  0.64094  0.97955  0.03823  1.0000
  C   C4352     1.0  0.56753  0.22760  0.20869  1.0000
  C   C4353     1.0  0.49203  0.41277  0.98917  1.0000
  H   H3495     1.0  0.56717  0.45081  0.09685  1.0000
  C   C4354     1.0  0.50929  0.14383  0.20847  1.0000
  H   H3496     1.0  0.54903  0.45966  0.20851  1.0000
  H   H3497     1.0  0.49276  0.40846  0.13330  1.0000
  C   C4355     1.0  0.72405  0.46163  0.02818  1.0000
  P   P147      1.0  0.49728  0.19860  0.20820  1.0000
  H   H3498     1.0  0.53110  0.21300  0.19900  1.0000
  C   C4356     1.0  0.54818  0.16201  0.97131  1.0000
  C   C4357     1.0  0.72917  0.17785  0.18393  1.0000
  C   C4358     1.0  0.71629  0.20492  0.20500  1.0000
  C   C4359     1.0  0.56776  0.09175  0.96497  1.0000
  C   C4360     1.0  0.66711  0.97080  0.04690  1.0000
  H   H3499     1.0  0.69350  0.97858  0.11407  1.0000
  C   C4361     1.0  0.71120  0.18785  0.21153  1.0000
  C   C4362     1.0  0.73073  0.97850  0.06810  1.0000
  C   C4363     1.0  0.68922  0.97093  0.10647  1.0000
  H   H3500     1.0  0.71382  0.16119  0.20623  1.0000
  H   H3501     1.0  0.49392  0.31336  0.13737  1.0000
  Fe  Fe293     1.0  0.53988  0.46398  0.17044  1.0000
  H   H3502     1.0  0.49082  0.29217  0.01803  1.0000
  C   C4364     1.0  0.48902  0.16756  0.07526  1.0000
  C   C4365     1.0  0.72610  0.26751  0.18679  1.0000
  H   H3503     1.0  0.50945  0.97874  0.18757  1.0000
  H   H3504     1.0  0.48486  0.36591  0.07135  1.0000
  C   C4366     1.0  0.49480  0.20084  0.05260  1.0000
  H   H3505     1.0  0.61987  0.45532  0.00182  1.0000
  H   H3506     1.0  0.49703  0.21397  0.04431  1.0000
  C   C4367     1.0  0.49171  0.23847  0.07316  1.0000
  C   C4368     1.0  0.59995  0.46876  0.18146  1.0000
  H   H3507     1.0  0.61560  0.46208  0.03235  1.0000
  C   C4369     1.0  0.48620  0.27304  0.09802  1.0000
  H   H3508     1.0  0.48716  0.15485  0.08464  1.0000
  H   H3509     1.0  0.73411  0.16748  0.17570  1.0000
  H   H3510     1.0  0.59405  0.34192  0.21406  1.0000
  C   C4370     1.0  0.59134  0.46939  0.21368  1.0000
  S   S586      1.0  0.52513  0.02974  0.39293  1.0000
  S   S587      1.0  0.69708  0.21427  0.38554  1.0000
  Fe  Fe294     1.0  0.67627  0.01603  0.44750  1.0000
  S   S588      1.0  0.66380  0.03832  0.42677  1.0000
  C   C4371     1.0  0.60108  0.99377  0.42866  1.0000
  H   H3511     1.0  0.53656  0.25412  0.24541  1.0000
  C   C4372     1.0  0.53054  0.03020  0.44379  1.0000
  S   S589      1.0  0.61109  0.04430  0.44246  1.0000
  Fe  Fe295     1.0  0.67364  0.05702  0.43848  1.0000
  S   S590      1.0  0.68772  0.07899  0.41950  1.0000
  H   H3512     1.0  0.50860  0.17569  0.27102  1.0000
  C   C4373     1.0  0.61783  0.99353  0.43293  1.0000
  C   C4374     1.0  0.62904  0.30007  0.43026  1.0000
  S   S591      1.0  0.64745  0.06207  0.45900  1.0000
  C   C4375     1.0  0.53146  0.42197  0.25935  1.0000
  H   H3513     1.0  0.60498  0.33643  0.44935  1.0000
  Fe  Fe296     1.0  0.59619  0.23672  0.32594  1.0000
  S   S592      1.0  0.56541  0.24263  0.33159  1.0000
  S   S593      1.0  0.61371  0.23906  0.29737  1.0000
  Fe  Fe297     1.0  0.59799  0.22781  0.36615  1.0000
  S   S594      1.0  0.56723  0.23333  0.37481  1.0000
  S   S595      1.0  0.61249  0.21824  0.38999  1.0000
  Fe  Fe298     1.0  0.56768  0.21784  0.35380  1.0000
  S   S596      1.0  0.54832  0.19826  0.36133  1.0000
  Fe  Fe299     1.0  0.56746  0.25771  0.35196  1.0000
  S   S597      1.0  0.54733  0.28446  0.35325  1.0000
  S   S598      1.0  0.59845  0.21034  0.34673  1.0000
  S   S599      1.0  0.59824  0.25364  0.34494  1.0000
  Fe  Fe300     1.0  0.51736  0.10850  0.31281  1.0000
  S   S600      1.0  0.52270  0.12885  0.28666  1.0000
  S   S601      1.0  0.53563  0.08060  0.31474  1.0000
  C   C4376     1.0  0.67362  0.25390  0.40809  1.0000
  C   C4377     1.0  0.71420  0.04640  0.39526  1.0000
  C   C4378     1.0  0.54036  0.46927  0.21659  1.0000
  H   H3514     1.0  0.71204  0.24372  0.24319  1.0000
  H   H3515     1.0  0.54728  0.41184  0.44611  1.0000
  Fe  Fe301     1.0  0.51631  0.14939  0.30445  1.0000
  S   S602      1.0  0.53135  0.17276  0.29673  1.0000
  H   H3516     1.0  0.56348  0.30407  0.25196  1.0000
  S   S603      1.0  0.51356  0.12859  0.33063  1.0000
  C   C4379     1.0  0.59164  0.18207  0.40780  1.0000
  H   H3517     1.0  0.54071  0.29008  0.42420  1.0000
  C   C4380     1.0  0.54973  0.41761  0.28205  1.0000
  H   H3518     1.0  0.69446  0.01682  0.40991  1.0000
  C   C4381     1.0  0.49505  0.26157  0.40745  1.0000
  S   S604      1.0  0.57591  0.27509  0.22919  1.0000
  C   C4382     1.0  0.65697  0.26565  0.40561  1.0000
  Fe  Fe302     1.0  0.54242  0.35406  0.41296  1.0000
  S   S605      1.0  0.52125  0.37270  0.39783  1.0000
  S   S606      1.0  0.56173  0.32874  0.40504  1.0000
  Fe  Fe303     1.0  0.53278  0.39489  0.40224  1.0000
  S   S607      1.0  0.54250  0.41681  0.37935  1.0000
  S   S608      1.0  0.55531  0.37607  0.41539  1.0000
  C   C4383     1.0  0.50911  0.01005  0.45796  1.0000
  C   C4384     1.0  0.55465  0.37708  0.31657  1.0000
  C   C4385     1.0  0.65380  0.15666  0.44640  1.0000
  P   P148      1.0  0.61891  0.27702  0.41339  1.0000
  C   C4386     1.0  0.67386  0.23835  0.42195  1.0000
  H   H3519     1.0  0.60147  0.25721  0.39659  1.0000
  H   H3520     1.0  0.57997  0.03727  0.43284  1.0000
  C   C4387     1.0  0.52569  0.43547  0.37233  1.0000
  C   C4388     1.0  0.53134  0.45027  0.35940  1.0000
  C   C4389     1.0  0.48921  0.31128  0.42419  1.0000
  C   C4390     1.0  0.53089  0.30421  0.27652  1.0000
  C   C4391     1.0  0.49395  0.45090  0.37290  1.0000
  C   C4392     1.0  0.50696  0.43578  0.37921  1.0000
  H   H3521     1.0  0.54577  0.45029  0.35445  1.0000
  Fe  Fe304     1.0  0.57279  0.97595  0.41223  1.0000
  C   C4393     1.0  0.55454  0.17329  0.24512  1.0000
  H   H3522     1.0  0.50251  0.42439  0.38926  1.0000
  H   H3523     1.0  0.65891  0.16723  0.44935  1.0000
  Fe  Fe305     1.0  0.71403  0.16131  0.43739  1.0000
  H   H3524     1.0  0.55242  0.02964  0.28233  1.0000
  C   C4394     1.0  0.58227  0.42881  0.38990  1.0000
  C   C4395     1.0  0.67211  0.21932  0.22201  1.0000
  C   C4396     1.0  0.48790  0.00876  0.32975  1.0000
  C   C4397     1.0  0.49229  0.24372  0.41488  1.0000
  H   H3525     1.0  0.56493  0.41006  0.34014  1.0000
  S   S609      1.0  0.69969  0.19027  0.43817  1.0000
  H   H3526     1.0  0.50062  0.22995  0.22132  1.0000
  C   C4398     1.0  0.55095  0.29668  0.36791  1.0000
  C   C4399     1.0  0.53919  0.31332  0.37043  1.0000
  C   C4400     1.0  0.54217  0.32333  0.38193  1.0000
  C   C4401     1.0  0.55698  0.31669  0.39084  1.0000
  C   C4402     1.0  0.56850  0.29993  0.38848  1.0000
  C   C4403     1.0  0.56556  0.28996  0.37703  1.0000
  H   H3527     1.0  0.52774  0.31846  0.36356  1.0000
  H   H3528     1.0  0.53304  0.33612  0.38389  1.0000
  H   H3529     1.0  0.57967  0.29456  0.39569  1.0000
  H   H3530     1.0  0.57461  0.27706  0.37529  1.0000
  C   C4404     1.0  0.60302  0.24960  0.27857  1.0000
  C   C4405     1.0  0.61391  0.25364  0.26111  1.0000
  C   C4406     1.0  0.60578  0.26131  0.24580  1.0000
  C   C4407     1.0  0.58667  0.26523  0.24793  1.0000
  C   C4408     1.0  0.57576  0.26140  0.26538  1.0000
  C   C4409     1.0  0.58390  0.25356  0.28063  1.0000
  H   H3531     1.0  0.62869  0.25091  0.25942  1.0000
  H   H3532     1.0  0.61431  0.26430  0.23239  1.0000
  H   H3533     1.0  0.56098  0.26437  0.26707  1.0000
  H   H3534     1.0  0.57538  0.25036  0.29389  1.0000
  C   C4410     1.0  0.54346  0.19168  0.34315  1.0000
  C   C4411     1.0  0.54994  0.19949  0.32496  1.0000
  C   C4412     1.0  0.54587  0.19382  0.31077  1.0000
  C   C4413     1.0  0.53558  0.18017  0.31471  1.0000
  C   C4414     1.0  0.52881  0.17268  0.33288  1.0000
  C   C4415     1.0  0.53273  0.17845  0.34703  1.0000
  H   H3535     1.0  0.55827  0.20968  0.32181  1.0000
  H   H3536     1.0  0.55106  0.19973  0.29672  1.0000
  H   H3537     1.0  0.52073  0.16228  0.33606  1.0000
  H   H3538     1.0  0.52776  0.17234  0.36101  1.0000
  C   C4416     1.0  0.49379  0.18344  0.39453  1.0000
  H   H3539     1.0  0.65829  0.21749  0.27421  1.0000
  S   S610      1.0  0.70079  0.13831  0.45563  1.0000
  H   H3540     1.0  0.49402  0.08404  0.26337  1.0000
  C   C4417     1.0  0.49970  0.46547  0.35949  1.0000
  H   H3541     1.0  0.63534  0.21633  0.25734  1.0000
  C   C4418     1.0  0.60192  0.19408  0.21932  1.0000
  C   C4419     1.0  0.49044  0.46363  0.23656  1.0000
  C   C4420     1.0  0.51604  0.41963  0.27322  1.0000
  C   C4421     1.0  0.50680  0.18753  0.26016  1.0000
  C   C4422     1.0  0.65030  0.15840  0.42911  1.0000
  C   C4423     1.0  0.70364  0.97937  0.33520  1.0000
  C   C4424     1.0  0.56245  0.35905  0.32348  1.0000
  H   H3542     1.0  0.51061  0.20569  0.27521  1.0000
  H   H3543     1.0  0.48457  0.00443  0.31891  1.0000
  C   C4425     1.0  0.54286  0.46816  0.23426  1.0000
  C   C4426     1.0  0.67357  0.21524  0.38683  1.0000
  C   C4427     1.0  0.66556  0.22454  0.37172  1.0000
  C   C4428     1.0  0.64689  0.22537  0.37233  1.0000
  C   C4429     1.0  0.63604  0.21729  0.38825  1.0000
  C   C4430     1.0  0.64395  0.20836  0.40344  1.0000
  C   C4431     1.0  0.66271  0.20706  0.40266  1.0000
  H   H3544     1.0  0.67391  0.23090  0.35944  1.0000
  H   H3545     1.0  0.64087  0.23234  0.36058  1.0000
  H   H3546     1.0  0.63552  0.20234  0.41586  1.0000
  H   H3547     1.0  0.66872  0.19994  0.41437  1.0000
  C   C4432     1.0  0.69944  0.10979  0.41864  1.0000
  C   C4433     1.0  0.69121  0.09542  0.42963  1.0000
  H   H3548     1.0  0.70346  0.11070  0.40403  1.0000
  C   C4434     1.0  0.53020  0.04396  0.37146  1.0000
  C   C4435     1.0  0.52212  0.06249  0.36931  1.0000
  C   C4436     1.0  0.52418  0.07395  0.35198  1.0000
  C   C4437     1.0  0.53446  0.06689  0.33674  1.0000
  C   C4438     1.0  0.54331  0.04850  0.33900  1.0000
  C   C4439     1.0  0.54119  0.03702  0.35636  1.0000
  H   H3549     1.0  0.51389  0.06786  0.38105  1.0000
  H   H3550     1.0  0.51752  0.08814  0.35033  1.0000
  H   H3551     1.0  0.55144  0.04302  0.32725  1.0000
  H   H3552     1.0  0.54759  0.02273  0.35794  1.0000
  C   C4440     1.0  0.58740  0.00959  0.42866  1.0000
  C   C4441     1.0  0.59055  0.02506  0.43291  1.0000
  C   C4442     1.0  0.60740  0.02482  0.43707  1.0000
  C   C4443     1.0  0.62106  0.00902  0.43699  1.0000
  H   H3553     1.0  0.54071  0.14797  0.22289  1.0000
  H   H3554     1.0  0.68997  0.21967  0.25809  1.0000
  H   H3555     1.0  0.64400  0.21801  0.22389  1.0000
  C   C4444     1.0  0.52438  0.98260  0.26953  1.0000
  C   C4445     1.0  0.54671  0.38339  0.34704  1.0000
  C   C4446     1.0  0.51938  0.25042  0.38360  1.0000
  C   C4447     1.0  0.56961  0.44533  0.38865  1.0000
  C   C4448     1.0  0.55172  0.41027  0.45874  1.0000
  C   C4449     1.0  0.48686  0.21756  0.31696  1.0000
  H   H3556     1.0  0.48819  0.01317  0.41191  1.0000
  C   C4450     1.0  0.48603  0.08707  0.41186  1.0000
  H   H3557     1.0  0.50171  0.21545  0.41308  1.0000
  H   H3558     1.0  0.60676  0.31370  0.39184  1.0000
  H   H3559     1.0  0.69280  0.06247  0.35912  1.0000
  H   H3560     1.0  0.51814  0.16240  0.39571  1.0000
  C   C4451     1.0  0.55850  0.42425  0.46185  1.0000
  C   C4452     1.0  0.51910  0.31353  0.42731  1.0000
  C   C4453     1.0  0.71205  0.00413  0.38827  1.0000
  H   H3561     1.0  0.57931  0.41721  0.38651  1.0000
  C   C4454     1.0  0.53425  0.41550  0.29608  1.0000
  S   S611      1.0  0.54427  0.98773  0.42536  1.0000
  C   C4455     1.0  0.62772  0.01774  0.38869  1.0000
  H   H3562     1.0  0.58553  0.30243  0.42549  1.0000
  C   C4456     1.0  0.56691  0.18148  0.23061  1.0000
  Fe  Fe306     1.0  0.72674  0.19422  0.44135  1.0000
  H   H3563     1.0  0.51333  0.34035  0.33831  1.0000
  H   H3564     1.0  0.68638  0.25664  0.39912  1.0000
  H   H3565     1.0  0.50705  0.44630  0.42231  1.0000
  C   C4457     1.0  0.59470  0.45034  0.21787  1.0000
  H   H3566     1.0  0.58685  0.16496  0.37324  1.0000
  H   H3567     1.0  0.59365  0.00688  0.31476  1.0000
  H   H3568     1.0  0.61483  0.44098  0.40456  1.0000
  H   H3569     1.0  0.52802  0.32120  0.42956  1.0000
  C   C4458     1.0  0.66389  0.09772  0.38566  1.0000
  C   C4459     1.0  0.51204  0.06919  0.28183  1.0000
  H   H3570     1.0  0.57614  0.24082  0.40867  1.0000
  C   C4460     1.0  0.49523  0.09967  0.39887  1.0000
  C   C4461     1.0  0.72435  0.97195  0.39677  1.0000
  C   C4462     1.0  0.64224  0.12862  0.43831  1.0000
  C   C4463     1.0  0.62060  0.28607  0.38920  1.0000
  C   C4464     1.0  0.49246  0.10424  0.38096  1.0000
  C   C4465     1.0  0.63964  0.02696  0.39203  1.0000
  C   C4466     1.0  0.64442  0.12382  0.39760  1.0000
  C   C4467     1.0  0.57844  0.32227  0.23159  1.0000
  C   C4468     1.0  0.56318  0.42315  0.33099  1.0000
  H   H3571     1.0  0.49124  0.25309  0.44965  1.0000
  H   H3572     1.0  0.56008  0.23853  0.44109  1.0000
  C   C4469     1.0  0.58368  0.17953  0.39448  1.0000
  H   H3573     1.0  0.52560  0.22143  0.38524  1.0000
  C   C4470     1.0  0.70370  0.98829  0.41960  1.0000
  H   H3574     1.0  0.49792  0.00417  0.45736  1.0000
  C   C4471     1.0  0.63433  0.00045  0.38442  1.0000
  S   S612      1.0  0.51337  0.39855  0.42880  1.0000
  H   H3575     1.0  0.53530  0.25865  0.31187  1.0000
  C   C4472     1.0  0.68528  0.22002  0.23143  1.0000
  H   H3576     1.0  0.59262  0.47030  0.40221  1.0000
  C   C4473     1.0  0.70236  0.12307  0.42647  1.0000
  C   C4474     1.0  0.61464  0.29535  0.42544  1.0000
  C   C4475     1.0  0.54357  0.30025  0.28794  1.0000
  S   S613      1.0  0.69138  0.98828  0.44216  1.0000
  H   H3577     1.0  0.56833  0.33919  0.34757  1.0000
  H   H3578     1.0  0.67952  0.08332  0.45695  1.0000
  H   H3579     1.0  0.60464  0.16518  0.22098  1.0000
  C   C4476     1.0  0.59144  0.26302  0.44058  1.0000
  C   C4477     1.0  0.68918  0.10743  0.45634  1.0000
  S   S614      1.0  0.56998  0.99067  0.38379  1.0000
  C   C4478     1.0  0.66227  0.21785  0.25964  1.0000
  S   S615      1.0  0.53019  0.97773  0.39270  1.0000
  H   H3580     1.0  0.68587  0.05526  0.39297  1.0000
  H   H3581     1.0  0.69277  0.18820  0.35557  1.0000
  H   H3582     1.0  0.56017  0.42296  0.25299  1.0000
  C   C4479     1.0  0.51841  0.46515  0.35291  1.0000
  C   C4480     1.0  0.55911  0.45762  0.30819  1.0000
  H   H3583     1.0  0.50757  0.25900  0.34149  1.0000
  H   H3584     1.0  0.49511  0.33500  0.42958  1.0000
  H   H3585     1.0  0.67719  0.09123  0.37894  1.0000
  H   H3586     1.0  0.57443  0.00991  0.42535  1.0000
  H   H3587     1.0  0.65186  0.07407  0.39105  1.0000
  C   C4481     1.0  0.59335  0.32042  0.43785  1.0000
  C   C4482     1.0  0.69035  0.98075  0.35118  1.0000
  H   H3588     1.0  0.58481  0.19258  0.41558  1.0000
  C   C4483     1.0  0.56238  0.35318  0.34214  1.0000
  C   C4484     1.0  0.64929  0.21719  0.25013  1.0000
  C   C4485     1.0  0.50251  0.21793  0.23197  1.0000
  H   H3589     1.0  0.51363  0.26537  0.29101  1.0000
  H   H3590     1.0  0.53032  0.42492  0.24514  1.0000
  C   C4486     1.0  0.51051  0.45860  0.41309  1.0000
  H   H3591     1.0  0.63417  0.00873  0.43998  1.0000
  C   C4487     1.0  0.49883  0.03864  0.28181  1.0000
  C   C4488     1.0  0.56626  0.21943  0.22725  1.0000
  Fe  Fe307     1.0  0.63893  0.04117  0.44897  1.0000
  H   H3592     1.0  0.50939  0.02761  0.43142  1.0000
  C   C4489     1.0  0.55440  0.22879  0.24045  1.0000
  C   C4490     1.0  0.50346  0.22926  0.40703  1.0000
  H   H3593     1.0  0.58382  0.02657  0.28675  1.0000
  H   H3594     1.0  0.71083  0.04330  0.41004  1.0000
  C   C4491     1.0  0.51700  0.23260  0.39140  1.0000
  C   C4492     1.0  0.61545  0.31138  0.36382  1.0000
  C   C4493     1.0  0.62421  0.29990  0.35150  1.0000
  C   C4494     1.0  0.63093  0.28147  0.35796  1.0000
  C   C4495     1.0  0.62915  0.27458  0.37672  1.0000
  C   C4496     1.0  0.70260  0.00430  0.40631  1.0000
  H   H3595     1.0  0.60997  0.32562  0.35889  1.0000
  H   H3596     1.0  0.62573  0.30530  0.33697  1.0000
  H   H3597     1.0  0.63758  0.27245  0.34848  1.0000
  C   C4497     1.0  0.60660  0.28675  0.29701  1.0000
  C   C4498     1.0  0.60692  0.28989  0.31390  1.0000
  C   C4499     1.0  0.59178  0.30075  0.32304  1.0000
  C   C4500     1.0  0.57652  0.30890  0.31503  1.0000
  C   C4501     1.0  0.57622  0.30606  0.29786  1.0000
  C   C4502     1.0  0.59128  0.29466  0.28907  1.0000
  P   P149      1.0  0.55710  0.31670  0.28660  1.0000
  C   C4503     1.0  0.54126  0.33445  0.29731  1.0000
  C   C4504     1.0  0.56777  0.32529  0.26332  1.0000
  C   C4505     1.0  0.56910  0.31620  0.24929  1.0000
  H   H3598     1.0  0.50455  0.10582  0.40267  1.0000
  C   C4506     1.0  0.58675  0.33730  0.22778  1.0000
  C   C4507     1.0  0.58595  0.34613  0.24174  1.0000
  C   C4508     1.0  0.57675  0.33998  0.25949  1.0000
  C   C4509     1.0  0.53214  0.33014  0.31558  1.0000
  C   C4510     1.0  0.51995  0.34371  0.32409  1.0000
  C   C4511     1.0  0.51623  0.36156  0.31426  1.0000
  C   C4512     1.0  0.52452  0.36578  0.29584  1.0000
  C   C4513     1.0  0.53689  0.35230  0.28735  1.0000
  H   H3599     1.0  0.55485  0.98205  0.46362  1.0000
  H   H3600     1.0  0.58429  0.43118  0.33919  1.0000
  H   H3601     1.0  0.64297  0.29249  0.42733  1.0000
  H   H3602     1.0  0.55285  0.22259  0.25483  1.0000
  H   H3603     1.0  0.57198  0.99001  0.33820  1.0000
  C   C4514     1.0  0.57982  0.00829  0.31286  1.0000
  H   H3604     1.0  0.61808  0.27781  0.29021  1.0000
  H   H3605     1.0  0.61866  0.28333  0.32017  1.0000
  H   H3606     1.0  0.59162  0.30252  0.33655  1.0000
  H   H3607     1.0  0.56509  0.31712  0.32252  1.0000
  H   H3608     1.0  0.59124  0.29181  0.27605  1.0000
  C   C4515     1.0  0.49589  0.02022  0.35793  1.0000
  H   H3609     1.0  0.51080  0.39087  0.34694  1.0000
  C   C4516     1.0  0.49115  0.22013  0.36148  1.0000
  H   H3610     1.0  0.59265  0.35760  0.23881  1.0000
  H   H3611     1.0  0.57677  0.34658  0.27028  1.0000
  H   H3612     1.0  0.53455  0.31628  0.32335  1.0000
  C   C4517     1.0  0.49642  0.29361  0.42081  1.0000
  H   H3613     1.0  0.72972  0.98507  0.44453  1.0000
  H   H3614     1.0  0.52131  0.37951  0.28806  1.0000
  H   H3615     1.0  0.54267  0.35590  0.27297  1.0000
  H   H3616     1.0  0.70244  0.16247  0.37986  1.0000
  C   C4518     1.0  0.60220  0.44221  0.40010  1.0000
  H   H3617     1.0  0.49940  0.11415  0.37088  1.0000
  H   H3618     1.0  0.49964  0.06251  0.32550  1.0000
  H   H3619     1.0  0.55421  0.28075  0.31021  1.0000
  C   C4519     1.0  0.49625  0.15278  0.39062  1.0000
  C   C4520     1.0  0.56758  0.99882  0.32611  1.0000
  C   C4521     1.0  0.54831  0.42084  0.26377  1.0000
  C   C4522     1.0  0.51500  0.28588  0.42116  1.0000
  C   C4523     1.0  0.68022  0.21924  0.25037  1.0000
  H   H3620     1.0  0.57954  0.32849  0.44047  1.0000
  H   H3621     1.0  0.55354  0.45776  0.23964  1.0000
  H   H3622     1.0  0.53595  0.03990  0.43211  1.0000
  H   H3623     1.0  0.61322  0.02377  0.38994  1.0000
  C   C4524     1.0  0.51739  0.41641  0.29153  1.0000
  C   C4525     1.0  0.70389  0.05743  0.36654  1.0000
  H   H3624     1.0  0.55194  0.17627  0.25860  1.0000
  H   H3625     1.0  0.57053  0.18785  0.39211  1.0000
  H   H3626     1.0  0.72521  0.05849  0.34232  1.0000
  C   C4526     1.0  0.50572  0.21971  0.24841  1.0000
  C   C4527     1.0  0.50399  0.16580  0.39405  1.0000
  Fe  Fe308     1.0  0.49239  0.13395  0.28826  1.0000
  H   H3627     1.0  0.71947  0.24382  0.37170  1.0000
  H   H3628     1.0  0.54063  0.39265  0.35638  1.0000
  C   C4528     1.0  0.58020  0.24722  0.41758  1.0000
  H   H3629     1.0  0.53639  0.15422  0.25372  1.0000
  H   H3630     1.0  0.50033  0.19354  0.39634  1.0000
  Fe  Fe309     1.0  0.54073  0.00072  0.39670  1.0000
  H   H3631     1.0  0.50671  0.23285  0.25016  1.0000
  H   H3632     1.0  0.61703  0.12008  0.41187  1.0000
  C   C4529     1.0  0.65418  0.21805  0.23132  1.0000
  H   H3633     1.0  0.58074  0.46178  0.31885  1.0000
  C   C4530     1.0  0.65742  0.23440  0.43326  1.0000
  C   C4531     1.0  0.65298  0.99217  0.38354  1.0000
  C   C4532     1.0  0.48653  0.46564  0.25468  1.0000
  C   C4533     1.0  0.50392  0.18562  0.24366  1.0000
  C   C4534     1.0  0.66475  0.00143  0.38722  1.0000
  H   H3634     1.0  0.51696  0.08107  0.28214  1.0000
  C   C4535     1.0  0.61371  0.30454  0.38260  1.0000
  H   H3635     1.0  0.59574  0.26890  0.44974  1.0000
  H   H3636     1.0  0.59236  0.44326  0.23199  1.0000
  C   C4536     1.0  0.64473  0.14429  0.42481  1.0000
  H   H3637     1.0  0.50438  0.13931  0.38965  1.0000
  C   C4537     1.0  0.73417  0.22847  0.25657  1.0000
  H   H3638     1.0  0.49915  0.02462  0.36879  1.0000
  H   H3639     1.0  0.62186  0.08855  0.40753  1.0000
  C   C4538     1.0  0.59293  0.16662  0.38380  1.0000
  C   C4539     1.0  0.50824  0.02048  0.34120  1.0000
  H   H3640     1.0  0.66747  0.02585  0.39377  1.0000
  C   C4540     1.0  0.52374  0.99757  0.27691  1.0000
  C   C4541     1.0  0.57426  0.01937  0.29712  1.0000
  C   C4542     1.0  0.65776  0.15882  0.38630  1.0000
  C   C4543     1.0  0.65244  0.17334  0.37234  1.0000
  C   C4544     1.0  0.66513  0.18366  0.36110  1.0000
  C   C4545     1.0  0.68314  0.17974  0.36381  1.0000
  C   C4546     1.0  0.68857  0.16529  0.37759  1.0000
  C   C4547     1.0  0.67596  0.15486  0.38878  1.0000
  C   C4548     1.0  0.73336  0.99824  0.44227  1.0000
  H   H3641     1.0  0.65246  0.17053  0.41893  1.0000
  H   H3642     1.0  0.67277  0.12242  0.38327  1.0000
  H   H3643     1.0  0.63841  0.17714  0.37037  1.0000
  H   H3644     1.0  0.66081  0.19514  0.35070  1.0000
  S   S616      1.0  0.68840  0.03445  0.45735  1.0000
  C   C4549     1.0  0.65144  0.14098  0.45969  1.0000
  H   H3645     1.0  0.68026  0.14398  0.39968  1.0000
  H   H3646     1.0  0.61512  0.17450  0.42029  1.0000
  C   C4550     1.0  0.61826  0.15873  0.39980  1.0000
  C   C4551     1.0  0.68604  0.09427  0.44848  1.0000
  C   C4552     1.0  0.63011  0.11406  0.40432  1.0000
  C   C4553     1.0  0.64968  0.08803  0.39257  1.0000
  Fe  Fe310     1.0  0.53504  0.37779  0.44171  1.0000
  H   H3647     1.0  0.72898  0.26819  0.38068  1.0000
  H   H3648     1.0  0.49116  0.06391  0.35804  1.0000
  H   H3649     1.0  0.62812  0.24258  0.43948  1.0000
  C   C4554     1.0  0.59679  0.30567  0.42930  1.0000
  P   P150      1.0  0.57941  0.19689  0.23387  1.0000
  H   H3650     1.0  0.55716  0.44633  0.38402  1.0000
  H   H3651     1.0  0.57950  0.31507  0.22089  1.0000
  H   H3652     1.0  0.69078  0.99031  0.35901  1.0000
  C   C4555     1.0  0.63278  0.09621  0.40188  1.0000
  H   H3653     1.0  0.51404  0.22631  0.33988  1.0000
  C   C4556     1.0  0.50790  0.20449  0.26250  1.0000
  H   H3654     1.0  0.51071  0.27858  0.38540  1.0000
  C   C4557     1.0  0.52019  0.29163  0.27755  1.0000
  H   H3655     1.0  0.70240  0.18490  0.22483  1.0000
  C   C4558     1.0  0.64554  0.12702  0.45568  1.0000
  H   H3656     1.0  0.53830  0.45207  0.41686  1.0000
  S   S617      1.0  0.59779  0.97398  0.42356  1.0000
  C   C4559     1.0  0.60036  0.26466  0.42215  1.0000
  H   H3657     1.0  0.61740  0.14670  0.37764  1.0000
  C   C4560     1.0  0.53404  0.27138  0.30202  1.0000
  C   C4561     1.0  0.53886  0.02427  0.45899  1.0000
  Fe  Fe311     1.0  0.71117  0.19587  0.40801  1.0000
  C   C4562     1.0  0.60890  0.17178  0.41042  1.0000
  H   H3658     1.0  0.51078  0.29462  0.26838  1.0000
  H   H3659     1.0  0.65768  0.22215  0.44381  1.0000
  C   C4563     1.0  0.54661  0.38940  0.32831  1.0000
  S   S618      1.0  0.72346  0.16648  0.40690  1.0000
  H   H3660     1.0  0.68680  0.22921  0.42366  1.0000
  H   H3661     1.0  0.63438  0.04015  0.39580  1.0000
  C   C4564     1.0  0.59850  0.42719  0.39577  1.0000
  C   C4565     1.0  0.66135  0.11549  0.38824  1.0000
  H   H3662     1.0  0.62842  0.98136  0.43289  1.0000
  C   C4566     1.0  0.62553  0.31476  0.43898  1.0000
  C   C4567     1.0  0.60770  0.32495  0.44274  1.0000
  H   H3663     1.0  0.55061  0.02965  0.45886  1.0000
  H   H3664     1.0  0.50341  0.17222  0.24228  1.0000
  C   C4568     1.0  0.57434  0.43515  0.33044  1.0000
  C   C4569     1.0  0.58386  0.19289  0.25658  1.0000
  C   C4570     1.0  0.72378  0.21809  0.23443  1.0000
  H   H3665     1.0  0.49306  0.18835  0.31996  1.0000
  H   H3666     1.0  0.71091  0.01650  0.37798  1.0000
  C   C4571     1.0  0.49872  0.25010  0.35050  1.0000
  H   H3667     1.0  0.52945  0.31695  0.26666  1.0000
  H   H3668     1.0  0.62462  0.99348  0.38244  1.0000
  C   C4572     1.0  0.58799  0.20690  0.26249  1.0000
  C   C4573     1.0  0.59197  0.20378  0.27984  1.0000
  C   C4574     1.0  0.59204  0.18668  0.29135  1.0000
  C   C4575     1.0  0.58847  0.17255  0.28540  1.0000
  C   C4576     1.0  0.58473  0.17552  0.26797  1.0000
  H   H3669     1.0  0.52969  0.25308  0.37132  1.0000
  S   S619      1.0  0.48733  0.11209  0.31320  1.0000
  H   H3670     1.0  0.55475  0.36089  0.36834  1.0000
  H   H3671     1.0  0.53794  0.45002  0.30002  1.0000
  H   H3672     1.0  0.50294  0.42069  0.26976  1.0000
  C   C4577     1.0  0.59471  0.25654  0.41074  1.0000
  C   C4578     1.0  0.50195  0.20076  0.22931  1.0000
  C   C4579     1.0  0.50847  0.26487  0.39156  1.0000
  S   S620      1.0  0.48638  0.15627  0.30383  1.0000
  H   H3673     1.0  0.60817  0.41430  0.39695  1.0000
  C   C4580     1.0  0.57290  0.46026  0.39363  1.0000
  H   H3674     1.0  0.49415  0.20601  0.36023  1.0000
  C   C4581     1.0  0.64035  0.26175  0.41684  1.0000
  Fe  Fe312     1.0  0.50381  0.37446  0.42570  1.0000
  H   H3675     1.0  0.58823  0.22023  0.25370  1.0000
  H   H3676     1.0  0.59504  0.21460  0.28442  1.0000
  H   H3677     1.0  0.59483  0.18441  0.30490  1.0000
  H   H3678     1.0  0.58851  0.15928  0.29435  1.0000
  H   H3679     1.0  0.58258  0.16420  0.26350  1.0000
  C   C4582     1.0  0.50061  0.32126  0.42723  1.0000
  H   H3680     1.0  0.50065  0.21814  0.31757  1.0000
  P   P151      1.0  0.53599  0.41265  0.31959  1.0000
  C   C4583     1.0  0.61019  0.15628  0.38639  1.0000
  H   H3681     1.0  0.63666  0.31833  0.44273  1.0000
  H   H3682     1.0  0.55924  0.43659  0.45156  1.0000
  C   C4584     1.0  0.72279  0.98794  0.38342  1.0000
  H   H3683     1.0  0.54058  0.99283  0.33409  1.0000
  C   C4585     1.0  0.57124  0.24586  0.43584  1.0000
  C   C4586     1.0  0.54985  0.42830  0.32010  1.0000
  C   C4587     1.0  0.58953  0.45876  0.39888  1.0000
  H   H3684     1.0  0.63445  0.26026  0.38153  1.0000
  H   H3685     1.0  0.52578  0.01035  0.26777  1.0000
  C   C4588     1.0  0.55462  0.36539  0.35388  1.0000
  C   C4589     1.0  0.51558  0.02322  0.44335  1.0000
  C   C4590     1.0  0.69996  0.05319  0.38559  1.0000
  C   C4591     1.0  0.54486  0.28388  0.30093  1.0000
  P   P152      1.0  0.64116  0.14639  0.40205  1.0000
  C   C4592     1.0  0.65818  0.01885  0.39111  1.0000
  H   H3686     1.0  0.56280  0.41721  0.28523  1.0000
  C   C4593     1.0  0.57227  0.45240  0.31910  1.0000
  C   C4594     1.0  0.54546  0.16095  0.24236  1.0000
  P   P153      1.0  0.52053  0.01488  0.30556  1.0000
  C   C4595     1.0  0.50456  0.01438  0.32715  1.0000
  C   C4596     1.0  0.54378  0.01227  0.30832  1.0000
  C   C4597     1.0  0.55637  0.02121  0.29474  1.0000
  H   H3687     1.0  0.50520  0.41495  0.30202  1.0000
  C   C4598     1.0  0.50327  0.43663  0.32970  1.0000
  C   C4599     1.0  0.64069  0.24601  0.43071  1.0000
  C   C4600     1.0  0.54971  0.00059  0.32378  1.0000
  C   C4601     1.0  0.50398  0.40501  0.34462  1.0000
  C   C4602     1.0  0.51305  0.41856  0.33280  1.0000
  C   C4603     1.0  0.72236  0.23129  0.24455  1.0000
  H   H3688     1.0  0.67891  0.99497  0.38761  1.0000
  S   S621      1.0  0.52409  0.35396  0.44058  1.0000
  C   C4604     1.0  0.51243  0.03669  0.29179  1.0000
  C   C4605     1.0  0.51860  0.05221  0.29210  1.0000
  H   H3689     1.0  0.70856  0.13417  0.41789  1.0000
  C   C4606     1.0  0.54482  0.24653  0.23516  1.0000
  H   H3690     1.0  0.65708  0.27770  0.39485  1.0000
  C   C4607     1.0  0.52180  0.27519  0.29027  1.0000
  P   P154      1.0  0.70833  0.22198  0.21900  1.0000
  H   H3691     1.0  0.50970  0.44739  0.32057  1.0000
  C   C4608     1.0  0.69720  0.12196  0.44534  1.0000
  C   C4609     1.0  0.50231  0.23173  0.34957  1.0000
  H   H3692     1.0  0.63826  0.11736  0.43543  1.0000
  H   H3693     1.0  0.55486  0.38125  0.30210  1.0000
  C   C4610     1.0  0.52830  0.46181  0.40977  1.0000
  C   C4611     1.0  0.57688  0.25374  0.44736  1.0000
  H   H3694     1.0  0.52089  0.27215  0.41908  1.0000
  C   C4612     1.0  0.54794  0.44568  0.30872  1.0000
  H   H3695     1.0  0.52066  0.02548  0.33923  1.0000
  H   H3696     1.0  0.71391  0.98781  0.33107  1.0000
  C   C4613     1.0  0.48574  0.40959  0.35366  1.0000
  H   H3697     1.0  0.50679  0.37207  0.32086  1.0000
  C   C4614     1.0  0.52060  0.99591  0.29591  1.0000
  H   H3698     1.0  0.52833  0.05132  0.30044  1.0000
  C   C4615     1.0  0.52628  0.29588  0.42431  1.0000
  H   H3699     1.0  0.56856  0.34963  0.31435  1.0000
  H   H3700     1.0  0.50246  0.45401  0.23163  1.0000
  S   S622      1.0  0.72657  0.20914  0.46317  1.0000
  H   H3701     1.0  0.72668  0.09544  0.46356  1.0000
  C   C4616     1.0  0.61223  0.46949  0.44194  1.0000
  H   H3702     1.0  0.48812  0.08355  0.42577  1.0000
  C   C4617     1.0  0.72213  0.05521  0.35709  1.0000
  H   H3703     1.0  0.48615  0.04503  0.39558  1.0000
  H   H3704     1.0  0.61380  0.45506  0.44243  1.0000
  H   H3705     1.0  0.52656  0.98397  0.25488  1.0000
  H   H3706     1.0  0.49548  0.45759  0.26386  1.0000
  C   C4618     1.0  0.54786  0.15748  0.22495  1.0000
  H   H3707     1.0  0.64123  0.97277  0.46147  1.0000
  H   H3708     1.0  0.56346  0.46772  0.42981  1.0000
  H   H3709     1.0  0.48933  0.16196  0.22388  1.0000
  H   H3710     1.0  0.49321  0.02707  0.28199  1.0000
  C   C4619     1.0  0.51925  0.97881  0.30731  1.0000
  H   H3711     1.0  0.73289  0.23863  0.26447  1.0000
  C   C4620     1.0  0.49904  0.07089  0.27139  1.0000
  C   C4621     1.0  0.48488  0.44105  0.33833  1.0000
  H   H3712     1.0  0.73148  0.06990  0.40990  1.0000
  C   C4622     1.0  0.73367  0.24259  0.37241  1.0000
  C   C4623     1.0  0.73252  0.04389  0.38586  1.0000
  C   C4624     1.0  0.61089  0.17700  0.21514  1.0000
  C   C4625     1.0  0.73219  0.00597  0.45710  1.0000
  H   H3713     1.0  0.57004  0.25260  0.46156  1.0000
  H   H3714     1.0  0.50374  0.13195  0.21619  1.0000
  C   C4626     1.0  0.54670  0.25484  0.21668  1.0000
  H   H3715     1.0  0.60445  0.22198  0.21601  1.0000
  C   C4627     1.0  0.71487  0.97216  0.41486  1.0000
  C   C4628     1.0  0.49228  0.05566  0.27154  1.0000
  C   C4629     1.0  0.48527  0.06575  0.33193  1.0000
  H   H3716     1.0  0.51783  0.97689  0.32194  1.0000
  H   H3717     1.0  0.63910  0.97392  0.35216  1.0000
  H   H3718     1.0  0.65846  0.97120  0.41723  1.0000
  S   S623      1.0  0.73412  0.98827  0.36059  1.0000
  H   H3719     1.0  0.48451  0.27890  0.25896  1.0000
  Fe  Fe313     1.0  0.70519  0.00270  0.61261  1.0000
  S   S624      1.0  0.67967  0.99804  0.63418  1.0000
  H   H3720     1.0  0.51237  0.99361  0.48417  1.0000
  C   C4630     1.0  0.51913  0.43778  0.50931  1.0000
  C   C4631     1.0  0.54212  0.40211  0.70240  1.0000
  S   S625      1.0  0.70706  0.02610  0.58833  1.0000
  S   S626      1.0  0.65887  0.03942  0.50664  1.0000
  Fe  Fe314     1.0  0.70927  0.38911  0.59758  1.0000
  H   H3721     1.0  0.49347  0.38192  0.68129  1.0000
  S   S627      1.0  0.67927  0.39996  0.59602  1.0000
  C   C4632     1.0  0.66887  0.97713  0.61611  1.0000
  Fe  Fe315     1.0  0.61715  0.42994  0.52508  1.0000
  H   H3722     1.0  0.48967  0.31990  0.46760  1.0000
  S   S628      1.0  0.64647  0.41450  0.52469  1.0000
  Fe  Fe316     1.0  0.57887  0.43858  0.54705  1.0000
  H   H3723     1.0  0.60909  0.98762  0.47254  1.0000
  S   S629      1.0  0.56333  0.43284  0.57621  1.0000
  Fe  Fe317     1.0  0.58395  0.43855  0.50651  1.0000
  S   S630      1.0  0.57223  0.44045  0.48169  1.0000
  C   C4633     1.0  0.61329  0.44844  0.60199  1.0000
  C   C4634     1.0  0.54242  0.43819  0.70892  1.0000
  S   S631      1.0  0.59253  0.41703  0.53033  1.0000
  C   C4635     1.0  0.49523  0.00617  0.53158  1.0000
  C   C4636     1.0  0.51947  0.44439  0.65445  1.0000
  S   S632      1.0  0.55722  0.99721  0.68216  1.0000
  C   C4637     1.0  0.49089  0.36922  0.69038  1.0000
  C   C4638     1.0  0.64837  0.02223  0.58293  1.0000
  H   H3724     1.0  0.65003  0.46308  0.49125  1.0000
  P   P155      1.0  0.54324  0.00286  0.49333  1.0000
  C   C4639     1.0  0.56438  0.42231  0.47816  1.0000
  C   C4640     1.0  0.56332  0.40637  0.49142  1.0000
  H   H3725     1.0  0.65565  0.97459  0.51088  1.0000
  H   H3726     1.0  0.55764  0.46082  0.63072  1.0000
  C   C4641     1.0  0.69821  0.11024  0.70502  1.0000
  H   H3727     1.0  0.64421  0.11464  0.46582  1.0000
  H   H3728     1.0  0.56773  0.40480  0.50406  1.0000
  H   H3729     1.0  0.61215  0.39844  0.65886  1.0000
  C   C4642     1.0  0.61162  0.05435  0.52560  1.0000
  C   C4643     1.0  0.72044  0.07221  0.49654  1.0000
  C   C4644     1.0  0.70784  0.00901  0.51709  1.0000
  S   S633      1.0  0.65058  0.01769  0.46918  1.0000
  H   H3730     1.0  0.51937  0.41304  0.50127  1.0000
  C   C4645     1.0  0.72748  0.26008  0.69009  1.0000
  C   C4646     1.0  0.53940  0.44045  0.57984  1.0000
  C   C4647     1.0  0.52901  0.43852  0.59771  1.0000
  C   C4648     1.0  0.50986  0.44452  0.60088  1.0000
  H   H3731     1.0  0.55826  0.99401  0.57173  1.0000
  C   C4649     1.0  0.55421  0.01982  0.49604  1.0000
  C   C4650     1.0  0.53058  0.44855  0.56518  1.0000
  H   H3732     1.0  0.53578  0.43212  0.60908  1.0000
  H   H3733     1.0  0.71158  0.25896  0.59839  1.0000
  H   H3734     1.0  0.50187  0.44273  0.61467  1.0000
  H   H3735     1.0  0.61584  0.01507  0.55741  1.0000
  C   C4651     1.0  0.67066  0.40408  0.57589  1.0000
  C   C4652     1.0  0.65201  0.41191  0.57634  1.0000
  C   C4653     1.0  0.64452  0.41535  0.56070  1.0000
  C   C4654     1.0  0.65561  0.41089  0.54444  1.0000
  C   C4655     1.0  0.67435  0.40330  0.54390  1.0000
  C   C4656     1.0  0.68189  0.39996  0.55955  1.0000
  H   H3736     1.0  0.64325  0.41517  0.58891  1.0000
  H   H3737     1.0  0.63007  0.42108  0.56135  1.0000
  H   H3738     1.0  0.68302  0.39983  0.53137  1.0000
  H   H3739     1.0  0.69629  0.39399  0.55902  1.0000
  H   H3740     1.0  0.70527  0.42679  0.57714  1.0000
  C   C4657     1.0  0.61350  0.40082  0.68562  1.0000
  H   H3741     1.0  0.48845  0.40995  0.51967  1.0000
  C   C4658     1.0  0.55065  0.39432  0.47202  1.0000
  H   H3742     1.0  0.51551  0.46160  0.52034  1.0000
  C   C4659     1.0  0.61299  0.04717  0.51034  1.0000
  C   C4660     1.0  0.56348  0.97601  0.47357  1.0000
  C   C4661     1.0  0.63783  0.01393  0.59893  1.0000
  C   C4662     1.0  0.67794  0.02891  0.51686  1.0000
  C   C4663     1.0  0.69296  0.01738  0.50841  1.0000
  C   C4664     1.0  0.56926  0.98644  0.56298  1.0000
  C   C4665     1.0  0.70784  0.01220  0.53418  1.0000
  C   C4666     1.0  0.69277  0.02371  0.54262  1.0000
  C   C4667     1.0  0.67785  0.03200  0.53397  1.0000
  H   H3743     1.0  0.69302  0.01473  0.49532  1.0000
  H   H3744     1.0  0.69266  0.02620  0.55578  1.0000
  H   H3745     1.0  0.66622  0.04096  0.54040  1.0000
  H   H3746     1.0  0.50543  0.40260  0.47672  1.0000
  C   C4668     1.0  0.48761  0.41433  0.71253  1.0000
  C   C4669     1.0  0.51742  0.00404  0.47312  1.0000
  C   C4670     1.0  0.72204  0.14688  0.50178  1.0000
  C   C4671     1.0  0.55461  0.44486  0.65820  1.0000
  C   C4672     1.0  0.57993  0.03532  0.48717  1.0000
  H   H3747     1.0  0.65518  0.00196  0.52794  1.0000
  H   H3748     1.0  0.65480  0.13940  0.47287  1.0000
  S   S634      1.0  0.54172  0.37669  0.46890  1.0000
  H   H3749     1.0  0.70665  0.24581  0.53660  1.0000
  H   H3750     1.0  0.68725  0.05982  0.48293  1.0000
  C   C4673     1.0  0.62708  0.98596  0.50918  1.0000
  C   C4674     1.0  0.57310  0.97522  0.50132  1.0000
  C   C4675     1.0  0.63719  0.97613  0.47490  1.0000
  C   C4676     1.0  0.67855  0.46782  0.56281  1.0000
  C   C4677     1.0  0.55301  0.45012  0.70997  1.0000
  C   C4678     1.0  0.49336  0.39650  0.48084  1.0000
  H   H3751     1.0  0.53286  0.43884  0.50159  1.0000
  S   S635      1.0  0.72196  0.98143  0.59689  1.0000
  C   C4679     1.0  0.71953  0.41209  0.71219  1.0000
  Fe  Fe318     1.0  0.56529  0.97324  0.66787  1.0000
  C   C4680     1.0  0.53222  0.01126  0.47388  1.0000
  C   C4681     1.0  0.58465  0.41276  0.70428  1.0000
  C   C4682     1.0  0.70415  0.30406  0.70263  1.0000
  H   H3752     1.0  0.67325  0.44689  0.53900  1.0000
  H   H3753     1.0  0.49695  0.32411  0.69065  1.0000
  C   C4683     1.0  0.55641  0.39244  0.48837  1.0000
  C   C4684     1.0  0.61599  0.01660  0.52900  1.0000
  C   C4685     1.0  0.66465  0.45712  0.53076  1.0000
  H   H3754     1.0  0.56817  0.44536  0.65951  1.0000
  H   H3755     1.0  0.65519  0.45839  0.59666  1.0000
  C   C4686     1.0  0.60931  0.45733  0.58491  1.0000
  H   H3756     1.0  0.54349  0.97493  0.52783  1.0000
  C   C4687     1.0  0.57131  0.04630  0.49995  1.0000
  H   H3757     1.0  0.50353  0.37647  0.50273  1.0000
  C   C4688     1.0  0.61913  0.98460  0.48111  1.0000
  H   H3758     1.0  0.68098  0.97901  0.60565  1.0000
  C   C4689     1.0  0.50840  0.00911  0.51551  1.0000
  H   H3759     1.0  0.53839  0.44979  0.55139  1.0000
  C   C4690     1.0  0.72705  0.30869  0.61712  1.0000
  H   H3760     1.0  0.73191  0.04305  0.63217  1.0000
  H   H3761     1.0  0.50482  0.02021  0.50448  1.0000
  C   C4691     1.0  0.66803  0.98344  0.54899  1.0000
  H   H3762     1.0  0.62478  0.97094  0.65319  1.0000
  H   H3763     1.0  0.71953  0.17244  0.48252  1.0000
  C   C4692     1.0  0.65157  0.46610  0.50366  1.0000
  H   H3764     1.0  0.50587  0.44405  0.65303  1.0000
  C   C4693     1.0  0.68440  0.36413  0.70140  1.0000
  C   C4694     1.0  0.66718  0.32180  0.70876  1.0000
  H   H3765     1.0  0.66988  0.32672  0.67965  1.0000
  C   C4695     1.0  0.50111  0.45253  0.58614  1.0000
  H   H3766     1.0  0.72605  0.32857  0.67385  1.0000
  C   C4696     1.0  0.71237  0.06470  0.48654  1.0000
  H   H3767     1.0  0.58561  0.00686  0.55537  1.0000
  H   H3768     1.0  0.57825  0.01399  0.47491  1.0000
  H   H3769     1.0  0.68519  0.10649  0.47094  1.0000
  C   C4697     1.0  0.73196  0.41413  0.69537  1.0000
  C   C4698     1.0  0.57145  0.02215  0.48515  1.0000
  C   C4699     1.0  0.70140  0.44138  0.57247  1.0000
  C   C4700     1.0  0.71675  0.36535  0.69167  1.0000
  C   C4701     1.0  0.64521  0.97736  0.50287  1.0000
  H   H3770     1.0  0.50691  0.00124  0.68265  1.0000
  H   H3771     1.0  0.69162  0.22161  0.53471  1.0000
  C   C4702     1.0  0.64246  0.45823  0.59316  1.0000
  C   C4703     1.0  0.51148  0.42324  0.50914  1.0000
  H   H3772     1.0  0.72221  0.27976  0.54054  1.0000
  H   H3773     1.0  0.73389  0.22337  0.49087  1.0000
  C   C4704     1.0  0.57561  0.41533  0.68984  1.0000
  C   C4705     1.0  0.72424  0.16486  0.49491  1.0000
  C   C4706     1.0  0.68320  0.36647  0.68311  1.0000
  C   C4707     1.0  0.71303  0.28865  0.64346  1.0000
  C   C4708     1.0  0.71657  0.20119  0.53330  1.0000
  H   H3774     1.0  0.72739  0.23468  0.68334  1.0000
  H   H3775     1.0  0.70457  0.41068  0.66831  1.0000
  H   H3776     1.0  0.72755  0.99884  0.47086  1.0000
  H   H3777     1.0  0.72302  0.32608  0.71270  1.0000
  C   C4709     1.0  0.54571  0.03080  0.50901  1.0000
  H   H3778     1.0  0.72824  0.19726  0.62018  1.0000
  H   H3779     1.0  0.67064  0.44101  0.51021  1.0000
  C   C4710     1.0  0.52599  0.99785  0.51374  1.0000
  H   H3780     1.0  0.61188  0.04824  0.55431  1.0000
  C   C4711     1.0  0.50522  0.01329  0.68808  1.0000
  H   H3781     1.0  0.72070  0.05777  0.47581  1.0000
  C   C4712     1.0  0.61248  0.04273  0.54257  1.0000
  H   H3782     1.0  0.48938  0.98983  0.55860  1.0000
  C   C4713     1.0  0.72779  0.13728  0.51794  1.0000
  H   H3783     1.0  0.59439  0.00737  0.67932  1.0000
  C   C4714     1.0  0.55426  0.04397  0.51094  1.0000
  C   C4715     1.0  0.54321  0.43513  0.67248  1.0000
  H   H3784     1.0  0.52591  0.02397  0.66639  1.0000
  C   C4716     1.0  0.70860  0.41149  0.68051  1.0000
  C   C4717     1.0  0.52538  0.43546  0.67069  1.0000
  Fe  Fe319     1.0  0.72573  0.00487  0.57321  1.0000
  C   C4718     1.0  0.49082  0.03166  0.71098  1.0000
  H   H3785     1.0  0.72745  0.44668  0.57296  1.0000
  C   C4719     1.0  0.49167  0.44917  0.53005  1.0000
  H   H3786     1.0  0.60011  0.99626  0.50271  1.0000
  Fe  Fe320     1.0  0.66156  0.03806  0.47727  1.0000
  C   C4720     1.0  0.51587  0.02630  0.67867  1.0000
  C   C4721     1.0  0.69641  0.40923  0.69734  1.0000
  C   C4722     1.0  0.53222  0.37636  0.69792  1.0000
  C   C4723     1.0  0.71466  0.23230  0.53558  1.0000
  C   C4724     1.0  0.56097  0.98309  0.48927  1.0000
  C   C4725     1.0  0.63814  0.98279  0.54416  1.0000
  C   C4726     1.0  0.69012  0.08284  0.51384  1.0000
  C   C4727     1.0  0.72270  0.27355  0.63579  1.0000
  H   H3787     1.0  0.50478  0.46095  0.55697  1.0000
  C   C4728     1.0  0.58558  0.40969  0.67361  1.0000
  H   H3788     1.0  0.68013  0.98944  0.54514  1.0000
  H   H3789     1.0  0.59316  0.03715  0.47865  1.0000
  H   H3790     1.0  0.52654  0.46002  0.62736  1.0000
  H   H3791     1.0  0.61050  0.06885  0.52415  1.0000
  C   C4729     1.0  0.65053  0.04488  0.59851  1.0000
  C   C4730     1.0  0.64040  0.03634  0.61482  1.0000
  C   C4731     1.0  0.70621  0.21866  0.53453  1.0000
  P   P156      1.0  0.63521  0.04583  0.63514  1.0000
  C   C4732     1.0  0.62964  0.02888  0.65545  1.0000
  C   C4733     1.0  0.65467  0.05436  0.63651  1.0000
  C   C4734     1.0  0.67261  0.04663  0.62864  1.0000
  C   C4735     1.0  0.68762  0.05329  0.62953  1.0000
  C   C4736     1.0  0.68492  0.06754  0.63856  1.0000
  C   C4737     1.0  0.66715  0.07515  0.64671  1.0000
  C   C4738     1.0  0.65208  0.06859  0.64571  1.0000
  C   C4739     1.0  0.61242  0.02383  0.65995  1.0000
  C   C4740     1.0  0.60765  0.01133  0.67601  1.0000
  C   C4741     1.0  0.61994  0.00387  0.68780  1.0000
  C   C4742     1.0  0.63708  0.00882  0.68346  1.0000
  C   C4743     1.0  0.64199  0.02119  0.66729  1.0000
  C   C4744     1.0  0.61547  0.06433  0.63433  1.0000
  C   C4745     1.0  0.60434  0.06900  0.65061  1.0000
  C   C4746     1.0  0.58901  0.08324  0.65012  1.0000
  C   C4747     1.0  0.58469  0.09299  0.63339  1.0000
  C   C4748     1.0  0.59574  0.08853  0.61713  1.0000
  C   C4749     1.0  0.61109  0.07427  0.61757  1.0000
  C   C4750     1.0  0.72397  0.12885  0.70766  1.0000
  C   C4751     1.0  0.51410  0.04191  0.68543  1.0000
  H   H3792     1.0  0.61316  0.05608  0.49703  1.0000
  H   H3793     1.0  0.65552  0.05693  0.59803  1.0000
  H   H3794     1.0  0.52268  0.05173  0.67830  1.0000
  H   H3795     1.0  0.67509  0.03545  0.62177  1.0000
  H   H3796     1.0  0.70139  0.04735  0.62322  1.0000
  H   H3797     1.0  0.69662  0.07261  0.63928  1.0000
  H   H3798     1.0  0.66510  0.08611  0.65384  1.0000
  H   H3799     1.0  0.63848  0.07461  0.65220  1.0000
  H   H3800     1.0  0.60266  0.02954  0.65104  1.0000
  C   C4752     1.0  0.71548  0.36817  0.67340  1.0000
  C   C4753     1.0  0.72698  0.27483  0.55329  1.0000
  H   H3801     1.0  0.56652  0.45027  0.70138  1.0000
  H   H3802     1.0  0.65551  0.02445  0.66397  1.0000
  H   H3803     1.0  0.60748  0.06162  0.66373  1.0000
  H   H3804     1.0  0.58044  0.08666  0.66275  1.0000
  H   H3805     1.0  0.57278  0.10401  0.63303  1.0000
  H   H3806     1.0  0.59240  0.09611  0.60416  1.0000
  H   H3807     1.0  0.61941  0.07106  0.60482  1.0000
  C   C4754     1.0  0.49225  0.38174  0.49554  1.0000
  H   H3808     1.0  0.57778  0.05672  0.50123  1.0000
  H   H3809     1.0  0.54063  0.39789  0.67617  1.0000
  H   H3810     1.0  0.57203  0.98100  0.51301  1.0000
  H   H3811     1.0  0.71569  0.14052  0.49462  1.0000
  C   C4755     1.0  0.63383  0.02096  0.61481  1.0000
  H   H3812     1.0  0.57873  0.41038  0.66273  1.0000
  C   C4756     1.0  0.69338  0.06600  0.49039  1.0000
  H   H3813     1.0  0.49844  0.40363  0.70778  1.0000
  H   H3814     1.0  0.50018  0.05667  0.70685  1.0000
  C   C4757     1.0  0.71148  0.11532  0.68968  1.0000
  H   H3815     1.0  0.51727  0.98141  0.71403  1.0000
  C   C4758     1.0  0.71386  0.45259  0.57010  1.0000
  H   H3816     1.0  0.72565  0.12349  0.52350  1.0000
  H   H3817     1.0  0.62812  0.39520  0.68403  1.0000
  H   H3818     1.0  0.70090  0.26918  0.56917  1.0000
  H   H3819     1.0  0.66290  0.04419  0.57044  1.0000
  H   H3820     1.0  0.51607  0.42862  0.68172  1.0000
  C   C4759     1.0  0.68225  0.07502  0.50404  1.0000
  H   H3821     1.0  0.71928  0.99987  0.51062  1.0000
  C   C4760     1.0  0.72116  0.26293  0.58590  1.0000
  C   C4761     1.0  0.71502  0.26886  0.56940  1.0000
  C   C4762     1.0  0.72755  0.26883  0.70395  1.0000
  H   H3822     1.0  0.48433  0.98719  0.63353  1.0000
  C   C4763     1.0  0.64943  0.98217  0.64499  1.0000
  C   C4764     1.0  0.73326  0.20635  0.62549  1.0000
  H   H3823     1.0  0.64672  0.00282  0.69246  1.0000
  H   H3824     1.0  0.72863  0.32230  0.60975  1.0000
  S   S636      1.0  0.72915  0.00675  0.62194  1.0000
  S   S637      1.0  0.56816  0.45882  0.52390  1.0000
  S   S638      1.0  0.71909  0.36185  0.61485  1.0000
  C   C4765     1.0  0.71527  0.30621  0.63415  1.0000
  H   H3825     1.0  0.73269  0.22723  0.60133  1.0000
  C   C4766     1.0  0.73345  0.22847  0.53541  1.0000
  C   C4767     1.0  0.72654  0.23156  0.71198  1.0000
  C   C4768     1.0  0.61475  0.02393  0.54425  1.0000
  C   C4769     1.0  0.66521  0.98477  0.63152  1.0000
  C   C4770     1.0  0.54862  0.45382  0.64195  1.0000
  H   H3826     1.0  0.70972  0.19073  0.53282  1.0000
  H   H3827     1.0  0.68147  0.08981  0.52443  1.0000
  C   C4771     1.0  0.68385  0.44895  0.56886  1.0000
  C   C4772     1.0  0.60356  0.40575  0.70205  1.0000
  H   H3828     1.0  0.66754  0.07575  0.50707  1.0000
  H   H3829     1.0  0.71496  0.08752  0.51795  1.0000
  H   H3830     1.0  0.49086  0.46545  0.71103  1.0000
  C   C4773     1.0  0.65463  0.03775  0.58273  1.0000
  C   C4774     1.0  0.51717  0.98130  0.54473  1.0000
  S   S639      1.0  0.72001  0.40482  0.61206  1.0000
  Fe  Fe321     1.0  0.73185  0.37751  0.62725  1.0000
  H   H3831     1.0  0.63310  0.00176  0.59923  1.0000
  C   C4775     1.0  0.73234  0.17321  0.50404  1.0000
  S   S640      1.0  0.60392  0.45034  0.54290  1.0000
  H   H3832     1.0  0.72942  0.18128  0.56844  1.0000
  C   C4776     1.0  0.69506  0.31146  0.68798  1.0000
  C   C4777     1.0  0.60449  0.40270  0.67143  1.0000
  H   H3833     1.0  0.67021  0.36694  0.67978  1.0000
  C   C4778     1.0  0.53110  0.45345  0.64004  1.0000
  H   H3834     1.0  0.54760  0.05247  0.52089  1.0000
  C   C4779     1.0  0.69872  0.36860  0.66908  1.0000
  C   C4780     1.0  0.66322  0.45369  0.51433  1.0000
  C   C4781     1.0  0.72715  0.24147  0.69408  1.0000
  C   C4782     1.0  0.53852  0.39270  0.69077  1.0000
  H   H3835     1.0  0.69767  0.37078  0.65497  1.0000
  H   H3836     1.0  0.70775  0.31797  0.63994  1.0000
  C   C4783     1.0  0.70916  0.08147  0.51011  1.0000
  H   H3837     1.0  0.70217  0.31059  0.67419  1.0000
  H   H3838     1.0  0.53247  0.02936  0.51763  1.0000
  C   C4784     1.0  0.61517  0.02838  0.51200  1.0000
  H   H3839     1.0  0.52935  0.36924  0.68889  1.0000
  C   C4785     1.0  0.67668  0.32043  0.69104  1.0000
  S   S641      1.0  0.60989  0.44937  0.49980  1.0000
  H   H3840     1.0  0.65183  0.01653  0.57075  1.0000
  H   H3841     1.0  0.55557  0.38013  0.49870  1.0000
  H   H3842     1.0  0.62598  0.01402  0.62707  1.0000
  H   H3843     1.0  0.68292  0.40671  0.69821  1.0000
  H   H3844     1.0  0.61685  0.02320  0.49984  1.0000
  C   C4786     1.0  0.70122  0.36356  0.70558  1.0000
  P   P157      1.0  0.55096  0.42280  0.69325  1.0000
  C   C4787     1.0  0.49394  0.42161  0.51948  1.0000
  C   C4788     1.0  0.50927  0.45069  0.51981  1.0000
  H   H3845     1.0  0.67438  0.44000  0.57088  1.0000
  C   C4789     1.0  0.61408  0.98948  0.49818  1.0000
  H   H3846     1.0  0.71213  0.11170  0.67683  1.0000
  H   H3847     1.0  0.59297  0.46886  0.46755  1.0000
  C   C4790     1.0  0.63703  0.97260  0.64283  1.0000
  S   S642      1.0  0.57523  0.97939  0.63738  1.0000
  C   C4791     1.0  0.53027  0.98396  0.52858  1.0000
  H   H3848     1.0  0.70355  0.28677  0.65647  1.0000
  Fe  Fe322     1.0  0.59442  0.46858  0.51822  1.0000
  C   C4792     1.0  0.49278  0.33670  0.69566  1.0000
  H   H3849     1.0  0.48665  0.40605  0.59999  1.0000
  S   S643      1.0  0.72677  0.00153  0.54463  1.0000
  C   C4793     1.0  0.65385  0.99052  0.53931  1.0000
  H   H3850     1.0  0.61053  0.40383  0.71317  1.0000
  C   C4794     1.0  0.51150  0.45471  0.56834  1.0000
  Fe  Fe323     1.0  0.73265  0.02816  0.59639  1.0000
  C   C4795     1.0  0.49962  0.99226  0.54620  1.0000
  H   H3851     1.0  0.60373  0.44082  0.61183  1.0000
  P   P158      1.0  0.62009  0.99216  0.53133  1.0000
  H   H3852     1.0  0.61619  0.99415  0.70022  1.0000
  C   C4796     1.0  0.49282  0.01575  0.70446  1.0000
  C   C4797     1.0  0.50970  0.97156  0.71346  1.0000
  H   H3853     1.0  0.56185  0.47008  0.57013  1.0000
  C   C4798     1.0  0.72629  0.41394  0.67950  1.0000
  H   H3854     1.0  0.72038  0.26016  0.64299  1.0000
  C   C4799     1.0  0.55146  0.99387  0.70626  1.0000
  C   C4800     1.0  0.62202  0.46645  0.57184  1.0000
  C   C4801     1.0  0.58491  0.99359  0.55379  1.0000
  H   H3855     1.0  0.63304  0.44191  0.61930  1.0000
  H   H3856     1.0  0.72964  0.36504  0.69509  1.0000
  C   C4802     1.0  0.72421  0.12479  0.69098  1.0000
  P   P159      1.0  0.72802  0.29286  0.69892  1.0000
  C   C4803     1.0  0.70187  0.40959  0.71315  1.0000
  H   H3857     1.0  0.59663  0.45664  0.58157  1.0000
  H   H3858     1.0  0.68843  0.10277  0.70402  1.0000
  C   C4804     1.0  0.49616  0.35301  0.68389  1.0000
  H   H3859     1.0  0.73356  0.18728  0.49862  1.0000
  C   C4805     1.0  0.63887  0.46660  0.57570  1.0000
  C   C4806     1.0  0.59942  0.98354  0.54293  1.0000
  H   H3860     1.0  0.64667  0.98771  0.65708  1.0000
  H   H3861     1.0  0.72770  0.26760  0.67624  1.0000
  H   H3862     1.0  0.54226  0.02256  0.70623  1.0000
  C   C4807     1.0  0.62978  0.44903  0.60617  1.0000
  H   H3863     1.0  0.50284  0.35312  0.66974  1.0000
  C   C4808     1.0  0.50153  0.04461  0.70155  1.0000
  C   C4809     1.0  0.65022  0.97252  0.48576  1.0000
  H   H3864     1.0  0.73255  0.16405  0.59936  1.0000
  H   H3865     1.0  0.48454  0.45894  0.53860  1.0000
  H   H3866     1.0  0.52241  0.97090  0.58546  1.0000
  H   H3867     1.0  0.65314  0.32933  0.71109  1.0000
  Fe  Fe324     1.0  0.52333  0.04255  0.79715  1.0000
  H   H3868     1.0  0.51680  0.36463  0.90108  1.0000
  S   S644      1.0  0.53489  0.06813  0.79159  1.0000
  Fe  Fe325     1.0  0.52355  0.00765  0.78561  1.0000
  C   C4810     1.0  0.54632  0.46176  0.72242  1.0000
  H   H3869     1.0  0.64566  0.45113  0.82012  1.0000
  H   H3870     1.0  0.63245  0.43772  0.80189  1.0000
  Fe  Fe326     1.0  0.51505  0.00934  0.82605  1.0000
  S   S645      1.0  0.50919  0.03673  0.77740  1.0000
  S   S646      1.0  0.53938  0.01393  0.80346  1.0000
  Fe  Fe327     1.0  0.61071  0.12944  0.83742  1.0000
  S   S647      1.0  0.59307  0.15246  0.85045  1.0000
  S   S648      1.0  0.64013  0.12879  0.82191  1.0000
  Fe  Fe328     1.0  0.58003  0.10749  0.84880  1.0000
  S   S649      1.0  0.56020  0.12887  0.86277  1.0000
  S   S650      1.0  0.57121  0.08091  0.85159  1.0000
  Fe  Fe329     1.0  0.57096  0.14881  0.83832  1.0000
  S   S651      1.0  0.55247  0.17181  0.82313  1.0000
  Fe  Fe330     1.0  0.58407  0.13043  0.87370  1.0000
  S   S652      1.0  0.57861  0.13400  0.90278  1.0000
  S   S653      1.0  0.58918  0.12730  0.82337  1.0000
  S   S654      1.0  0.60329  0.10751  0.86167  1.0000
  C   C4811     1.0  0.59283  0.45748  0.82687  1.0000
  H   H3871     1.0  0.69274  0.26349  0.85107  1.0000
  S   S655      1.0  0.66476  0.36233  0.71886  1.0000
  H   H3872     1.0  0.66317  0.18267  0.90811  1.0000
  S   S656      1.0  0.63897  0.09706  0.95040  1.0000
  Fe  Fe331     1.0  0.52990  0.41188  0.77648  1.0000
  S   S657      1.0  0.52542  0.40028  0.80651  1.0000
  S   S658      1.0  0.55728  0.41380  0.75771  1.0000
  C   C4812     1.0  0.71072  0.12382  0.72315  1.0000
  C   C4813     1.0  0.61067  0.02983  0.87391  1.0000
  C   C4814     1.0  0.62349  0.44543  0.81177  1.0000
  Fe  Fe332     1.0  0.50192  0.42400  0.80878  1.0000
  H   H3873     1.0  0.61411  0.15628  0.95483  1.0000
  Fe  Fe333     1.0  0.50550  0.38632  0.80119  1.0000
  S   S659      1.0  0.50893  0.35654  0.81501  1.0000
  S   S660      1.0  0.50800  0.43680  0.77915  1.0000
  S   S661      1.0  0.51184  0.39613  0.77076  1.0000
  S   S662      1.0  0.68300  0.18891  0.82241  1.0000
  Fe  Fe334     1.0  0.67800  0.34020  0.78289  1.0000
  H   H3874     1.0  0.52387  0.47041  0.74366  1.0000
  Fe  Fe335     1.0  0.64897  0.37498  0.78172  1.0000
  S   S663      1.0  0.66379  0.38888  0.75512  1.0000
  S   S664      1.0  0.62345  0.38832  0.79892  1.0000
  Fe  Fe336     1.0  0.66918  0.36209  0.74667  1.0000
  C   C4815     1.0  0.69974  0.40969  0.87970  1.0000
  Fe  Fe337     1.0  0.68906  0.37698  0.76684  1.0000
  S   S665      1.0  0.50381  0.23403  0.86437  1.0000
  S   S666      1.0  0.65178  0.34910  0.77237  1.0000
  S   S667      1.0  0.67379  0.36518  0.79421  1.0000
  C   C4816     1.0  0.54562  0.43846  0.83916  1.0000
  H   H3875     1.0  0.70227  0.36211  0.71948  1.0000
  C   C4817     1.0  0.50895  0.44996  0.85518  1.0000
  H   H3876     1.0  0.53336  0.01851  0.74002  1.0000
  C   C4818     1.0  0.58013  0.01400  0.87892  1.0000
  C   C4819     1.0  0.53121  0.12642  0.91305  1.0000
  C   C4820     1.0  0.70586  0.29752  0.77400  1.0000
  H   H3877     1.0  0.70095  0.29920  0.73204  1.0000
  H   H3878     1.0  0.50966  0.04506  0.91270  1.0000
  H   H3879     1.0  0.70460  0.31105  0.76560  1.0000
  S   S668      1.0  0.50052  0.00079  0.80902  1.0000
  C   C4821     1.0  0.54889  0.97416  0.73634  1.0000
  C   C4822     1.0  0.62463  0.16212  0.94438  1.0000
  C   C4823     1.0  0.57567  0.40766  0.76916  1.0000
  C   C4824     1.0  0.57267  0.40737  0.78784  1.0000
  C   C4825     1.0  0.58748  0.40182  0.79684  1.0000
  C   C4826     1.0  0.60527  0.39622  0.78726  1.0000
  C   C4827     1.0  0.60834  0.39676  0.76854  1.0000
  C   C4828     1.0  0.59357  0.40272  0.75946  1.0000
  H   H3880     1.0  0.55903  0.41153  0.79537  1.0000
  H   H3881     1.0  0.58515  0.40161  0.81128  1.0000
  H   H3882     1.0  0.62206  0.39247  0.76106  1.0000
  H   H3883     1.0  0.59594  0.40292  0.74505  1.0000
  C   C4829     1.0  0.51311  0.44309  0.83919  1.0000
  C   C4830     1.0  0.53149  0.43750  0.83106  1.0000
  H   H3884     1.0  0.53481  0.43226  0.81867  1.0000
  C   C4831     1.0  0.56025  0.46521  0.76346  1.0000
  C   C4832     1.0  0.53204  0.14035  0.92116  1.0000
  C   C4833     1.0  0.49672  0.29629  0.90935  1.0000
  H   H3885     1.0  0.68396  0.42277  0.83340  1.0000
  C   C4834     1.0  0.48517  0.41697  0.73036  1.0000
  C   C4835     1.0  0.49791  0.20773  0.78833  1.0000
  H   H3886     1.0  0.51963  0.45544  0.87604  1.0000
  C   C4836     1.0  0.70963  0.26233  0.79560  1.0000
  H   H3887     1.0  0.50735  0.31930  0.83096  1.0000
  C   C4837     1.0  0.54736  0.45869  0.77841  1.0000
  C   C4838     1.0  0.65250  0.14480  0.82299  1.0000
  C   C4839     1.0  0.64486  0.15758  0.83415  1.0000
  C   C4840     1.0  0.65471  0.17059  0.83430  1.0000
  C   C4841     1.0  0.67218  0.17103  0.82320  1.0000
  C   C4842     1.0  0.68018  0.15782  0.81257  1.0000
  C   C4843     1.0  0.67033  0.14476  0.81243  1.0000
  H   H3888     1.0  0.63135  0.15749  0.84257  1.0000
  H   H3889     1.0  0.64868  0.18053  0.84282  1.0000
  H   H3890     1.0  0.69388  0.15775  0.80440  1.0000
  H   H3891     1.0  0.67649  0.13467  0.80405  1.0000
  C   C4844     1.0  0.59499  0.12287  0.91629  1.0000
  C   C4845     1.0  0.61047  0.11041  0.91000  1.0000
  C   C4846     1.0  0.62377  0.10233  0.92073  1.0000
  C   C4847     1.0  0.62148  0.10645  0.93789  1.0000
  C   C4848     1.0  0.60573  0.11852  0.94443  1.0000
  C   C4849     1.0  0.59253  0.12677  0.93360  1.0000
  H   H3892     1.0  0.61234  0.10711  0.89681  1.0000
  H   H3893     1.0  0.63595  0.09299  0.91565  1.0000
  H   H3894     1.0  0.57807  0.45912  0.82882  1.0000
  H   H3895     1.0  0.58052  0.13636  0.93854  1.0000
  C   C4850     1.0  0.53908  0.18900  0.83476  1.0000
  C   C4851     1.0  0.54207  0.19019  0.85148  1.0000
  C   C4852     1.0  0.53133  0.20427  0.86031  1.0000
  C   C4853     1.0  0.51728  0.21687  0.85272  1.0000
  C   C4854     1.0  0.51421  0.21560  0.83606  1.0000
  C   C4855     1.0  0.52525  0.20182  0.82700  1.0000
  H   H3896     1.0  0.55273  0.18034  0.85748  1.0000
  H   H3897     1.0  0.53379  0.20536  0.87310  1.0000
  H   H3898     1.0  0.70960  0.16164  0.71585  1.0000
  C   C4856     1.0  0.66632  0.46072  0.84225  1.0000
  C   C4857     1.0  0.54552  0.07128  0.80808  1.0000
  C   C4858     1.0  0.54753  0.05805  0.82392  1.0000
  C   C4859     1.0  0.55576  0.06104  0.83696  1.0000
  C   C4860     1.0  0.56201  0.07727  0.83432  1.0000
  C   C4861     1.0  0.56015  0.09044  0.81840  1.0000
  C   C4862     1.0  0.55191  0.08745  0.80535  1.0000
  H   H3899     1.0  0.54275  0.04552  0.82607  1.0000
  H   H3900     1.0  0.55723  0.05079  0.84919  1.0000
  H   H3901     1.0  0.56484  0.10302  0.81623  1.0000
  H   H3902     1.0  0.55043  0.09773  0.79312  1.0000
  C   C4863     1.0  0.65686  0.24181  0.81464  1.0000
  C   C4864     1.0  0.65051  0.25945  0.80554  1.0000
  C   C4865     1.0  0.63214  0.26490  0.80375  1.0000
  C   C4866     1.0  0.62012  0.25272  0.81103  1.0000
  C   C4867     1.0  0.62637  0.23504  0.82038  1.0000
  C   C4868     1.0  0.64485  0.22969  0.82207  1.0000
  P   P160      1.0  0.61117  0.21897  0.82962  1.0000
  C   C4869     1.0  0.61490  0.20699  0.85215  1.0000
  C   C4870     1.0  0.58741  0.23083  0.83210  1.0000
  C   C4871     1.0  0.57847  0.23764  0.84797  1.0000
  C   C4872     1.0  0.55966  0.24524  0.85069  1.0000
  C   C4873     1.0  0.54971  0.24636  0.83748  1.0000
  C   C4874     1.0  0.55864  0.24030  0.82133  1.0000
  C   C4875     1.0  0.57746  0.23280  0.81851  1.0000
  C   C4876     1.0  0.62110  0.21518  0.86314  1.0000
  C   C4877     1.0  0.62371  0.20579  0.88062  1.0000
  C   C4878     1.0  0.62001  0.18826  0.88730  1.0000
  C   C4879     1.0  0.61378  0.18009  0.87651  1.0000
  C   C4880     1.0  0.61117  0.18944  0.85908  1.0000
  C   C4881     1.0  0.61560  0.20249  0.81520  1.0000
  C   C4882     1.0  0.63280  0.19865  0.80359  1.0000
  C   C4883     1.0  0.63651  0.18504  0.79346  1.0000
  C   C4884     1.0  0.62309  0.17523  0.79472  1.0000
  C   C4885     1.0  0.60586  0.17915  0.80595  1.0000
  C   C4886     1.0  0.60215  0.19261  0.81623  1.0000
  H   H3903     1.0  0.67120  0.23737  0.81572  1.0000
  H   H3904     1.0  0.65991  0.26879  0.79968  1.0000
  H   H3905     1.0  0.62732  0.27852  0.79649  1.0000
  H   H3906     1.0  0.60604  0.25709  0.80923  1.0000
  H   H3907     1.0  0.65007  0.21601  0.82892  1.0000
  H   H3908     1.0  0.58591  0.23681  0.85839  1.0000
  H   H3909     1.0  0.55265  0.24992  0.86321  1.0000
  H   H3910     1.0  0.53502  0.25171  0.83982  1.0000
  H   H3911     1.0  0.55085  0.24101  0.81118  1.0000
  H   H3912     1.0  0.58406  0.22812  0.80592  1.0000
  H   H3913     1.0  0.62392  0.22879  0.85826  1.0000
  H   H3914     1.0  0.62865  0.21208  0.88897  1.0000
  H   H3915     1.0  0.62187  0.18097  0.90084  1.0000
  H   H3916     1.0  0.61078  0.16653  0.88170  1.0000
  H   H3917     1.0  0.60628  0.18290  0.85102  1.0000
  H   H3918     1.0  0.64368  0.20556  0.80275  1.0000
  H   H3919     1.0  0.65005  0.18163  0.78515  1.0000
  H   H3920     1.0  0.62619  0.16426  0.78736  1.0000
  H   H3921     1.0  0.59548  0.17142  0.80705  1.0000
  H   H3922     1.0  0.58887  0.19491  0.82530  1.0000
  C   C4887     1.0  0.55396  0.97643  0.71722  1.0000
  H   H3923     1.0  0.49551  0.14794  0.89189  1.0000
  H   H3924     1.0  0.65995  0.09536  0.80276  1.0000
  C   C4888     1.0  0.61388  0.45160  0.87984  1.0000
  C   C4889     1.0  0.49411  0.08467  0.76979  1.0000
  C   C4890     1.0  0.48720  0.00003  0.74894  1.0000
  C   C4891     1.0  0.50738  0.04753  0.88494  1.0000
  H   H3925     1.0  0.50621  0.20401  0.90010  1.0000
  H   H3926     1.0  0.49708  0.17261  0.90582  1.0000
  H   H3927     1.0  0.51796  0.18527  0.77901  1.0000
  H   H3928     1.0  0.51696  0.35587  0.77156  1.0000
  C   C4892     1.0  0.51505  0.35768  0.85991  1.0000
  C   C4893     1.0  0.49960  0.34847  0.89697  1.0000
  C   C4894     1.0  0.62386  0.44599  0.90845  1.0000
  H   H3929     1.0  0.53228  0.37251  0.74269  1.0000
  C   C4895     1.0  0.51262  0.35961  0.89119  1.0000
  H   H3930     1.0  0.51411  0.41682  0.94455  1.0000
  C   C4896     1.0  0.59292  0.03998  0.87814  1.0000
  H   H3931     1.0  0.49397  0.40819  0.73930  1.0000
  C   C4897     1.0  0.54141  0.44497  0.85541  1.0000
  S   S669      1.0  0.51542  0.99600  0.85547  1.0000
  C   C4898     1.0  0.68655  0.09311  0.94255  1.0000
  H   H3932     1.0  0.67677  0.43028  0.88816  1.0000
  C   C4899     1.0  0.71681  0.46427  0.88844  1.0000
  C   C4900     1.0  0.57471  0.99738  0.82806  1.0000
  S   S670      1.0  0.49502  0.44136  0.82996  1.0000
  C   C4901     1.0  0.73356  0.38766  0.81233  1.0000
  H   H3933     1.0  0.66869  0.31548  0.73716  1.0000
  H   H3934     1.0  0.61376  0.18940  0.94898  1.0000
  H   H3935     1.0  0.69284  0.08009  0.79769  1.0000
  H   H3936     1.0  0.50449  0.14806  0.85739  1.0000
  C   C4902     1.0  0.69968  0.15786  0.76205  1.0000
  C   C4903     1.0  0.71802  0.37649  0.79492  1.0000
  S   S671      1.0  0.71501  0.45279  0.87220  1.0000
  H   H3937     1.0  0.51612  0.43016  0.71869  1.0000
  H   H3938     1.0  0.63840  0.20247  0.92562  1.0000
  Fe  Fe338     1.0  0.48936  0.42023  0.77587  1.0000
  H   H3939     1.0  0.72037  0.38855  0.86872  1.0000
  C   C4904     1.0  0.57768  0.03216  0.88059  1.0000
  C   C4905     1.0  0.53905  0.00676  0.73374  1.0000
  H   H3940     1.0  0.49477  0.45446  0.86141  1.0000
  Fe  Fe339     1.0  0.48733  0.03023  0.80222  1.0000
  C   C4906     1.0  0.54146  0.98929  0.74469  1.0000
  P   P161      1.0  0.56073  0.00380  0.88109  1.0000
  C   C4907     1.0  0.68669  0.11629  0.95841  1.0000
  H   H3941     1.0  0.50858  0.04661  0.85699  1.0000
  C   C4908     1.0  0.68145  0.41886  0.88127  1.0000
  H   H3942     1.0  0.66328  0.44923  0.85292  1.0000
  S   S672      1.0  0.54786  0.45634  0.91584  1.0000
  C   C4909     1.0  0.69522  0.11728  0.76299  1.0000
  H   H3943     1.0  0.69708  0.34119  0.82569  1.0000
  H   H3944     1.0  0.69055  0.20378  0.74692  1.0000
  C   C4910     1.0  0.63903  0.46442  0.88147  1.0000
  H   H3945     1.0  0.49848  0.34119  0.85558  1.0000
  H   H3946     1.0  0.50345  0.22528  0.83007  1.0000
  C   C4911     1.0  0.53098  0.47031  0.78434  1.0000
  C   C4912     1.0  0.68182  0.12981  0.94364  1.0000
  C   C4913     1.0  0.67919  0.12508  0.92820  1.0000
  C   C4914     1.0  0.68165  0.10660  0.92775  1.0000
  P   P162      1.0  0.67137  0.14288  0.91000  1.0000
  C   C4915     1.0  0.65258  0.15808  0.92126  1.0000
  C   C4916     1.0  0.68944  0.15462  0.89644  1.0000
  C   C4917     1.0  0.68756  0.16526  0.87909  1.0000
  H   H3947     1.0  0.71109  0.24886  0.80405  1.0000
  C   C4918     1.0  0.55453  0.06183  0.91801  1.0000
  H   H3948     1.0  0.50390  0.30306  0.78161  1.0000
  C   C4919     1.0  0.70568  0.15276  0.90257  1.0000
  C   C4920     1.0  0.63866  0.15082  0.93457  1.0000
  H   H3949     1.0  0.60394  0.12183  0.95762  1.0000
  H   H3950     1.0  0.54272  0.13817  0.92880  1.0000
  C   C4921     1.0  0.59803  0.00395  0.87447  1.0000
  C   C4922     1.0  0.65238  0.17681  0.91801  1.0000
  C   C4923     1.0  0.66401  0.13378  0.89428  1.0000
  C   C4924     1.0  0.67731  0.12430  0.88195  1.0000
  C   C4925     1.0  0.67210  0.11812  0.86888  1.0000
  C   C4926     1.0  0.65362  0.12144  0.86792  1.0000
  C   C4927     1.0  0.64035  0.13115  0.87987  1.0000
  C   C4928     1.0  0.64544  0.13715  0.89315  1.0000
  C   C4929     1.0  0.62736  0.46204  0.87121  1.0000
  C   C4930     1.0  0.60448  0.44753  0.81418  1.0000
  H   H3951     1.0  0.49261  0.18586  0.95865  1.0000
  H   H3952     1.0  0.67972  0.14397  0.94444  1.0000
  H   H3953     1.0  0.67907  0.10249  0.91641  1.0000
  H   H3954     1.0  0.67529  0.16674  0.87389  1.0000
  C   C4931     1.0  0.49718  0.20496  0.91325  1.0000
  C   C4932     1.0  0.68525  0.34619  0.83553  1.0000
  C   C4933     1.0  0.70532  0.16542  0.72903  1.0000
  H   H3955     1.0  0.70767  0.14449  0.91573  1.0000
  H   H3956     1.0  0.63887  0.13632  0.93761  1.0000
  C   C4934     1.0  0.72856  0.22736  0.84936  1.0000
  H   H3957     1.0  0.69550  0.45034  0.83854  1.0000
  H   H3958     1.0  0.60019  0.99007  0.87266  1.0000
  H   H3959     1.0  0.53512  0.42815  0.95620  1.0000
  H   H3960     1.0  0.69175  0.12188  0.88232  1.0000
  H   H3961     1.0  0.68241  0.11097  0.85929  1.0000
  H   H3962     1.0  0.64959  0.11670  0.85775  1.0000
  H   H3963     1.0  0.62607  0.13394  0.87882  1.0000
  H   H3964     1.0  0.63485  0.14439  0.90239  1.0000
  H   H3965     1.0  0.54117  0.11372  0.91453  1.0000
  C   C4935     1.0  0.56476  0.99433  0.86096  1.0000
  H   H3966     1.0  0.49207  0.08293  0.74309  1.0000
  H   H3967     1.0  0.52104  0.46491  0.79586  1.0000
  C   C4936     1.0  0.49288  0.46913  0.95749  1.0000
  C   C4937     1.0  0.73339  0.40393  0.79933  1.0000
  C   C4938     1.0  0.50613  0.18933  0.78930  1.0000
  H   H3968     1.0  0.70913  0.41399  0.88539  1.0000
  C   C4939     1.0  0.72590  0.24032  0.72592  1.0000
  C   C4940     1.0  0.71793  0.39268  0.78187  1.0000
  C   C4941     1.0  0.54588  0.30726  0.84251  1.0000
  C   C4942     1.0  0.53932  0.30700  0.86113  1.0000
  C   C4943     1.0  0.54537  0.31762  0.86970  1.0000
  C   C4944     1.0  0.55791  0.32863  0.85962  1.0000
  C   C4945     1.0  0.56433  0.32922  0.84083  1.0000
  C   C4946     1.0  0.55847  0.31820  0.83240  1.0000
  P   P163      1.0  0.58101  0.34298  0.82795  1.0000
  C   C4947     1.0  0.57694  0.36247  0.83838  1.0000
  C   C4948     1.0  0.60395  0.32955  0.82806  1.0000
  C   C4949     1.0  0.61909  0.33811  0.82320  1.0000
  C   C4950     1.0  0.63683  0.32776  0.82318  1.0000
  C   C4951     1.0  0.63964  0.30876  0.82787  1.0000
  C   C4952     1.0  0.62470  0.30009  0.83256  1.0000
  C   C4953     1.0  0.60690  0.31042  0.83266  1.0000
  C   C4954     1.0  0.56153  0.37642  0.83612  1.0000
  C   C4955     1.0  0.55761  0.39112  0.84481  1.0000
  C   C4956     1.0  0.56911  0.39217  0.85575  1.0000
  C   C4957     1.0  0.58440  0.37825  0.85827  1.0000
  C   C4958     1.0  0.58819  0.36333  0.84983  1.0000
  C   C4959     1.0  0.57747  0.35123  0.80476  1.0000
  C   C4960     1.0  0.59238  0.35334  0.79003  1.0000
  C   C4961     1.0  0.58944  0.35972  0.77219  1.0000
  C   C4962     1.0  0.57162  0.36433  0.76889  1.0000
  C   C4963     1.0  0.55672  0.36230  0.78344  1.0000
  C   C4964     1.0  0.55961  0.35579  0.80127  1.0000
  H   H3969     1.0  0.54111  0.29907  0.83586  1.0000
  H   H3970     1.0  0.52955  0.29859  0.86893  1.0000
  H   H3971     1.0  0.54016  0.31749  0.88412  1.0000
  H   H3972     1.0  0.56244  0.33675  0.86651  1.0000
  H   H3973     1.0  0.56353  0.31812  0.81801  1.0000
  H   H3974     1.0  0.61721  0.35282  0.81925  1.0000
  H   H3975     1.0  0.64847  0.33449  0.81922  1.0000
  H   H3976     1.0  0.65344  0.30076  0.82765  1.0000
  H   H3977     1.0  0.62696  0.28535  0.83599  1.0000
  H   H3978     1.0  0.59557  0.30340  0.83623  1.0000
  H   H3979     1.0  0.55240  0.37597  0.82774  1.0000
  H   H3980     1.0  0.54557  0.40166  0.84307  1.0000
  H   H3981     1.0  0.56612  0.40375  0.86228  1.0000
  H   H3982     1.0  0.59330  0.37901  0.86681  1.0000
  H   H3983     1.0  0.59982  0.35254  0.85238  1.0000
  H   H3984     1.0  0.60628  0.35044  0.79215  1.0000
  H   H3985     1.0  0.60099  0.36167  0.76096  1.0000
  H   H3986     1.0  0.56933  0.36996  0.75514  1.0000
  H   H3987     1.0  0.54288  0.36605  0.78100  1.0000
  H   H3988     1.0  0.54782  0.35451  0.81232  1.0000
  C   C4965     1.0  0.63429  0.03683  0.93686  1.0000
  H   H3989     1.0  0.73160  0.13463  0.76976  1.0000
  C   C4966     1.0  0.64429  0.04260  0.94638  1.0000
  C   C4967     1.0  0.52303  0.45074  0.86336  1.0000
  H   H3990     1.0  0.51762  0.11840  0.89603  1.0000
  C   C4968     1.0  0.61210  0.44371  0.89841  1.0000
  C   C4969     1.0  0.57187  0.00427  0.84383  1.0000
  H   H3991     1.0  0.50443  0.45050  0.74070  1.0000
  H   H3992     1.0  0.53669  0.02318  0.85480  1.0000
  H   H3993     1.0  0.49419  0.00111  0.77376  1.0000
  C   C4970     1.0  0.69449  0.18943  0.74643  1.0000
  C   C4971     1.0  0.49264  0.34365  0.81612  1.0000
  C   C4972     1.0  0.69435  0.30507  0.72046  1.0000
  C   C4973     1.0  0.51575  0.04038  0.90004  1.0000
  C   C4974     1.0  0.53186  0.02703  0.89884  1.0000
  C   C4975     1.0  0.67651  0.12553  0.76565  1.0000
  H   H3994     1.0  0.64836  0.33245  0.86582  1.0000
  C   C4976     1.0  0.50816  0.26856  0.89741  1.0000
  H   H3995     1.0  0.58496  0.98353  0.90719  1.0000
  H   H3996     1.0  0.69256  0.40757  0.72627  1.0000
  H   H3997     1.0  0.58216  0.09248  0.89757  1.0000
  C   C4977     1.0  0.61925  0.46313  0.83496  1.0000
  C   C4978     1.0  0.71742  0.28278  0.76682  1.0000
  H   H3998     1.0  0.50634  0.15088  0.95985  1.0000
  H   H3999     1.0  0.54424  0.05610  0.91527  1.0000
  H   H4000     1.0  0.52233  0.32322  0.78594  1.0000
  C   C4979     1.0  0.52018  0.36439  0.87265  1.0000
  C   C4980     1.0  0.70537  0.15218  0.74525  1.0000
  Fe  Fe340     1.0  0.55148  0.46464  0.88540  1.0000
  H   H4001     1.0  0.70014  0.19405  0.71708  1.0000
  C   C4981     1.0  0.71946  0.26517  0.77759  1.0000
  H   H4002     1.0  0.70045  0.18151  0.85445  1.0000
  H   H4003     1.0  0.50105  0.00037  0.74121  1.0000
  C   C4982     1.0  0.50209  0.34645  0.86564  1.0000
  C   C4983     1.0  0.72561  0.40640  0.78407  1.0000
  C   C4984     1.0  0.63090  0.45305  0.82220  1.0000
  C   C4985     1.0  0.51806  0.45038  0.73221  1.0000
  H   H4004     1.0  0.72342  0.41209  0.72469  1.0000
  C   C4986     1.0  0.63509  0.05231  0.96011  1.0000
  C   C4987     1.0  0.69777  0.11450  0.72170  1.0000
  C   C4988     1.0  0.56249  0.07503  0.90458  1.0000
  C   C4989     1.0  0.68831  0.09272  0.78866  1.0000
  C   C4990     1.0  0.72111  0.26547  0.84045  1.0000
  H   H4005     1.0  0.57482  0.01756  0.84258  1.0000
  H   H4006     1.0  0.62698  0.00402  0.86852  1.0000
  H   H4007     1.0  0.57217  0.97542  0.81697  1.0000
  H   H4008     1.0  0.73246  0.15968  0.89608  1.0000
  C   C4991     1.0  0.49553  0.32519  0.82471  1.0000
  C   C4992     1.0  0.48934  0.30501  0.89376  1.0000
  C   C4993     1.0  0.49934  0.17612  0.80371  1.0000
  H   H4009     1.0  0.72528  0.23271  0.73986  1.0000
  H   H4010     1.0  0.71208  0.36591  0.79326  1.0000
  C   C4994     1.0  0.56648  0.18690  0.88762  1.0000
  C   C4995     1.0  0.56837  0.20358  0.88999  1.0000
  C   C4996     1.0  0.55599  0.21199  0.90351  1.0000
  C   C4997     1.0  0.54185  0.20356  0.91481  1.0000
  C   C4998     1.0  0.54003  0.18667  0.91262  1.0000
  C   C4999     1.0  0.55237  0.17847  0.89885  1.0000
  P   P164      1.0  0.52227  0.17557  0.92784  1.0000
  C   C5000     1.0  0.51982  0.15721  0.91864  1.0000
  H   H4011     1.0  0.69008  0.18062  0.77565  1.0000
  C   C5001     1.0  0.51652  0.10952  0.84023  1.0000
  S   S673      1.0  0.68378  0.31324  0.80218  1.0000
  H   H4012     1.0  0.55244  0.17795  0.94423  1.0000
  H   H4013     1.0  0.52110  0.36119  0.84553  1.0000
  H   H4014     1.0  0.48573  0.43921  0.93579  1.0000
  C   C5002     1.0  0.66977  0.10122  0.79145  1.0000
  H   H4015     1.0  0.62188  0.44055  0.92301  1.0000
  C   C5003     1.0  0.51804  0.12913  0.90253  1.0000
  C   C5004     1.0  0.52840  0.16588  0.94991  1.0000
  C   C5005     1.0  0.68898  0.09794  0.95790  1.0000
  C   C5006     1.0  0.50137  0.19276  0.92922  1.0000
  H   H4016     1.0  0.51484  0.25431  0.89902  1.0000
  S   S674      1.0  0.72112  0.20000  0.77660  1.0000
  C   C5007     1.0  0.48463  0.34318  0.75681  1.0000
  H   H4017     1.0  0.65916  0.03967  0.94307  1.0000
  H   H4018     1.0  0.57584  0.18039  0.87702  1.0000
  H   H4019     1.0  0.57943  0.20995  0.88136  1.0000
  H   H4020     1.0  0.55740  0.22496  0.90531  1.0000
  H   H4021     1.0  0.53241  0.21012  0.92536  1.0000
  H   H4022     1.0  0.55114  0.16567  0.89655  1.0000
  H   H4023     1.0  0.68141  0.43074  0.77719  1.0000
  C   C5008     1.0  0.50488  0.11420  0.82780  1.0000
  C   C5009     1.0  0.55993  0.05595  0.93490  1.0000
  C   C5010     1.0  0.50146  0.27736  0.88157  1.0000
  C   C5011     1.0  0.67323  0.33474  0.84568  1.0000
  C   C5012     1.0  0.53118  0.02795  0.86747  1.0000
  C   C5013     1.0  0.65775  0.34131  0.85805  1.0000
  H   H4024     1.0  0.49338  0.36874  0.75258  1.0000
  H   H4025     1.0  0.50555  0.10480  0.81924  1.0000
  C   C5014     1.0  0.54375  0.16949  0.95412  1.0000
  C   C5015     1.0  0.60575  0.05074  0.95474  1.0000
  C   C5016     1.0  0.57047  0.98053  0.82924  1.0000
  H   H4026     1.0  0.54996  0.44453  0.78525  1.0000
  H   H4027     1.0  0.68756  0.11018  0.73344  1.0000
  H   H4028     1.0  0.49408  0.34474  0.91143  1.0000
  P   P165      1.0  0.71145  0.12807  0.74489  1.0000
  H   H4029     1.0  0.50317  0.26997  0.87086  1.0000
  C   C5017     1.0  0.51635  0.12181  0.85077  1.0000
  C   C5018     1.0  0.52894  0.46172  0.73372  1.0000
  C   C5019     1.0  0.69654  0.29477  0.79217  1.0000
  H   H4030     1.0  0.52592  0.11831  0.85987  1.0000
  H   H4031     1.0  0.50841  0.07782  0.76830  1.0000
  C   C5020     1.0  0.49378  0.34228  0.88416  1.0000
  S   S675      1.0  0.70842  0.39581  0.76269  1.0000
  C   C5021     1.0  0.61509  0.04085  0.94103  1.0000
  H   H4032     1.0  0.66036  0.40907  0.78533  1.0000
  S   S676      1.0  0.50024  0.03841  0.82107  1.0000
  H   H4033     1.0  0.53007  0.37321  0.86816  1.0000
  H   H4034     1.0  0.59095  0.05413  0.87898  1.0000
  H   H4035     1.0  0.48838  0.19884  0.87557  1.0000
  H   H4036     1.0  0.72619  0.36130  0.82006  1.0000
  C   C5022     1.0  0.67689  0.42466  0.79138  1.0000
  H   H4037     1.0  0.64203  0.36420  0.86965  1.0000
  H   H4038     1.0  0.57285  0.45603  0.75887  1.0000
  H   H4039     1.0  0.68779  0.07890  0.94239  1.0000
  S   S677      1.0  0.55923  0.44526  0.86587  1.0000
  C   C5023     1.0  0.55811  0.98610  0.90138  1.0000
  H   H4040     1.0  0.53821  0.02153  0.91062  1.0000
  C   C5024     1.0  0.49263  0.13100  0.82632  1.0000
  S   S678      1.0  0.72365  0.21087  0.81432  1.0000
  H   H4041     1.0  0.69938  0.22963  0.85866  1.0000
  C   C5025     1.0  0.50181  0.31731  0.77497  1.0000
  C   C5026     1.0  0.48492  0.08767  0.75554  1.0000
  H   H4042     1.0  0.50611  0.16201  0.80424  1.0000
  C   C5027     1.0  0.69990  0.18396  0.72966  1.0000
  H   H4043     1.0  0.71798  0.28021  0.83741  1.0000
  S   S679      1.0  0.53534  0.98560  0.76879  1.0000
  H   H4044     1.0  0.60101  0.43656  0.90528  1.0000
  C   C5028     1.0  0.67822  0.41998  0.82323  1.0000
  C   C5029     1.0  0.51224  0.32863  0.77735  1.0000
  C   C5030     1.0  0.67598  0.31405  0.72347  1.0000
  H   H4045     1.0  0.52296  0.20094  0.81405  1.0000
  H   H4046     1.0  0.55980  0.43392  0.83294  1.0000
  Fe  Fe341     1.0  0.71207  0.19043  0.80688  1.0000
  H   H4047     1.0  0.57976  0.00532  0.81485  1.0000
  C   C5031     1.0  0.69428  0.17638  0.76262  1.0000
  C   C5032     1.0  0.70605  0.39534  0.87035  1.0000
  C   C5033     1.0  0.66946  0.41372  0.87344  1.0000
  C   C5034     1.0  0.67566  0.39923  0.86405  1.0000
  C   C5035     1.0  0.69413  0.39018  0.86246  1.0000
  P   P166      1.0  0.66113  0.39491  0.85109  1.0000
  C   C5036     1.0  0.66615  0.37107  0.84984  1.0000
  C   C5037     1.0  0.63718  0.40129  0.86164  1.0000
  C   C5038     1.0  0.63170  0.39760  0.88075  1.0000
  C   C5039     1.0  0.61327  0.40257  0.88906  1.0000
  C   C5040     1.0  0.60015  0.41125  0.87836  1.0000
  C   C5041     1.0  0.60542  0.41468  0.85936  1.0000
  C   C5042     1.0  0.62380  0.40960  0.85101  1.0000
  C   C5043     1.0  0.65422  0.35939  0.86018  1.0000
  C   C5044     1.0  0.61322  0.01181  0.87208  1.0000
  C   C5045     1.0  0.51510  0.04130  0.86868  1.0000
  C   C5046     1.0  0.57222  0.97869  0.91128  1.0000
  C   C5047     1.0  0.68166  0.36429  0.83750  1.0000
  C   C5048     1.0  0.66642  0.40752  0.82794  1.0000
  C   C5049     1.0  0.69822  0.27714  0.80288  1.0000
  S   S680      1.0  0.69583  0.35098  0.75649  1.0000
  H   H4048     1.0  0.48600  0.29990  0.83114  1.0000
  C   C5050     1.0  0.50656  0.15979  0.90812  1.0000
  C   C5051     1.0  0.65999  0.40372  0.81411  1.0000
  H   H4049     1.0  0.60751  0.03627  0.93357  1.0000
  H   H4050     1.0  0.65553  0.42149  0.87428  1.0000
  H   H4051     1.0  0.69965  0.37956  0.85463  1.0000
  H   H4052     1.0  0.64171  0.39094  0.88926  1.0000
  H   H4053     1.0  0.60917  0.39995  0.90380  1.0000
  H   H4054     1.0  0.58589  0.41547  0.88475  1.0000
  H   H4055     1.0  0.59519  0.42136  0.85110  1.0000
  H   H4056     1.0  0.62739  0.41220  0.83631  1.0000
  H   H4057     1.0  0.69289  0.43771  0.80144  1.0000
  C   C5052     1.0  0.50598  0.27810  0.91120  1.0000
  H   H4058     1.0  0.56876  0.09596  0.95040  1.0000
  C   C5053     1.0  0.53380  0.37821  0.72823  1.0000
  H   H4059     1.0  0.69074  0.37317  0.82904  1.0000
  H   H4060     1.0  0.67581  0.32087  0.84370  1.0000
  C   C5054     1.0  0.57600  0.08221  0.90794  1.0000
  C   C5055     1.0  0.70675  0.25603  0.84835  1.0000
  H   H4061     1.0  0.49200  0.08741  0.79724  1.0000
  H   H4062     1.0  0.65128  0.39382  0.81730  1.0000
  H   H4063     1.0  0.71532  0.09390  0.77255  1.0000
  C   C5056     1.0  0.66516  0.41231  0.79594  1.0000
  C   C5057     1.0  0.63733  0.45633  0.89998  1.0000
  H   H4064     1.0  0.55368  0.04562  0.94502  1.0000
  H   H4065     1.0  0.54340  0.40124  0.73031  1.0000
  C   C5058     1.0  0.57343  0.06322  0.93841  1.0000
  C   C5059     1.0  0.53969  0.02071  0.88252  1.0000
  C   C5060     1.0  0.58163  0.07616  0.92466  1.0000
  C   C5061     1.0  0.68337  0.42853  0.80503  1.0000
  H   H4066     1.0  0.60424  0.45007  0.87254  1.0000
  H   H4067     1.0  0.59879  0.44133  0.80631  1.0000
  H   H4068     1.0  0.72530  0.41903  0.77409  1.0000
  H   H4069     1.0  0.62240  0.03608  0.87171  1.0000
  C   C5062     1.0  0.49561  0.35435  0.75875  1.0000
  H   H4070     1.0  0.59232  0.08167  0.92696  1.0000
  C   C5063     1.0  0.50565  0.14577  0.90015  1.0000
  H   H4071     1.0  0.55837  0.07958  0.89146  1.0000
  H   H4072     1.0  0.72495  0.28507  0.75294  1.0000
  H   H4073     1.0  0.51096  0.27124  0.92361  1.0000
  C   C5064     1.0  0.70177  0.17372  0.86801  1.0000
  C   C5065     1.0  0.49223  0.29555  0.87965  1.0000
  H   H4074     1.0  0.56413  0.04055  0.88325  1.0000
  C   C5066     1.0  0.71047  0.23698  0.85269  1.0000
  C   C5067     1.0  0.50919  0.34710  0.76918  1.0000
  H   H4075     1.0  0.64142  0.02929  0.92622  1.0000
  C   C5068     1.0  0.51104  0.41739  0.95884  1.0000
  H   H4076     1.0  0.49489  0.30338  0.92030  1.0000
  C   C5069     1.0  0.63835  0.18809  0.92792  1.0000
  H   H4077     1.0  0.67172  0.13829  0.75693  1.0000
  C   C5070     1.0  0.70101  0.10066  0.77442  1.0000
  H   H4078     1.0  0.69936  0.14794  0.77476  1.0000
  P   P167      1.0  0.58097  0.05571  0.95995  1.0000
  H   H4079     1.0  0.52588  0.09643  0.84150  1.0000
  C   C5071     1.0  0.66386  0.11754  0.77987  1.0000
  H   H4080     1.0  0.69088  0.27496  0.81689  1.0000
  H   H4081     1.0  0.64951  0.12419  0.78229  1.0000
  C   C5072     1.0  0.62447  0.18075  0.94109  1.0000
  C   C5073     1.0  0.48820  0.32449  0.76458  1.0000
  H   H4082     1.0  0.49145  0.44744  0.90226  1.0000
  H   H4083     1.0  0.49461  0.18609  0.84799  1.0000
  C   C5074     1.0  0.72603  0.37390  0.81002  1.0000
  C   C5075     1.0  0.50413  0.13864  0.84934  1.0000
  H   H4084     1.0  0.73157  0.21259  0.85280  1.0000
  H   H4085     1.0  0.64594  0.45873  0.90795  1.0000
  H   H4086     1.0  0.48721  0.30211  0.86721  1.0000
  H   H4087     1.0  0.49074  0.42526  0.88421  1.0000
  H   H4088     1.0  0.72534  0.26545  0.73304  1.0000
  C   C5076     1.0  0.73291  0.46075  0.89516  1.0000
  H   H4089     1.0  0.50325  0.21794  0.77721  1.0000
  C   C5077     1.0  0.48862  0.43407  0.90912  1.0000
  C   C5078     1.0  0.49183  0.14318  0.83742  1.0000
  C   C5079     1.0  0.48483  0.09022  0.78611  1.0000
  C   C5080     1.0  0.71982  0.16133  0.89146  1.0000
  C   C5081     1.0  0.68463  0.46118  0.83390  1.0000
  C   C5082     1.0  0.52971  0.36919  0.71667  1.0000
  C   C5083     1.0  0.56071  0.97732  0.86204  1.0000
  C   C5084     1.0  0.71789  0.17172  0.87418  1.0000
  C   C5085     1.0  0.48827  0.42159  0.89899  1.0000
  C   C5086     1.0  0.48957  0.19468  0.94606  1.0000
  H   H4090     1.0  0.57708  0.41585  0.71738  1.0000
  C   C5087     1.0  0.60015  0.46518  0.83727  1.0000
  H   H4091     1.0  0.72523  0.31716  0.78645  1.0000
  C   C5088     1.0  0.51797  0.15418  0.96296  1.0000
  C   C5089     1.0  0.72617  0.25891  0.72197  1.0000
  H   H4092     1.0  0.49483  0.05775  0.88585  1.0000
  C   C5090     1.0  0.52473  0.43876  0.71978  1.0000
  H   H4093     1.0  0.52477  0.35656  0.72219  1.0000
  C   C5091     1.0  0.54006  0.39456  0.72115  1.0000
  H   H4094     1.0  0.53059  0.98518  0.89996  1.0000
  C   C5092     1.0  0.54164  0.97959  0.90739  1.0000
  C   C5093     1.0  0.51608  0.97240  0.86144  1.0000
  H   H4095     1.0  0.51144  0.97172  0.89023  1.0000
  C   C5094     1.0  0.54408  0.00902  0.71460  1.0000
  C   C5095     1.0  0.73367  0.31593  0.71854  1.0000
  C   C5096     1.0  0.48541  0.42934  0.92817  1.0000
  H   H4096     1.0  0.73385  0.28518  0.80206  1.0000
  C   C5097     1.0  0.73369  0.46989  0.90846  1.0000
  H   H4097     1.0  0.72903  0.17801  0.86545  1.0000
  H   H4098     1.0  0.72648  0.21712  0.71513  1.0000
  H   H4099     1.0  0.48432  0.39478  0.90002  1.0000
  C   C5098     1.0  0.48470  0.40437  0.90792  1.0000
  C   C5099     1.0  0.48428  0.18129  0.81735  1.0000
  H   H4100     1.0  0.55473  0.47059  0.72348  1.0000
  C   C5100     1.0  0.49069  0.97646  0.71425  1.0000
  C   C5101     1.0  0.51103  0.95849  0.17226  1.0000
  H   H4101     1.0  0.50630  0.85121  0.00292  1.0000
  C   C5102     1.0  0.70873  0.82081  0.01306  1.0000
  S   S681      1.0  0.70644  0.91256  0.06003  1.0000
  C   C5103     1.0  0.63666  0.49872  0.06529  1.0000
  H   H4102     1.0  0.65752  0.48612  0.12130  1.0000
  H   H4103     1.0  0.56029  0.54623  0.05749  1.0000
  C   C5104     1.0  0.64350  0.50757  0.16323  1.0000
  C   C5105     1.0  0.61283  0.96028  0.08875  1.0000
  H   H4104     1.0  0.49682  0.50151  0.14396  1.0000
  H   H4105     1.0  0.48537  0.92143  0.96994  1.0000
  C   C5106     1.0  0.56323  0.90670  0.17186  1.0000
  H   H4106     1.0  0.62403  0.88461  0.11527  1.0000
  Fe  Fe342     1.0  0.58830  0.92623  0.02424  1.0000
  S   S682      1.0  0.57519  0.95600  0.01966  1.0000
  S   S683      1.0  0.58740  0.90566  0.00828  1.0000
  Fe  Fe343     1.0  0.60525  0.92834  0.05538  1.0000
  H   H4107     1.0  0.51056  0.47441  0.99162  1.0000
  S   S684      1.0  0.62097  0.91325  0.07780  1.0000
  Fe  Fe344     1.0  0.56764  0.95138  0.05026  1.0000
  H   H4108     1.0  0.65289  0.96920  0.00909  1.0000
  C   C5107     1.0  0.73107  0.62031  0.00811  1.0000
  S   S685      1.0  0.57879  0.92121  0.05476  1.0000
  S   S686      1.0  0.61582  0.93092  0.02521  1.0000
  Fe  Fe345     1.0  0.70382  0.53874  0.10553  1.0000
  H   H4109     1.0  0.72460  0.67088  0.13498  1.0000
  S   S687      1.0  0.71088  0.56444  0.10872  1.0000
  Fe  Fe346     1.0  0.67195  0.52130  0.10612  1.0000
  Fe  Fe347     1.0  0.70519  0.51991  0.07469  1.0000
  S   S688      1.0  0.71565  0.51796  0.04512  1.0000
  S   S689      1.0  0.68531  0.54297  0.08576  1.0000
  H   H4110     1.0  0.55099  0.51650  0.20308  1.0000
  H   H4111     1.0  0.57481  0.51395  0.05874  1.0000
  C   C5108     1.0  0.67801  0.95103  0.08721  1.0000
  H   H4112     1.0  0.49684  0.87400  0.16160  1.0000
  C   C5109     1.0  0.61264  0.51058  0.18193  1.0000
  H   H4113     1.0  0.61601  0.86785  0.01533  1.0000
  C   C5110     1.0  0.72896  0.67933  0.14167  1.0000
  C   C5111     1.0  0.57773  0.51204  0.20996  1.0000
  P   P168      1.0  0.61293  0.49566  0.04470  1.0000
  S   S690      1.0  0.65517  0.52893  0.99867  1.0000
  H   H4114     1.0  0.68348  0.73176  0.96637  1.0000
  H   H4115     1.0  0.56740  0.90961  0.11066  1.0000
  H   H4116     1.0  0.51787  0.95597  0.03041  1.0000
  H   H4117     1.0  0.69532  0.96152  0.05053  1.0000
  C   C5112     1.0  0.61277  0.50585  0.12077  1.0000
  C   C5113     1.0  0.68522  0.69398  0.01356  1.0000
  C   C5114     1.0  0.58052  0.90434  0.17611  1.0000
  S   S691      1.0  0.52229  0.48396  0.18788  1.0000
  C   C5115     1.0  0.55426  0.95639  0.12520  1.0000
  H   H4118     1.0  0.53384  0.90770  0.12761  1.0000
  S   S692      1.0  0.72491  0.51733  0.09262  1.0000
  C   C5116     1.0  0.55796  0.52624  0.14367  1.0000
  C   C5117     1.0  0.70898  0.77835  0.97708  1.0000
  C   C5118     1.0  0.66834  0.48237  0.04355  1.0000
  C   C5119     1.0  0.48638  0.91892  0.20797  1.0000
  C   C5120     1.0  0.72879  0.67422  0.16035  1.0000
  H   H4119     1.0  0.68092  0.83056  0.09131  1.0000
  C   C5121     1.0  0.69722  0.84043  0.98694  1.0000
  H   H4120     1.0  0.63887  0.95243  0.07147  1.0000
  H   H4121     1.0  0.52314  0.89844  0.04939  1.0000
  C   C5122     1.0  0.67202  0.52534  0.01170  1.0000
  C   C5123     1.0  0.66707  0.53032  0.02879  1.0000
  C   C5124     1.0  0.68035  0.52771  0.03929  1.0000
  C   C5125     1.0  0.69866  0.52030  0.03268  1.0000
  C   C5126     1.0  0.70359  0.51500  0.01577  1.0000
  C   C5127     1.0  0.69029  0.51751  0.00529  1.0000
  H   H4122     1.0  0.65302  0.53636  0.03391  1.0000
  H   H4123     1.0  0.67645  0.53148  0.05248  1.0000
  H   H4124     1.0  0.71776  0.50920  0.01065  1.0000
  H   H4125     1.0  0.69418  0.51340  0.99226  1.0000
  H   H4126     1.0  0.55015  0.53163  0.13294  1.0000
  H   H4127     1.0  0.50884  0.88155  0.00651  1.0000
  C   C5128     1.0  0.65719  0.74183  0.98239  1.0000
  H   H4128     1.0  0.55676  0.96771  0.09637  1.0000
  C   C5129     1.0  0.50011  0.92895  0.09614  1.0000
  C   C5130     1.0  0.51478  0.92307  0.08259  1.0000
  C   C5131     1.0  0.52752  0.93416  0.07324  1.0000
  C   C5132     1.0  0.52544  0.95130  0.07720  1.0000
  C   C5133     1.0  0.51070  0.95721  0.09071  1.0000
  C   C5134     1.0  0.49816  0.94596  0.10033  1.0000
  H   H4129     1.0  0.51622  0.90996  0.07926  1.0000
  H   H4130     1.0  0.53858  0.92967  0.06257  1.0000
  H   H4131     1.0  0.69051  0.64788  0.99012  1.0000
  H   H4132     1.0  0.70992  0.87616  0.21283  1.0000
  H   H4133     1.0  0.65801  0.52874  0.16107  1.0000
  H   H4134     1.0  0.62323  0.47978  0.97416  1.0000
  H   H4135     1.0  0.60406  0.51910  0.11775  1.0000
  H   H4136     1.0  0.49321  0.96869  0.05412  1.0000
  H   H4137     1.0  0.62352  0.85166  0.12291  1.0000
  C   C5135     1.0  0.50517  0.93376  0.03140  1.0000
  C   C5136     1.0  0.68281  0.91215  0.06512  1.0000
  C   C5137     1.0  0.67263  0.91932  0.05131  1.0000
  C   C5138     1.0  0.65365  0.91986  0.05510  1.0000
  C   C5139     1.0  0.64476  0.91292  0.07270  1.0000
  C   C5140     1.0  0.65496  0.90558  0.08650  1.0000
  C   C5141     1.0  0.67391  0.90525  0.08275  1.0000
  H   H4138     1.0  0.67945  0.92447  0.03762  1.0000
  H   H4139     1.0  0.64593  0.92569  0.04439  1.0000
  H   H4140     1.0  0.64823  0.90027  0.10016  1.0000
  H   H4141     1.0  0.68155  0.89982  0.09355  1.0000
  C   C5142     1.0  0.59702  0.89223  0.13124  1.0000
  H   H4142     1.0  0.70806  0.59329  0.97097  1.0000
  C   C5143     1.0  0.51361  0.89141  0.02845  1.0000
  C   C5144     1.0  0.66137  0.81435  0.01835  1.0000
  C   C5145     1.0  0.71516  0.88372  0.16661  1.0000
  C   C5146     1.0  0.55593  0.92533  0.99590  1.0000
  C   C5147     1.0  0.57050  0.91035  0.99493  1.0000
  C   C5148     1.0  0.57153  0.89858  0.98336  1.0000
  H   H4143     1.0  0.55495  0.93444  0.00480  1.0000
  C   C5149     1.0  0.68856  0.94199  0.10034  1.0000
  H   H4144     1.0  0.59592  0.84070  0.14278  1.0000
  H   H4145     1.0  0.65486  0.50157  0.08105  1.0000
  C   C5150     1.0  0.67133  0.91982  0.00188  1.0000
  H   H4146     1.0  0.58069  0.85230  0.20670  1.0000
  C   C5151     1.0  0.61800  0.50451  0.00647  1.0000
  C   C5152     1.0  0.50608  0.94959  0.03645  1.0000
  C   C5153     1.0  0.72767  0.54838  0.13835  1.0000
  C   C5154     1.0  0.67325  0.79991  0.01098  1.0000
  H   H4147     1.0  0.70336  0.84671  0.09523  1.0000
  H   H4148     1.0  0.70064  0.76311  0.04599  1.0000
  C   C5155     1.0  0.58118  0.88622  0.14218  1.0000
  C   C5156     1.0  0.61182  0.86123  0.12851  1.0000
  H   H4149     1.0  0.51215  0.94723  0.18382  1.0000
  C   C5157     1.0  0.68631  0.74541  0.98629  1.0000
  P   P169      1.0  0.49027  0.90336  0.03476  1.0000
  C   C5158     1.0  0.55332  0.51167  0.15755  1.0000
  H   H4150     1.0  0.67359  0.94313  0.07999  1.0000
  C   C5159     1.0  0.68194  0.68721  0.03239  1.0000
  H   H4151     1.0  0.54095  0.86618  0.99772  1.0000
  C   C5160     1.0  0.60182  0.51922  0.04462  1.0000
  C   C5161     1.0  0.58102  0.86751  0.14654  1.0000
  C   C5162     1.0  0.54734  0.91274  0.18426  1.0000
  C   C5163     1.0  0.56598  0.91338  0.20504  1.0000
  C   C5164     1.0  0.64042  0.87508  0.05042  1.0000
  H   H4152     1.0  0.68068  0.80264  0.99701  1.0000
  C   C5165     1.0  0.56012  0.92333  0.13352  1.0000
  C   C5166     1.0  0.58309  0.52415  0.05229  1.0000
  H   H4153     1.0  0.65450  0.50039  0.15416  1.0000
  H   H4154     1.0  0.62597  0.48893  0.16695  1.0000
  H   H4155     1.0  0.54174  0.50600  0.15770  1.0000
  C   C5167     1.0  0.55541  0.94037  0.13857  1.0000
  C   C5168     1.0  0.54344  0.91664  0.97395  1.0000
  S   S693      1.0  0.64100  0.52446  0.11146  1.0000
  C   C5169     1.0  0.61685  0.86999  0.20725  1.0000
  S   S694      1.0  0.59323  0.95811  0.05354  1.0000
  H   H4156     1.0  0.71747  0.65875  0.99959  1.0000
  C   C5170     1.0  0.71117  0.88746  0.18416  1.0000
  C   C5171     1.0  0.71593  0.71729  0.05425  1.0000
  C   C5172     1.0  0.64293  0.48732  0.12262  1.0000
  P   P170      1.0  0.71733  0.63777  0.03750  1.0000
  C   C5173     1.0  0.70418  0.65937  0.02790  1.0000
  H   H4157     1.0  0.71001  0.87689  0.00782  1.0000
  H   H4158     1.0  0.61314  0.88366  0.06545  1.0000
  H   H4159     1.0  0.55238  0.94140  0.15276  1.0000
  C   C5174     1.0  0.55007  0.87331  0.01869  1.0000
  C   C5175     1.0  0.69298  0.82489  0.16452  1.0000
  H   H4160     1.0  0.63743  0.90632  0.19875  1.0000
  C   C5176     1.0  0.70746  0.66635  0.00899  1.0000
  C   C5177     1.0  0.69798  0.68357  0.00189  1.0000
  C   C5178     1.0  0.62125  0.87832  0.05358  1.0000
  H   H4161     1.0  0.50093  0.91668  0.99548  1.0000
  C   C5179     1.0  0.72408  0.58109  0.12869  1.0000
  C   C5180     1.0  0.70328  0.62074  0.04752  1.0000
  C   C5181     1.0  0.68404  0.62543  0.05033  1.0000
  C   C5182     1.0  0.67345  0.61222  0.05927  1.0000
  C   C5183     1.0  0.68197  0.59431  0.06553  1.0000
  C   C5184     1.0  0.70112  0.58946  0.06249  1.0000
  C   C5185     1.0  0.71175  0.60254  0.05329  1.0000
  C   C5186     1.0  0.61218  0.87978  0.12430  1.0000
  H   H4162     1.0  0.71738  0.61778  0.01013  1.0000
  C   C5187     1.0  0.61250  0.87552  0.04102  1.0000
  C   C5188     1.0  0.62292  0.86928  0.02537  1.0000
  H   H4163     1.0  0.59519  0.90589  0.19591  1.0000
  H   H4164     1.0  0.67805  0.70739  0.00798  1.0000
  H   H4165     1.0  0.54320  0.87756  0.18090  1.0000
  C   C5189     1.0  0.56271  0.93857  0.10170  1.0000
  H   H4166     1.0  0.72993  0.47991  0.06220  1.0000
  C   C5190     1.0  0.71275  0.87315  0.19939  1.0000
  H   H4167     1.0  0.53649  0.92050  0.21040  1.0000
  H   H4168     1.0  0.70077  0.68897  0.98730  1.0000
  H   H4169     1.0  0.51219  0.94153  0.15361  1.0000
  C   C5191     1.0  0.69913  0.88883  0.00630  1.0000
  H   H4170     1.0  0.71267  0.87251  0.07109  1.0000
  H   H4171     1.0  0.67713  0.63923  0.04587  1.0000
  H   H4172     1.0  0.65860  0.61591  0.06165  1.0000
  H   H4173     1.0  0.67377  0.58420  0.07291  1.0000
  H   H4174     1.0  0.70770  0.57559  0.06759  1.0000
  C   C5192     1.0  0.69433  0.95192  0.10986  1.0000
  H   H4175     1.0  0.55535  0.88322  0.04011  1.0000
  C   C5193     1.0  0.72183  0.71222  0.19844  1.0000
  C   C5194     1.0  0.49192  0.85042  0.00754  1.0000
  H   H4176     1.0  0.66333  0.61664  0.97605  1.0000
  C   C5195     1.0  0.54252  0.92850  0.98537  1.0000
  S   S695      1.0  0.69056  0.49865  0.09344  1.0000
  H   H4177     1.0  0.60815  0.94806  0.08913  1.0000
  H   H4178     1.0  0.70057  0.88180  0.04306  1.0000
  H   H4179     1.0  0.50986  0.82936  0.97129  1.0000
  C   C5196     1.0  0.72170  0.55839  0.00575  1.0000
  C   C5197     1.0  0.59879  0.48105  0.06128  1.0000
  C   C5198     1.0  0.48766  0.50257  0.15703  1.0000
  C   C5199     1.0  0.61459  0.52693  0.18535  1.0000
  H   H4180     1.0  0.61796  0.51826  0.00723  1.0000
  C   C5200     1.0  0.69858  0.83334  0.02393  1.0000
  C   C5201     1.0  0.57268  0.53380  0.14365  1.0000
  H   H4181     1.0  0.63241  0.54593  0.18070  1.0000
  H   H4182     1.0  0.67897  0.80871  0.18839  1.0000
  C   C5202     1.0  0.66966  0.48833  0.05870  1.0000
  C   C5203     1.0  0.62721  0.50106  0.17062  1.0000
  H   H4183     1.0  0.56428  0.86692  0.01448  1.0000
  H   H4184     1.0  0.55976  0.49306  0.18190  1.0000
  H   H4185     1.0  0.71334  0.47765  0.00456  1.0000
  H   H4186     1.0  0.57979  0.48413  0.04367  1.0000
  S   S696      1.0  0.71397  0.87811  0.10714  1.0000
  P   P171      1.0  0.59075  0.50339  0.18979  1.0000
  C   C5204     1.0  0.51974  0.87426  0.17282  1.0000
  H   H4187     1.0  0.65325  0.90378  0.02116  1.0000
  C   C5205     1.0  0.57817  0.51210  0.17152  1.0000
  C   C5206     1.0  0.54876  0.91600  0.20079  1.0000
  C   C5207     1.0  0.51461  0.89112  0.14304  1.0000
  H   H4188     1.0  0.62255  0.51109  0.97706  1.0000
  C   C5208     1.0  0.58272  0.52683  0.15753  1.0000
  C   C5209     1.0  0.57476  0.54252  0.05164  1.0000
  C   C5210     1.0  0.63172  0.50450  0.11879  1.0000
  C   C5211     1.0  0.69361  0.84241  0.15414  1.0000
  C   C5212     1.0  0.64211  0.86587  0.02222  1.0000
  H   H4189     1.0  0.65058  0.48008  0.02726  1.0000
  H   H4190     1.0  0.69685  0.84325  0.97256  1.0000
  H   H4191     1.0  0.72406  0.86273  0.15078  1.0000
  P   P172      1.0  0.65006  0.87400  0.18251  1.0000
  C   C5213     1.0  0.64982  0.89328  0.16354  1.0000
  C   C5214     1.0  0.66689  0.85487  0.17524  1.0000
  C   C5215     1.0  0.68071  0.85738  0.15951  1.0000
  C   C5216     1.0  0.56385  0.92257  0.11495  1.0000
  H   H4192     1.0  0.70441  0.84446  0.14213  1.0000
  C   C5217     1.0  0.67933  0.82227  0.18022  1.0000
  H   H4193     1.0  0.65984  0.82799  0.01011  1.0000
  C   C5218     1.0  0.63703  0.89731  0.15218  1.0000
  C   C5219     1.0  0.63769  0.91178  0.13706  1.0000
  C   C5220     1.0  0.65114  0.92226  0.13314  1.0000
  C   C5221     1.0  0.66385  0.91836  0.14441  1.0000
  C   C5222     1.0  0.66318  0.90399  0.15955  1.0000
  C   C5223     1.0  0.62802  0.86718  0.19032  1.0000
  C   C5224     1.0  0.49041  0.92487  0.03986  1.0000
  H   H4194     1.0  0.65596  0.83496  0.19791  1.0000
  C   C5225     1.0  0.55800  0.90165  0.97296  1.0000
  C   C5226     1.0  0.60511  0.85308  0.18551  1.0000
  C   C5227     1.0  0.62211  0.85841  0.17964  1.0000
  C   C5228     1.0  0.54087  0.89351  0.15384  1.0000
  C   C5229     1.0  0.51873  0.88186  0.01414  1.0000
  C   C5230     1.0  0.52682  0.89135  0.03817  1.0000
  C   C5231     1.0  0.60503  0.49015  0.12656  1.0000
  C   C5232     1.0  0.61629  0.47298  0.13023  1.0000
  H   H4195     1.0  0.68190  0.87083  0.15147  1.0000
  C   C5233     1.0  0.72148  0.56448  0.12656  1.0000
  C   C5234     1.0  0.71233  0.71333  0.03900  1.0000
  H   H4196     1.0  0.53134  0.94018  0.98610  1.0000
  C   C5235     1.0  0.48788  0.51600  0.16610  1.0000
  H   H4197     1.0  0.62669  0.88926  0.15475  1.0000
  H   H4198     1.0  0.62796  0.91478  0.12819  1.0000
  H   H4199     1.0  0.65179  0.93329  0.12129  1.0000
  H   H4200     1.0  0.67452  0.92623  0.14130  1.0000
  H   H4201     1.0  0.67345  0.90094  0.16787  1.0000
  C   C5236     1.0  0.64807  0.75110  0.99651  1.0000
  C   C5237     1.0  0.69145  0.67002  0.03955  1.0000
  C   C5238     1.0  0.65382  0.49652  0.06955  1.0000
  H   H4202     1.0  0.60064  0.84630  0.17725  1.0000
  H   H4203     1.0  0.63069  0.85569  0.16676  1.0000
  S   S697      1.0  0.68879  0.51882  0.12694  1.0000
  C   C5239     1.0  0.50932  0.87913  0.15928  1.0000
  H   H4204     1.0  0.59763  0.87877  0.04307  1.0000
  H   H4205     1.0  0.61442  0.47523  0.08264  1.0000
  C   C5240     1.0  0.56352  0.50443  0.17129  1.0000
  H   H4206     1.0  0.67224  0.69543  0.04145  1.0000
  H   H4207     1.0  0.59296  0.89988  0.16675  1.0000
  C   C5241     1.0  0.63633  0.57910  0.98039  1.0000
  C   C5242     1.0  0.64373  0.57940  0.99504  1.0000
  C   C5243     1.0  0.65299  0.59327  0.99396  1.0000
  C   C5244     1.0  0.72522  0.77223  0.00177  1.0000
  P   P173      1.0  0.66305  0.59314  0.01273  1.0000
  C   C5245     1.0  0.64877  0.58384  0.03380  1.0000
  C   C5246     1.0  0.68598  0.57947  0.00990  1.0000
  C   C5247     1.0  0.69876  0.58189  0.01880  1.0000
  C   C5248     1.0  0.71652  0.57130  0.01683  1.0000
  C   C5249     1.0  0.71767  0.85506  0.19714  1.0000
  C   C5250     1.0  0.70915  0.55613  0.99660  1.0000
  C   C5251     1.0  0.69125  0.56640  0.99888  1.0000
  C   C5252     1.0  0.62956  0.58941  0.03649  1.0000
  C   C5253     1.0  0.61836  0.58196  0.05252  1.0000
  C   C5254     1.0  0.62621  0.56859  0.06579  1.0000
  C   C5255     1.0  0.64525  0.56288  0.06317  1.0000
  C   C5256     1.0  0.65655  0.57056  0.04732  1.0000
  C   C5257     1.0  0.66416  0.61630  0.01242  1.0000
  C   C5258     1.0  0.67887  0.62386  0.00091  1.0000
  C   C5259     1.0  0.67935  0.64209  0.99951  1.0000
  C   C5260     1.0  0.66523  0.65292  0.00971  1.0000
  C   C5261     1.0  0.65064  0.64549  0.02140  1.0000
  C   C5262     1.0  0.65007  0.62726  0.02275  1.0000
  H   H4208     1.0  0.51519  0.86545  0.18565  1.0000
  H   H4209     1.0  0.72605  0.76764  0.01602  1.0000
  C   C5263     1.0  0.62071  0.50049  0.98921  1.0000
  H   H4210     1.0  0.64261  0.56851  0.00698  1.0000
  C   C5264     1.0  0.65118  0.48439  0.03933  1.0000
  H   H4211     1.0  0.69491  0.59189  0.02733  1.0000
  C   C5265     1.0  0.59407  0.47878  0.19540  1.0000
  C   C5266     1.0  0.63517  0.49245  0.05027  1.0000
  H   H4212     1.0  0.71310  0.54601  0.98815  1.0000
  H   H4213     1.0  0.68166  0.56400  0.99203  1.0000
  H   H4214     1.0  0.62326  0.59944  0.02612  1.0000
  H   H4215     1.0  0.60357  0.58633  0.05455  1.0000
  H   H4216     1.0  0.61760  0.56250  0.07811  1.0000
  H   H4217     1.0  0.65116  0.55229  0.07342  1.0000
  H   H4218     1.0  0.67127  0.56580  0.04557  1.0000
  H   H4219     1.0  0.68972  0.61581  0.99254  1.0000
  C   C5267     1.0  0.65550  0.60630  0.97768  1.0000
  H   H4220     1.0  0.66548  0.66713  0.00836  1.0000
  H   H4221     1.0  0.63962  0.65394  0.02921  1.0000
  H   H4222     1.0  0.63852  0.62193  0.03170  1.0000
  Fe  Fe348     1.0  0.70867  0.49762  0.11247  1.0000
  H   H4223     1.0  0.56907  0.86246  0.15499  1.0000
  C   C5268     1.0  0.53029  0.89833  0.14028  1.0000
  C   C5269     1.0  0.68578  0.96304  0.04182  1.0000
  C   C5270     1.0  0.68922  0.92027  0.99201  1.0000
  H   H4224     1.0  0.71460  0.73834  0.06843  1.0000
  H   H4225     1.0  0.69983  0.83034  0.03804  1.0000
  H   H4226     1.0  0.63322  0.75337  0.00038  1.0000
  H   H4227     1.0  0.59753  0.90658  0.12763  1.0000
  C   C5271     1.0  0.59627  0.85509  0.13966  1.0000
  C   C5272     1.0  0.58502  0.55608  0.04329  1.0000
  C   C5273     1.0  0.60367  0.55125  0.03573  1.0000
  C   C5274     1.0  0.61205  0.53292  0.03658  1.0000
  C   C5275     1.0  0.53692  0.87293  0.00923  1.0000
  H   H4228     1.0  0.71375  0.71410  0.18823  1.0000
  C   C5276     1.0  0.68060  0.95967  0.01336  1.0000
  S   S698      1.0  0.54086  0.96566  0.06515  1.0000
  H   H4229     1.0  0.70325  0.81341  0.16049  1.0000
  H   H4230     1.0  0.62938  0.56822  0.98129  1.0000
  H   H4231     1.0  0.71663  0.69957  0.03654  1.0000
  H   H4232     1.0  0.53381  0.91486  0.18127  1.0000
  H   H4233     1.0  0.57850  0.57030  0.04257  1.0000
  H   H4234     1.0  0.61168  0.56165  0.02901  1.0000
  H   H4235     1.0  0.62647  0.52940  0.03056  1.0000
  C   C5277     1.0  0.71134  0.73522  0.05685  1.0000
  C   C5278     1.0  0.70808  0.82437  0.99459  1.0000
  C   C5279     1.0  0.67324  0.97011  0.08335  1.0000
  C   C5280     1.0  0.70420  0.72726  0.02631  1.0000
  C   C5281     1.0  0.69934  0.74531  0.02890  1.0000
  C   C5282     1.0  0.70328  0.74921  0.04414  1.0000
  P   P174      1.0  0.69037  0.76353  0.01164  1.0000
  C   C5283     1.0  0.67533  0.78215  0.02150  1.0000
  C   C5284     1.0  0.59984  0.86468  0.21302  1.0000
  C   C5285     1.0  0.67631  0.73896  0.97732  1.0000
  H   H4236     1.0  0.72575  0.53550  0.13684  1.0000
  H   H4237     1.0  0.58278  0.88699  0.98249  1.0000
  H   H4238     1.0  0.71922  0.59361  0.11971  1.0000
  C   C5286     1.0  0.66203  0.96732  0.01832  1.0000
  H   H4239     1.0  0.72926  0.74668  0.17863  1.0000
  H   H4240     1.0  0.72657  0.59859  0.05129  1.0000
  C   C5287     1.0  0.65140  0.81118  0.03626  1.0000
  C   C5288     1.0  0.65310  0.79348  0.04672  1.0000
  C   C5289     1.0  0.66490  0.77897  0.03934  1.0000
  C   C5290     1.0  0.67730  0.75494  0.00033  1.0000
  C   C5291     1.0  0.48842  0.90022  0.20914  1.0000
  H   H4241     1.0  0.69226  0.92723  0.10310  1.0000
  C   C5292     1.0  0.59391  0.85634  0.20214  1.0000
  H   H4242     1.0  0.71703  0.90526  0.98678  1.0000
  C   C5293     1.0  0.65805  0.75760  0.00548  1.0000
  S   S699      1.0  0.55214  0.47380  0.14089  1.0000
  H   H4243     1.0  0.64686  0.87825  0.05989  1.0000
  Fe  Fe349     1.0  0.72289  0.89837  0.08193  1.0000
  H   H4244     1.0  0.70244  0.72391  0.01419  1.0000
  C   C5294     1.0  0.55784  0.95544  0.10679  1.0000
  C   C5295     1.0  0.63021  0.96284  0.07867  1.0000
  C   C5296     1.0  0.70316  0.90485  0.99436  1.0000
  C   C5297     1.0  0.61569  0.49085  0.02229  1.0000
  H   H4245     1.0  0.66050  0.93183  0.00022  1.0000
  C   C5298     1.0  0.50897  0.96992  0.14049  1.0000
  H   H4246     1.0  0.71917  0.61894  0.07599  1.0000
  C   C5299     1.0  0.50482  0.47346  0.96599  1.0000
  H   H4247     1.0  0.64218  0.82242  0.04193  1.0000
  H   H4248     1.0  0.64516  0.79097  0.06052  1.0000
  H   H4249     1.0  0.66573  0.76530  0.04751  1.0000
  H   H4250     1.0  0.48677  0.95060  0.11069  1.0000
  H   H4251     1.0  0.67925  0.86571  0.99142  1.0000
  H   H4252     1.0  0.59040  0.49135  0.12806  1.0000
  H   H4253     1.0  0.70110  0.74299  0.98216  1.0000
  H   H4254     1.0  0.65066  0.76476  0.01633  1.0000
  C   C5300     1.0  0.65104  0.86871  0.03474  1.0000
  H   H4255     1.0  0.64978  0.86173  0.00969  1.0000
  P   P175      1.0  0.56135  0.90247  0.15052  1.0000
  C   C5301     1.0  0.66630  0.83718  0.18555  1.0000
  C   C5302     1.0  0.53544  0.88139  0.17014  1.0000
  H   H4256     1.0  0.59406  0.53295  0.15715  1.0000
  S   S700      1.0  0.71262  0.90160  0.14767  1.0000
  H   H4257     1.0  0.49690  0.82589  0.02774  1.0000
  C   C5303     1.0  0.63099  0.53329  0.17807  1.0000
  Fe  Fe350     1.0  0.60179  0.96038  0.02331  1.0000
  H   H4258     1.0  0.50637  0.89502  0.13266  1.0000
  H   H4259     1.0  0.70265  0.94481  0.11997  1.0000
  H   H4260     1.0  0.68067  0.47668  0.03474  1.0000
  C   C5304     1.0  0.58186  0.90774  0.19262  1.0000
  H   H4261     1.0  0.66842  0.83970  0.06309  1.0000
  C   C5305     1.0  0.72082  0.86569  0.16430  1.0000
  H   H4262     1.0  0.68905  0.66509  0.05421  1.0000
  C   C5306     1.0  0.64544  0.52362  0.16701  1.0000
  C   C5307     1.0  0.68713  0.85305  0.99773  1.0000
  H   H4263     1.0  0.57641  0.54502  0.13283  1.0000
  C   C5308     1.0  0.51093  0.95532  0.15528  1.0000
  H   H4264     1.0  0.62457  0.50541  0.07368  1.0000
  P   P176      1.0  0.67568  0.86681  0.02969  1.0000
  C   C5309     1.0  0.68368  0.86131  0.05085  1.0000
  C   C5310     1.0  0.68109  0.88814  0.01596  1.0000
  C   C5311     1.0  0.54503  0.88253  0.03313  1.0000
  C   C5312     1.0  0.68764  0.84961  0.01635  1.0000
  C   C5313     1.0  0.60277  0.47303  0.07867  1.0000
  Fe  Fe351     1.0  0.66589  0.52955  0.96852  1.0000
  C   C5314     1.0  0.66725  0.90383  0.01381  1.0000
  C   C5315     1.0  0.69612  0.87055  0.05334  1.0000
  C   C5316     1.0  0.70299  0.86537  0.06937  1.0000
  C   C5317     1.0  0.69760  0.85094  0.08302  1.0000
  C   C5318     1.0  0.68500  0.84183  0.08077  1.0000
  C   C5319     1.0  0.67797  0.84705  0.06478  1.0000
  H   H4265     1.0  0.70697  0.90141  0.18598  1.0000
  H   H4266     1.0  0.56531  0.93793  0.08743  1.0000
  H   H4267     1.0  0.51621  0.92829  0.02118  1.0000
  C   C5320     1.0  0.65618  0.88017  0.20090  1.0000
  Fe  Fe352     1.0  0.72643  0.89255  0.12124  1.0000
  C   C5321     1.0  0.52655  0.48271  0.20957  1.0000
  H   H4268     1.0  0.60332  0.53508  0.19321  1.0000
  H   H4269     1.0  0.50894  0.96716  0.12744  1.0000
  C   C5322     1.0  0.61675  0.47299  0.02045  1.0000
  H   H4270     1.0  0.60161  0.47565  0.16728  1.0000
  C   C5323     1.0  0.62122  0.48281  0.98756  1.0000
  H   H4271     1.0  0.73104  0.62606  0.09942  1.0000
  C   C5324     1.0  0.72180  0.85139  0.17956  1.0000
  H   H4272     1.0  0.72287  0.70657  0.06368  1.0000
  H   H4273     1.0  0.72776  0.77860  0.16229  1.0000
  C   C5325     1.0  0.70956  0.77191  0.99567  1.0000
  H   H4274     1.0  0.49727  0.52527  0.16009  1.0000
  C   C5326     1.0  0.72533  0.63080  0.07248  1.0000
  H   H4275     1.0  0.70681  0.95114  0.02150  1.0000
  H   H4276     1.0  0.73385  0.74031  0.97779  1.0000
  C   C5327     1.0  0.69245  0.95735  0.02518  1.0000
  C   C5328     1.0  0.73291  0.58165  0.14237  1.0000
  H   H4277     1.0  0.69228  0.93254  0.98247  1.0000
  H   H4278     1.0  0.72415  0.66190  0.16826  1.0000
  C   C5329     1.0  0.72650  0.64215  0.05503  1.0000
  H   H4279     1.0  0.55033  0.96954  0.12911  1.0000
  H   H4280     1.0  0.72575  0.83744  0.17773  1.0000
  C   C5330     1.0  0.55848  0.51718  0.21292  1.0000
  C   C5331     1.0  0.49213  0.95683  0.04974  1.0000
  H   H4281     1.0  0.71612  0.81473  0.98618  1.0000
  H   H4282     1.0  0.48927  0.49054  0.09605  1.0000
  H   H4283     1.0  0.49466  0.83682  0.21116  1.0000
  H   H4284     1.0  0.68302  0.48711  0.06170  1.0000
  H   H4285     1.0  0.48624  0.90007  0.07440  1.0000
  H   H4286     1.0  0.67607  0.85523  0.20709  1.0000
  C   C5332     1.0  0.64740  0.89687  0.20608  1.0000
  H   H4287     1.0  0.64947  0.73693  0.97530  1.0000
  C   C5333     1.0  0.72416  0.78415  0.96471  1.0000
  H   H4288     1.0  0.71740  0.80846  0.01895  1.0000
  H   H4289     1.0  0.69696  0.77866  0.97203  1.0000
  H   H4290     1.0  0.72619  0.57290  0.02407  1.0000
  C   C5334     1.0  0.66882  0.86807  0.21084  1.0000
  C   C5335     1.0  0.58329  0.47793  0.05690  1.0000
  C   C5336     1.0  0.63863  0.59229  0.96434  1.0000
  C   C5337     1.0  0.73194  0.63483  0.08597  1.0000
  H   H4291     1.0  0.68582  0.95566  0.00032  1.0000
  C   C5338     1.0  0.48696  0.91460  0.99835  1.0000
  H   H4292     1.0  0.48606  0.48893  0.06536  1.0000
  C   C5339     1.0  0.63523  0.47163  0.12831  1.0000
  C   C5340     1.0  0.48661  0.83609  0.02143  1.0000
  S   S701      1.0  0.73291  0.91426  0.09664  1.0000
  H   H4293     1.0  0.50889  0.97050  0.09371  1.0000
  H   H4294     1.0  0.57215  0.67200  0.35092  1.0000
  H   H4295     1.0  0.51335  0.68415  0.30618  1.0000
  H   H4296     1.0  0.69826  0.71205  0.22066  1.0000
  H   H4297     1.0  0.60033  0.52959  0.40533  1.0000
  C   C5341     1.0  0.62264  0.55745  0.41569  1.0000
  C   C5342     1.0  0.61031  0.72626  0.27401  1.0000
  H   H4298     1.0  0.56641  0.83195  0.27345  1.0000
  C   C5343     1.0  0.69402  0.93554  0.42331  1.0000
  H   H4299     1.0  0.57923  0.95563  0.45819  1.0000
  S   S702      1.0  0.56512  0.95055  0.40977  1.0000
  S   S703      1.0  0.51561  0.94840  0.44037  1.0000
  H   H4300     1.0  0.51881  0.95073  0.30872  1.0000
  H   H4301     1.0  0.66644  0.89241  0.24269  1.0000
  C   C5344     1.0  0.57674  0.51818  0.23961  1.0000
  S   S704      1.0  0.57127  0.95332  0.35746  1.0000
  C   C5345     1.0  0.61378  0.54974  0.38587  1.0000
  C   C5346     1.0  0.62035  0.49876  0.42712  1.0000
  Fe  Fe353     1.0  0.53376  0.89892  0.30580  1.0000
  S   S705      1.0  0.55127  0.87080  0.30678  1.0000
  S   S706      1.0  0.52373  0.91345  0.32970  1.0000
  Fe  Fe354     1.0  0.52550  0.90033  0.26891  1.0000
  S   S707      1.0  0.54180  0.87219  0.26714  1.0000
  S   S708      1.0  0.51170  0.92069  0.24736  1.0000
  Fe  Fe355     1.0  0.52911  0.86418  0.29677  1.0000
  S   S709      1.0  0.52429  0.83575  0.31084  1.0000
  Fe  Fe356     1.0  0.56276  0.88066  0.27718  1.0000
  S   S710      1.0  0.59132  0.87101  0.26175  1.0000
  S   S711      1.0  0.51071  0.89166  0.29770  1.0000
  S   S712      1.0  0.54732  0.90952  0.27696  1.0000
  Fe  Fe357     1.0  0.67808  0.67667  0.32392  1.0000
  S   S713      1.0  0.70158  0.65482  0.33215  1.0000
  S   S714      1.0  0.64767  0.67785  0.33577  1.0000
  Fe  Fe358     1.0  0.70367  0.70069  0.29822  1.0000
  C   C5347     1.0  0.60945  0.66119  0.40009  1.0000
  S   S715      1.0  0.70452  0.72661  0.27692  1.0000
  C   C5348     1.0  0.51996  0.96388  0.29988  1.0000
  H   H4302     1.0  0.55578  0.49967  0.32681  1.0000
  Fe  Fe359     1.0  0.71409  0.67766  0.33355  1.0000
  Fe  Fe360     1.0  0.53621  0.96382  0.42042  1.0000
  S   S716      1.0  0.69029  0.67983  0.29390  1.0000
  S   S717      1.0  0.68956  0.69928  0.32758  1.0000
  Fe  Fe361     1.0  0.68913  0.85817  0.27513  1.0000
  S   S718      1.0  0.66252  0.87623  0.28570  1.0000
  H   H4303     1.0  0.57237  0.67412  0.38182  1.0000
  C   C5349     1.0  0.54566  0.55514  0.46399  1.0000
  H   H4304     1.0  0.68185  0.77009  0.23499  1.0000
  S   S719      1.0  0.70863  0.84542  0.29415  1.0000
  Fe  Fe362     1.0  0.73039  0.85414  0.27045  1.0000
  Fe  Fe363     1.0  0.55457  0.58292  0.37489  1.0000
  S   S720      1.0  0.53311  0.60237  0.38988  1.0000
  S   S721      1.0  0.54703  0.55647  0.37488  1.0000
  Fe  Fe364     1.0  0.58257  0.60754  0.36552  1.0000
  S   S722      1.0  0.56319  0.62901  0.37973  1.0000
  S   S723      1.0  0.61217  0.60807  0.35132  1.0000
  Fe  Fe365     1.0  0.55564  0.60531  0.40185  1.0000
  S   S724      1.0  0.54859  0.60447  0.43219  1.0000
  Fe  Fe366     1.0  0.54230  0.62418  0.36665  1.0000
  S   S725      1.0  0.51991  0.64471  0.35438  1.0000
  S   S726      1.0  0.57654  0.58411  0.38873  1.0000
  S   S727      1.0  0.56219  0.60448  0.35058  1.0000
  C   C5350     1.0  0.49734  0.47100  0.40417  1.0000
  S   S728      1.0  0.53459  0.47804  0.26740  1.0000
  C   C5351     1.0  0.73050  0.82189  0.35267  1.0000
  H   H4305     1.0  0.50124  0.83183  0.26595  1.0000
  C   C5352     1.0  0.57644  0.69946  0.33875  1.0000
  P   P177      1.0  0.66165  0.96941  0.37899  1.0000
  C   C5353     1.0  0.72888  0.65704  0.23607  1.0000
  S   S729      1.0  0.50565  0.72584  0.36467  1.0000
  H   H4306     1.0  0.54984  0.52764  0.25491  1.0000
  H   H4307     1.0  0.51578  0.93464  0.40232  1.0000
  Fe  Fe367     1.0  0.51389  0.53012  0.30093  1.0000
  C   C5354     1.0  0.53314  0.47728  0.39716  1.0000
  S   S730      1.0  0.53020  0.55072  0.30055  1.0000
  H   H4308     1.0  0.51448  0.82851  0.35447  1.0000
  S   S731      1.0  0.50816  0.52803  0.27450  1.0000
  C   C5355     1.0  0.54243  0.55475  0.35422  1.0000
  C   C5356     1.0  0.53087  0.54320  0.35441  1.0000
  C   C5357     1.0  0.52703  0.54175  0.33802  1.0000
  C   C5358     1.0  0.53501  0.55164  0.32136  1.0000
  C   C5359     1.0  0.54692  0.56280  0.32117  1.0000
  C   C5360     1.0  0.55050  0.56447  0.33755  1.0000
  H   H4309     1.0  0.52476  0.53551  0.36726  1.0000
  H   H4310     1.0  0.51795  0.53299  0.33826  1.0000
  H   H4311     1.0  0.55321  0.57039  0.30832  1.0000
  H   H4312     1.0  0.55972  0.57310  0.33722  1.0000
  C   C5361     1.0  0.50278  0.82058  0.43472  1.0000
  C   C5362     1.0  0.59932  0.59630  0.44296  1.0000
  C   C5363     1.0  0.58506  0.59752  0.43411  1.0000
  C   C5364     1.0  0.56682  0.60087  0.44342  1.0000
  H   H4313     1.0  0.51304  0.86509  0.33347  1.0000
  C   C5365     1.0  0.50482  0.87674  0.37492  1.0000
  H   H4314     1.0  0.61340  0.59433  0.43552  1.0000
  H   H4315     1.0  0.58816  0.59636  0.41996  1.0000
  C   C5366     1.0  0.63504  0.94806  0.39525  1.0000
  C   C5367     1.0  0.58149  0.64120  0.41065  1.0000
  C   C5368     1.0  0.51609  0.66711  0.35759  1.0000
  H   H4316     1.0  0.52298  0.47651  0.34306  1.0000
  H   H4317     1.0  0.50379  0.63530  0.45465  1.0000
  C   C5369     1.0  0.50950  0.70324  0.36206  1.0000
  C   C5370     1.0  0.52604  0.69137  0.36485  1.0000
  C   C5371     1.0  0.52933  0.67329  0.36266  1.0000
  H   H4318     1.0  0.70110  0.66371  0.44480  1.0000
  H   H4319     1.0  0.69281  0.79887  0.21941  1.0000
  H   H4320     1.0  0.53623  0.69621  0.36875  1.0000
  H   H4321     1.0  0.54212  0.66419  0.36471  1.0000
  C   C5372     1.0  0.63811  0.65828  0.34001  1.0000
  C   C5373     1.0  0.64854  0.64201  0.33511  1.0000
  C   C5374     1.0  0.64039  0.62675  0.33863  1.0000
  C   C5375     1.0  0.62179  0.62762  0.34707  1.0000
  C   C5376     1.0  0.61134  0.64393  0.35186  1.0000
  C   C5377     1.0  0.61952  0.65916  0.34840  1.0000
  H   H4322     1.0  0.66288  0.64118  0.32860  1.0000
  H   H4323     1.0  0.64856  0.61420  0.33482  1.0000
  H   H4324     1.0  0.59703  0.64476  0.35834  1.0000
  H   H4325     1.0  0.61151  0.67165  0.35239  1.0000
  C   C5378     1.0  0.70797  0.74503  0.28418  1.0000
  C   C5379     1.0  0.70739  0.76205  0.27228  1.0000
  C   C5380     1.0  0.70977  0.77706  0.27789  1.0000
  C   C5381     1.0  0.50963  0.85070  0.42882  1.0000
  H   H4326     1.0  0.50480  0.50561  0.21481  1.0000
  C   C5382     1.0  0.71124  0.74297  0.30166  1.0000
  C   C5383     1.0  0.69148  0.95519  0.33085  1.0000
  H   H4327     1.0  0.48924  0.67427  0.35095  1.0000
  C   C5384     1.0  0.55763  0.52341  0.24234  1.0000
  C   C5385     1.0  0.70790  0.91948  0.24102  1.0000
  C   C5386     1.0  0.66371  0.88915  0.23089  1.0000
  C   C5387     1.0  0.50443  0.82670  0.31422  1.0000
  C   C5388     1.0  0.50796  0.83807  0.40377  1.0000
  H   H4328     1.0  0.64073  0.94472  0.40741  1.0000
  C   C5389     1.0  0.55369  0.72129  0.42267  1.0000
  C   C5390     1.0  0.63400  0.96452  0.36426  1.0000
  C   C5391     1.0  0.50428  0.80898  0.32454  1.0000
  C   C5392     1.0  0.48531  0.62093  0.30733  1.0000
  Fe  Fe368     1.0  0.55982  0.96626  0.38228  1.0000
  H   H4329     1.0  0.52460  0.72330  0.39517  1.0000
  H   H4330     1.0  0.51629  0.80119  0.32984  1.0000
  C   C5393     1.0  0.50342  0.91259  0.23230  1.0000
  H   H4331     1.0  0.62728  0.57154  0.36963  1.0000
  C   C5394     1.0  0.70246  0.77438  0.35252  1.0000
  H   H4332     1.0  0.53239  0.71866  0.27454  1.0000
  C   C5395     1.0  0.71387  0.66730  0.44466  1.0000
  C   C5396     1.0  0.50583  0.89394  0.23313  1.0000
  H   H4333     1.0  0.72701  0.91524  0.21618  1.0000
  C   C5397     1.0  0.51030  0.85267  0.41010  1.0000
  H   H4334     1.0  0.51315  0.88424  0.24291  1.0000
  C   C5398     1.0  0.64260  0.87429  0.27959  1.0000
  C   C5399     1.0  0.64375  0.86341  0.26727  1.0000
  C   C5400     1.0  0.62789  0.86246  0.26198  1.0000
  C   C5401     1.0  0.61068  0.87204  0.26936  1.0000
  C   C5402     1.0  0.60938  0.88258  0.28207  1.0000
  C   C5403     1.0  0.62536  0.88384  0.28704  1.0000
  H   H4335     1.0  0.65693  0.85600  0.26159  1.0000
  H   H4336     1.0  0.62895  0.85433  0.25212  1.0000
  H   H4337     1.0  0.59613  0.89006  0.28776  1.0000
  H   H4338     1.0  0.62439  0.89226  0.29663  1.0000
  C   C5404     1.0  0.48727  0.70145  0.31415  1.0000
  C   C5405     1.0  0.53877  0.89958  0.43242  1.0000
  C   C5406     1.0  0.54222  0.72173  0.32040  1.0000
  C   C5407     1.0  0.54853  0.52291  0.22901  1.0000
  H   H4339     1.0  0.50412  0.59666  0.30027  1.0000
  C   C5408     1.0  0.51302  0.94959  0.46334  1.0000
  H   H4340     1.0  0.59087  0.68043  0.41512  1.0000
  H   H4341     1.0  0.66931  0.94666  0.35165  1.0000
  H   H4342     1.0  0.63490  0.57855  0.39603  1.0000
  C   C5409     1.0  0.55778  0.94265  0.34960  1.0000
  C   C5410     1.0  0.53946  0.94231  0.35812  1.0000
  C   C5411     1.0  0.52915  0.93352  0.35166  1.0000
  C   C5412     1.0  0.53707  0.92497  0.33671  1.0000
  C   C5413     1.0  0.55534  0.92540  0.32811  1.0000
  C   C5414     1.0  0.56564  0.93424  0.33454  1.0000
  H   H4343     1.0  0.53326  0.94879  0.36967  1.0000
  H   H4344     1.0  0.51501  0.93322  0.35835  1.0000
  H   H4345     1.0  0.56155  0.91887  0.31657  1.0000
  H   H4346     1.0  0.57980  0.93450  0.32786  1.0000
  C   C5415     1.0  0.53630  0.65513  0.41106  1.0000
  C   C5416     1.0  0.50690  0.89293  0.40458  1.0000
  H   H4347     1.0  0.48461  0.63833  0.34394  1.0000
  C   C5417     1.0  0.48945  0.84004  0.22460  1.0000
  C   C5418     1.0  0.61663  0.54699  0.46411  1.0000
  H   H4348     1.0  0.59121  0.86710  0.22600  1.0000
  H   H4349     1.0  0.54534  0.66043  0.39874  1.0000
  H   H4350     1.0  0.50893  0.50335  0.24623  1.0000
  C   C5419     1.0  0.56195  0.49476  0.37012  1.0000
  C   C5420     1.0  0.49947  0.60572  0.30989  1.0000
  H   H4351     1.0  0.58501  0.52871  0.34661  1.0000
  S   S732      1.0  0.69195  0.83221  0.26587  1.0000
  C   C5421     1.0  0.52601  0.89684  0.44881  1.0000
  H   H4352     1.0  0.63839  0.50568  0.45355  1.0000
  C   C5422     1.0  0.57419  0.64694  0.45872  1.0000
  C   C5423     1.0  0.50570  0.83478  0.44109  1.0000
  C   C5424     1.0  0.50879  0.92323  0.40670  1.0000
  H   H4353     1.0  0.51197  0.86152  0.43393  1.0000
  H   H4354     1.0  0.55479  0.51695  0.44934  1.0000
  H   H4355     1.0  0.62596  0.56092  0.42702  1.0000
  H   H4356     1.0  0.50018  0.87336  0.22234  1.0000
  C   C5425     1.0  0.72258  0.89517  0.31087  1.0000
  C   C5426     1.0  0.51970  0.48990  0.38858  1.0000
  C   C5427     1.0  0.50191  0.48666  0.39197  1.0000
  C   C5428     1.0  0.52564  0.87921  0.45931  1.0000
  C   C5429     1.0  0.50304  0.82243  0.36280  1.0000
  H   H4357     1.0  0.71996  0.66668  0.26140  1.0000
  H   H4358     1.0  0.54926  0.67541  0.32272  1.0000
  H   H4359     1.0  0.58091  0.72713  0.33120  1.0000
  C   C5430     1.0  0.49856  0.68549  0.30928  1.0000
  H   H4360     1.0  0.68227  0.86313  0.23336  1.0000
  H   H4361     1.0  0.64178  0.70319  0.30012  1.0000
  Fe  Fe369     1.0  0.71489  0.65974  0.30233  1.0000
  H   H4362     1.0  0.71918  0.92207  0.27995  1.0000
  H   H4363     1.0  0.56696  0.91574  0.21799  1.0000
  H   H4364     1.0  0.70510  0.76362  0.25870  1.0000
  C   C5431     1.0  0.59829  0.49582  0.45572  1.0000
  C   C5432     1.0  0.52240  0.96579  0.28101  1.0000
  H   H4365     1.0  0.49399  0.56763  0.35951  1.0000
  S   S733      1.0  0.48695  0.49481  0.29860  1.0000
  C   C5433     1.0  0.53150  0.48036  0.24505  1.0000
  C   C5434     1.0  0.61306  0.54339  0.41848  1.0000
  S   S734      1.0  0.71060  0.86903  0.25205  1.0000
  C   C5435     1.0  0.49990  0.83294  0.23814  1.0000
  H   H4366     1.0  0.54383  0.56710  0.43599  1.0000
  H   H4367     1.0  0.55935  0.85551  0.43103  1.0000
  C   C5436     1.0  0.49090  0.79576  0.37992  1.0000
  C   C5437     1.0  0.50588  0.87152  0.34493  1.0000
  C   C5438     1.0  0.48544  0.83321  0.36593  1.0000
  H   H4368     1.0  0.55957  0.73010  0.42747  1.0000
  C   C5439     1.0  0.50264  0.61423  0.33677  1.0000
  C   C5440     1.0  0.50806  0.60237  0.32463  1.0000
  H   H4369     1.0  0.62107  0.87619  0.21619  1.0000
  C   C5441     1.0  0.70563  0.92141  0.25899  1.0000
  C   C5442     1.0  0.68866  0.94140  0.39260  1.0000
  C   C5443     1.0  0.62229  0.48021  0.42747  1.0000
  C   C5444     1.0  0.72467  0.67355  0.42779  1.0000
  H   H4370     1.0  0.50895  0.83897  0.38940  1.0000
  H   H4371     1.0  0.60994  0.54715  0.37433  1.0000
  C   C5445     1.0  0.72315  0.70868  0.23017  1.0000
  S   S735      1.0  0.52371  0.50010  0.30957  1.0000
  H   H4372     1.0  0.69236  0.94485  0.32331  1.0000
  C   C5446     1.0  0.55591  0.49269  0.41057  1.0000
  H   H4373     1.0  0.58266  0.62324  0.31577  1.0000
  C   C5447     1.0  0.58233  0.54024  0.44999  1.0000
  C   C5448     1.0  0.57104  0.51520  0.33472  1.0000
  H   H4374     1.0  0.50977  0.61194  0.34786  1.0000
  C   C5449     1.0  0.72549  0.91679  0.23006  1.0000
  C   C5450     1.0  0.57730  0.51807  0.34904  1.0000
  H   H4375     1.0  0.72006  0.67503  0.41524  1.0000
  C   C5451     1.0  0.49955  0.67900  0.35482  1.0000
  H   H4376     1.0  0.71621  0.95981  0.42517  1.0000
  C   C5452     1.0  0.70420  0.96661  0.32504  1.0000
  C   C5453     1.0  0.62349  0.56356  0.38321  1.0000
  H   H4377     1.0  0.67632  0.95361  0.44050  1.0000
  H   H4378     1.0  0.51572  0.73966  0.32391  1.0000
  C   C5454     1.0  0.57401  0.68459  0.35320  1.0000
  H   H4379     1.0  0.48870  0.78773  0.33651  1.0000
  S   S736      1.0  0.73069  0.63563  0.28940  1.0000
  S   S737      1.0  0.48499  0.53014  0.31634  1.0000
  H   H4380     1.0  0.56312  0.48314  0.45401  1.0000
  H   H4381     1.0  0.59981  0.94040  0.38069  1.0000
  H   H4382     1.0  0.69605  0.91977  0.23568  1.0000
  C   C5455     1.0  0.55043  0.51170  0.40830  1.0000
  C   C5456     1.0  0.55025  0.52043  0.42215  1.0000
  C   C5457     1.0  0.55498  0.51020  0.43859  1.0000
  C   C5458     1.0  0.55971  0.49121  0.44121  1.0000
  C   C5459     1.0  0.49392  0.92508  0.21953  1.0000
  H   H4383     1.0  0.50482  0.83338  0.45558  1.0000
  H   H4384     1.0  0.61070  0.63591  0.30903  1.0000
  H   H4385     1.0  0.52294  0.50215  0.37912  1.0000
  H   H4386     1.0  0.54625  0.51981  0.39585  1.0000
  H   H4387     1.0  0.54633  0.53517  0.42006  1.0000
  C   C5460     1.0  0.56293  0.60206  0.46185  1.0000
  H   H4388     1.0  0.52298  0.95415  0.27531  1.0000
  H   H4389     1.0  0.69203  0.92316  0.26760  1.0000
  H   H4390     1.0  0.57385  0.52365  0.32122  1.0000
  C   C5461     1.0  0.71381  0.75792  0.30720  1.0000
  C   C5462     1.0  0.71066  0.85745  0.35466  1.0000
  H   H4391     1.0  0.69266  0.93805  0.37919  1.0000
  H   H4392     1.0  0.71020  0.92051  0.40274  1.0000
  C   C5463     1.0  0.49320  0.83734  0.25538  1.0000
  C   C5464     1.0  0.59486  0.71962  0.28488  1.0000
  C   C5465     1.0  0.69862  0.93132  0.40598  1.0000
  C   C5466     1.0  0.50414  0.82214  0.41606  1.0000
  C   C5467     1.0  0.58146  0.63758  0.31534  1.0000
  H   H4393     1.0  0.58195  0.72446  0.28038  1.0000
  C   C5468     1.0  0.67746  0.96932  0.35718  1.0000
  C   C5469     1.0  0.71968  0.84716  0.36865  1.0000
  P   P178      1.0  0.60599  0.53059  0.44122  1.0000
  C   C5470     1.0  0.57078  0.55109  0.43819  1.0000
  H   H4394     1.0  0.60849  0.66818  0.30833  1.0000
  C   C5471     1.0  0.57417  0.68574  0.37088  1.0000
  C   C5472     1.0  0.59594  0.66319  0.31103  1.0000
  H   H4395     1.0  0.53697  0.85047  0.45991  1.0000
  S   S738      1.0  0.72730  0.91864  0.32934  1.0000
  C   C5473     1.0  0.57675  0.70172  0.37428  1.0000
  H   H4396     1.0  0.54834  0.48114  0.35774  1.0000
  H   H4397     1.0  0.50976  0.73832  0.29425  1.0000
  H   H4398     1.0  0.53815  0.74347  0.40607  1.0000
  C   C5474     1.0  0.64241  0.95967  0.37946  1.0000
  C   C5475     1.0  0.51549  0.49521  0.22019  1.0000
  P   P179      1.0  0.55616  0.48133  0.39276  1.0000
  H   H4399     1.0  0.67925  0.82686  0.23178  1.0000
  C   C5476     1.0  0.59543  0.59789  0.46128  1.0000
  H   H4400     1.0  0.58373  0.51840  0.25007  1.0000
  Fe  Fe370     1.0  0.51565  0.49784  0.28435  1.0000
  H   H4401     1.0  0.71809  0.87813  0.29503  1.0000
  C   C5477     1.0  0.65114  0.90130  0.22106  1.0000
  H   H4402     1.0  0.62035  0.66888  0.39592  1.0000
  C   C5478     1.0  0.70897  0.75632  0.36043  1.0000
  C   C5479     1.0  0.59834  0.63464  0.39997  1.0000
  H   H4403     1.0  0.57574  0.55417  0.42361  1.0000
  C   C5480     1.0  0.61321  0.70151  0.30688  1.0000
  H   H4404     1.0  0.51912  0.59075  0.32653  1.0000
  C   C5481     1.0  0.56276  0.66716  0.31905  1.0000
  C   C5482     1.0  0.72966  0.82952  0.36764  1.0000
  C   C5483     1.0  0.55539  0.71100  0.30908  1.0000
  C   C5484     1.0  0.67580  0.78243  0.24029  1.0000
  C   C5485     1.0  0.68192  0.79860  0.23147  1.0000
  C   C5486     1.0  0.67429  0.81440  0.23848  1.0000
  C   C5487     1.0  0.66087  0.81395  0.25455  1.0000
  C   C5488     1.0  0.65513  0.79763  0.26386  1.0000
  C   C5489     1.0  0.66238  0.78194  0.25638  1.0000
  P   P180      1.0  0.63848  0.79714  0.28513  1.0000
  C   C5490     1.0  0.64045  0.77365  0.29762  1.0000
  C   C5491     1.0  0.64438  0.81101  0.29776  1.0000
  C   C5492     1.0  0.66218  0.80743  0.30129  1.0000
  C   C5493     1.0  0.66697  0.81852  0.31036  1.0000
  C   C5494     1.0  0.65425  0.83357  0.31562  1.0000
  C   C5495     1.0  0.63665  0.83746  0.31195  1.0000
  C   C5496     1.0  0.63176  0.82640  0.30294  1.0000
  C   C5497     1.0  0.62547  0.76477  0.30243  1.0000
  C   C5498     1.0  0.62733  0.74654  0.31163  1.0000
  C   C5499     1.0  0.64424  0.73683  0.31572  1.0000
  C   C5500     1.0  0.65933  0.74531  0.31048  1.0000
  C   C5501     1.0  0.65749  0.76354  0.30144  1.0000
  C   C5502     1.0  0.61546  0.80691  0.28104  1.0000
  C   C5503     1.0  0.61258  0.81578  0.26345  1.0000
  C   C5504     1.0  0.59493  0.82463  0.26073  1.0000
  C   C5505     1.0  0.58001  0.82469  0.27548  1.0000
  C   C5506     1.0  0.58271  0.81586  0.29300  1.0000
  C   C5507     1.0  0.60035  0.80707  0.29581  1.0000
  C   C5508     1.0  0.67945  0.94987  0.42730  1.0000
  C   C5509     1.0  0.57915  0.71662  0.35995  1.0000
  H   H4405     1.0  0.53934  0.91333  0.42476  1.0000
  H   H4406     1.0  0.65527  0.82622  0.25999  1.0000
  H   H4407     1.0  0.65809  0.76918  0.26312  1.0000
  H   H4408     1.0  0.67273  0.79662  0.29643  1.0000
  H   H4409     1.0  0.68078  0.81580  0.31278  1.0000
  H   H4410     1.0  0.65824  0.84262  0.32190  1.0000
  H   H4411     1.0  0.62702  0.84956  0.31538  1.0000
  H   H4412     1.0  0.61834  0.83052  0.29950  1.0000
  H   H4413     1.0  0.61241  0.77161  0.29885  1.0000
  H   H4414     1.0  0.61575  0.73979  0.31532  1.0000
  H   H4415     1.0  0.64578  0.72261  0.32265  1.0000
  H   H4416     1.0  0.67261  0.73766  0.31310  1.0000
  H   H4417     1.0  0.66965  0.76936  0.29693  1.0000
  H   H4418     1.0  0.62394  0.81638  0.25188  1.0000
  H   H4419     1.0  0.59286  0.83202  0.24728  1.0000
  H   H4420     1.0  0.57111  0.81627  0.30443  1.0000
  H   H4421     1.0  0.60231  0.80088  0.30958  1.0000
  P   P181      1.0  0.57660  0.69810  0.31581  1.0000
  C   C5510     1.0  0.72133  0.83236  0.33872  1.0000
  Fe  Fe371     1.0  0.71346  0.82038  0.28280  1.0000
  C   C5511     1.0  0.59730  0.64478  0.31136  1.0000
  H   H4422     1.0  0.57802  0.51018  0.37750  1.0000
  C   C5512     1.0  0.72819  0.88347  0.29846  1.0000
  P   P182      1.0  0.51561  0.87312  0.39413  1.0000
  C   C5513     1.0  0.54015  0.87037  0.38570  1.0000
  H   H4423     1.0  0.72376  0.67003  0.22795  1.0000
  C   C5514     1.0  0.62867  0.70792  0.29586  1.0000
  H   H4424     1.0  0.61385  0.93250  0.40800  1.0000
  H   H4425     1.0  0.63182  0.47408  0.41669  1.0000
  C   C5515     1.0  0.57833  0.65802  0.41581  1.0000
  H   H4426     1.0  0.72209  0.82691  0.32689  1.0000
  C   C5516     1.0  0.54712  0.88199  0.36972  1.0000
  C   C5517     1.0  0.56603  0.88004  0.36298  1.0000
  C   C5518     1.0  0.57817  0.86628  0.37204  1.0000
  C   C5519     1.0  0.57137  0.85442  0.38781  1.0000
  C   C5520     1.0  0.55241  0.85641  0.39461  1.0000
  S   S739      1.0  0.72930  0.68091  0.30435  1.0000
  H   H4427     1.0  0.49984  0.65859  0.30577  1.0000
  S   S740      1.0  0.71592  0.79354  0.30280  1.0000
  C   C5521     1.0  0.62029  0.53178  0.45604  1.0000
  H   H4428     1.0  0.49959  0.63439  0.42412  1.0000
  C   C5522     1.0  0.51568  0.90791  0.39873  1.0000
  H   H4429     1.0  0.51935  0.79526  0.36711  1.0000
  H   H4430     1.0  0.52037  0.64697  0.39630  1.0000
  H   H4431     1.0  0.71629  0.70780  0.24439  1.0000
  H   H4432     1.0  0.71191  0.72984  0.31086  1.0000
  C   C5523     1.0  0.48817  0.62914  0.33457  1.0000
  H   H4433     1.0  0.50191  0.81107  0.41116  1.0000
  H   H4434     1.0  0.53367  0.52664  0.23133  1.0000
  H   H4435     1.0  0.55191  0.64305  0.32281  1.0000
  H   H4436     1.0  0.48813  0.58239  0.27858  1.0000
  H   H4437     1.0  0.52728  0.85948  0.35997  1.0000
  H   H4438     1.0  0.53790  0.89253  0.36236  1.0000
  H   H4439     1.0  0.57121  0.88919  0.35064  1.0000
  H   H4440     1.0  0.59284  0.86475  0.36670  1.0000
  H   H4441     1.0  0.58081  0.84361  0.39466  1.0000
  H   H4442     1.0  0.54741  0.84700  0.40672  1.0000
  H   H4443     1.0  0.71650  0.75622  0.32067  1.0000
  C   C5524     1.0  0.61172  0.94569  0.38035  1.0000
  C   C5525     1.0  0.50579  0.80369  0.36984  1.0000
  H   H4444     1.0  0.58335  0.63882  0.44928  1.0000
  C   C5526     1.0  0.72598  0.75147  0.36561  1.0000
  C   C5527     1.0  0.62723  0.72032  0.27944  1.0000
  C   C5528     1.0  0.55988  0.66099  0.45323  1.0000
  H   H4445     1.0  0.53670  0.68153  0.46218  1.0000
  C   C5529     1.0  0.71148  0.85004  0.33972  1.0000
  C   C5530     1.0  0.57301  0.50772  0.36664  1.0000
  H   H4446     1.0  0.68961  0.77804  0.34783  1.0000
  C   C5531     1.0  0.55252  0.55842  0.44519  1.0000
  C   C5532     1.0  0.48874  0.88307  0.34451  1.0000
  Fe  Fe372     1.0  0.49420  0.49974  0.32308  1.0000
  H   H4447     1.0  0.63926  0.72530  0.27099  1.0000
  H   H4448     1.0  0.58115  0.72901  0.36257  1.0000
  H   H4449     1.0  0.57691  0.70258  0.38798  1.0000
  H   H4450     1.0  0.53201  0.69037  0.40545  1.0000
  C   C5533     1.0  0.55159  0.70974  0.29264  1.0000
  C   C5534     1.0  0.67250  0.87256  0.22577  1.0000
  C   C5535     1.0  0.48894  0.83654  0.30715  1.0000
  C   C5536     1.0  0.72095  0.92067  0.26598  1.0000
  H   H4451     1.0  0.57099  0.63309  0.41489  1.0000
  C   C5537     1.0  0.51031  0.64058  0.42530  1.0000
  H   H4452     1.0  0.56751  0.69679  0.43788  1.0000
  C   C5538     1.0  0.53523  0.71963  0.28727  1.0000
  C   C5539     1.0  0.52246  0.73067  0.29836  1.0000
  C   C5540     1.0  0.55073  0.88470  0.42596  1.0000
  C   C5541     1.0  0.51389  0.86833  0.36006  1.0000
  C   C5542     1.0  0.56420  0.64875  0.31924  1.0000
  C   C5543     1.0  0.53398  0.71749  0.40452  1.0000
  H   H4453     1.0  0.71927  0.85304  0.38010  1.0000
  C   C5544     1.0  0.67404  0.95588  0.39648  1.0000
  C   C5545     1.0  0.49840  0.88780  0.22152  1.0000
  H   H4454     1.0  0.52788  0.90793  0.38808  1.0000
  H   H4455     1.0  0.56049  0.88690  0.41313  1.0000
  C   C5546     1.0  0.52210  0.64760  0.40960  1.0000
  C   C5547     1.0  0.59263  0.66776  0.41082  1.0000
  H   H4456     1.0  0.60151  0.50797  0.22187  1.0000
  H   H4457     1.0  0.58642  0.47661  0.22482  1.0000
  H   H4458     1.0  0.70820  0.89850  0.31714  1.0000
  C   C5548     1.0  0.53872  0.65590  0.42825  1.0000
  C   C5549     1.0  0.71299  0.71115  0.21676  1.0000
  C   C5550     1.0  0.71287  0.78764  0.34993  1.0000
  C   C5551     1.0  0.58676  0.51243  0.22354  1.0000
  H   H4459     1.0  0.54426  0.72241  0.33354  1.0000
  C   C5552     1.0  0.62778  0.56750  0.39812  1.0000
  H   H4460     1.0  0.51318  0.82407  0.23529  1.0000
  C   C5553     1.0  0.51782  0.49394  0.23797  1.0000
  C   C5554     1.0  0.55049  0.69082  0.42250  1.0000
  C   C5555     1.0  0.52682  0.64875  0.44398  1.0000
  H   H4461     1.0  0.56131  0.70110  0.28400  1.0000
  C   C5556     1.0  0.61977  0.94108  0.39565  1.0000
  C   C5557     1.0  0.54165  0.72884  0.41063  1.0000
  H   H4462     1.0  0.60920  0.73593  0.26130  1.0000
  C   C5558     1.0  0.57903  0.71550  0.34221  1.0000
  H   H4463     1.0  0.49935  0.80838  0.44427  1.0000
  C   C5559     1.0  0.61229  0.64464  0.39466  1.0000
  C   C5560     1.0  0.53831  0.69861  0.41044  1.0000
  H   H4464     1.0  0.49295  0.78118  0.38519  1.0000
  C   C5561     1.0  0.59624  0.70700  0.30134  1.0000
  H   H4465     1.0  0.70325  0.87127  0.35523  1.0000
  H   H4466     1.0  0.70465  0.85811  0.32877  1.0000
  C   C5562     1.0  0.52587  0.73154  0.31500  1.0000
  C   C5563     1.0  0.71976  0.66551  0.46095  1.0000
  C   C5564     1.0  0.51266  0.64114  0.44248  1.0000
  C   C5565     1.0  0.60840  0.53982  0.40345  1.0000
  H   H4467     1.0  0.51675  0.90858  0.45353  1.0000
  C   C5566     1.0  0.56074  0.50177  0.33791  1.0000
  C   C5567     1.0  0.56006  0.48247  0.42734  1.0000
  H   H4468     1.0  0.70208  0.92805  0.43348  1.0000
  C   C5568     1.0  0.71297  0.77500  0.29538  1.0000
  P   P183      1.0  0.55671  0.66633  0.42997  1.0000
  H   H4469     1.0  0.60061  0.62179  0.39572  1.0000
  C   C5569     1.0  0.60789  0.50686  0.44099  1.0000
  C   C5570     1.0  0.55811  0.70238  0.42857  1.0000
  C   C5571     1.0  0.55004  0.86705  0.43602  1.0000
  H   H4470     1.0  0.70108  0.74597  0.36212  1.0000
  H   H4471     1.0  0.62879  0.50665  0.41616  1.0000
  Fe  Fe373     1.0  0.71488  0.84206  0.24406  1.0000
  H   H4472     1.0  0.70922  0.79017  0.26865  1.0000
  H   H4473     1.0  0.61460  0.69206  0.31966  1.0000
  H   H4474     1.0  0.62529  0.63959  0.38625  1.0000
  H   H4475     1.0  0.61222  0.96125  0.35303  1.0000
  C   C5572     1.0  0.53748  0.86427  0.45259  1.0000
  C   C5573     1.0  0.57863  0.67462  0.31465  1.0000
  H   H4476     1.0  0.70781  0.80135  0.34319  1.0000
  H   H4477     1.0  0.73288  0.95944  0.39322  1.0000
  C   C5574     1.0  0.49082  0.67096  0.30920  1.0000
  C   C5575     1.0  0.48745  0.88810  0.37451  1.0000
  H   H4478     1.0  0.48815  0.93548  0.42704  1.0000
  C   C5576     1.0  0.55637  0.49145  0.35549  1.0000
  H   H4479     1.0  0.52853  0.64873  0.45743  1.0000
  H   H4480     1.0  0.49196  0.93955  0.21891  1.0000
  H   H4481     1.0  0.53839  0.95847  0.45945  1.0000
  C   C5577     1.0  0.73317  0.63836  0.26561  1.0000
  H   H4482     1.0  0.49181  0.49605  0.38472  1.0000
  C   C5578     1.0  0.48865  0.80130  0.32833  1.0000
  H   H4483     1.0  0.60525  0.55817  0.46153  1.0000
  H   H4484     1.0  0.49323  0.71241  0.31497  1.0000
  C   C5579     1.0  0.49621  0.69703  0.35712  1.0000
  S   S741      1.0  0.72668  0.67352  0.35821  1.0000
  S   S742      1.0  0.71841  0.83667  0.21592  1.0000
  H   H4485     1.0  0.73120  0.73740  0.37144  1.0000
  H   H4486     1.0  0.64409  0.91402  0.22526  1.0000
  C   C5580     1.0  0.49080  0.89383  0.41821  1.0000
  H   H4487     1.0  0.48899  0.85015  0.29905  1.0000
  C   C5581     1.0  0.49316  0.92373  0.42063  1.0000
  C   C5582     1.0  0.61878  0.95746  0.36470  1.0000
  C   C5583     1.0  0.67832  0.95636  0.34694  1.0000
  C   C5584     1.0  0.63521  0.51756  0.45961  1.0000
  C   C5585     1.0  0.60042  0.47727  0.45612  1.0000
  C   C5586     1.0  0.72670  0.65516  0.25501  1.0000
  C   C5587     1.0  0.66946  0.95997  0.41397  1.0000
  H   H4488     1.0  0.71488  0.96512  0.31299  1.0000
  C   C5588     1.0  0.72993  0.78292  0.35523  1.0000
  H   H4489     1.0  0.55750  0.47094  0.29924  1.0000
  H   H4490     1.0  0.65053  0.53423  0.48854  1.0000
  P   P184      1.0  0.65569  0.47735  0.55825  1.0000
  S   S743      1.0  0.68399  0.64489  0.57125  1.0000
  Fe  Fe374     1.0  0.59687  0.95421  0.64195  1.0000
  C   C5589     1.0  0.57651  0.67242  0.66681  1.0000
  C   C5590     1.0  0.48703  0.88504  0.47714  1.0000
  Fe  Fe375     1.0  0.56912  0.93313  0.66896  1.0000
  S   S744      1.0  0.54537  0.95696  0.66639  1.0000
  S   S745      1.0  0.56320  0.90673  0.68780  1.0000
  Fe  Fe376     1.0  0.55728  0.96092  0.63633  1.0000
  C   C5591     1.0  0.49751  0.94488  0.47604  1.0000
  H   H4491     1.0  0.71005  0.94037  0.58321  1.0000
  C   C5592     1.0  0.72443  0.94040  0.58157  1.0000
  S   S746      1.0  0.57960  0.93601  0.63883  1.0000
  S   S747      1.0  0.58831  0.94917  0.67261  1.0000
  C   C5593     1.0  0.59430  0.51211  0.52143  1.0000
  H   H4492     1.0  0.49477  0.64210  0.70128  1.0000
  C   C5594     1.0  0.58908  0.95291  0.48267  1.0000
  S   S748      1.0  0.49023  0.91811  0.56522  1.0000
  S   S749      1.0  0.50559  0.95361  0.52291  1.0000
  H   H4493     1.0  0.65378  0.62637  0.49575  1.0000
  S   S750      1.0  0.67376  0.76089  0.70479  1.0000
  S   S751      1.0  0.51025  0.67043  0.67437  1.0000
  H   H4494     1.0  0.68494  0.65584  0.52003  1.0000
  C   C5595     1.0  0.51612  0.50150  0.49717  1.0000
  C   C5596     1.0  0.49866  0.52392  0.55048  1.0000
  S   S752      1.0  0.61349  0.78028  0.67744  1.0000
  H   H4495     1.0  0.49946  0.61688  0.65403  1.0000
  Fe  Fe377     1.0  0.58967  0.76928  0.69659  1.0000
  S   S753      1.0  0.57866  0.74534  0.69535  1.0000
  H   H4496     1.0  0.68433  0.62838  0.49811  1.0000
  H   H4497     1.0  0.54142  0.67443  0.49394  1.0000
  Fe  Fe378     1.0  0.63143  0.59871  0.52832  1.0000
  S   S754      1.0  0.61536  0.62066  0.50998  1.0000
  S   S755      1.0  0.66125  0.59756  0.52774  1.0000
  Fe  Fe379     1.0  0.60160  0.57607  0.54043  1.0000
  S   S756      1.0  0.58323  0.59595  0.52287  1.0000
  S   S757      1.0  0.59346  0.55022  0.55818  1.0000
  Fe  Fe380     1.0  0.60884  0.59779  0.50139  1.0000
  Fe  Fe381     1.0  0.59130  0.61695  0.53311  1.0000
  S   S758      1.0  0.56858  0.64003  0.54078  1.0000
  S   S759      1.0  0.62666  0.57599  0.51805  1.0000
  S   S760      1.0  0.60784  0.59687  0.55240  1.0000
  Fe  Fe382     1.0  0.50778  0.71090  0.61161  1.0000
  S   S761      1.0  0.52169  0.68197  0.62079  1.0000
  C   C5597     1.0  0.50831  0.49399  0.60366  1.0000
  Fe  Fe383     1.0  0.52884  0.72624  0.63060  1.0000
  S   S762      1.0  0.54421  0.69855  0.64137  1.0000
  S   S763      1.0  0.53274  0.75256  0.63563  1.0000
  Fe  Fe384     1.0  0.54739  0.69309  0.61363  1.0000
  S   S764      1.0  0.57502  0.67764  0.60191  1.0000
  Fe  Fe385     1.0  0.51732  0.68973  0.64773  1.0000
  S   S765      1.0  0.53409  0.72151  0.60200  1.0000
  S   S766      1.0  0.50137  0.71791  0.63933  1.0000
  C   C5598     1.0  0.62755  0.54782  0.47575  1.0000
  H   H4498     1.0  0.50306  0.74619  0.58794  1.0000
  H   H4499     1.0  0.61886  0.47304  0.55859  1.0000
  C   C5599     1.0  0.57068  0.64996  0.55801  1.0000
  C   C5600     1.0  0.55572  0.66251  0.56514  1.0000
  C   C5601     1.0  0.55702  0.67092  0.57871  1.0000
  C   C5602     1.0  0.57331  0.66685  0.58516  1.0000
  C   C5603     1.0  0.58830  0.65423  0.57810  1.0000
  C   C5604     1.0  0.58697  0.64573  0.56455  1.0000
  H   H4500     1.0  0.54312  0.66585  0.56007  1.0000
  H   H4501     1.0  0.54548  0.68080  0.58392  1.0000
  H   H4502     1.0  0.60097  0.65113  0.58297  1.0000
  H   H4503     1.0  0.59862  0.63617  0.55898  1.0000
  C   C5605     1.0  0.56658  0.74793  0.67812  1.0000
  C   C5606     1.0  0.56437  0.73227  0.67375  1.0000
  C   C5607     1.0  0.55412  0.73370  0.66066  1.0000
  C   C5608     1.0  0.54576  0.75072  0.65201  1.0000
  C   C5609     1.0  0.54811  0.76648  0.65625  1.0000
  C   C5610     1.0  0.55869  0.76511  0.66916  1.0000
  H   H4504     1.0  0.57068  0.71895  0.68040  1.0000
  H   H4505     1.0  0.55277  0.72156  0.65728  1.0000
  H   H4506     1.0  0.54157  0.77972  0.64969  1.0000
  H   H4507     1.0  0.56032  0.77729  0.67253  1.0000
  C   C5611     1.0  0.59581  0.53025  0.51409  1.0000
  C   C5612     1.0  0.59594  0.54177  0.52535  1.0000
  C   C5613     1.0  0.59421  0.53532  0.54414  1.0000
  C   C5614     1.0  0.73082  0.51615  0.57887  1.0000
  H   H4508     1.0  0.59686  0.53547  0.49964  1.0000
  H   H4509     1.0  0.59712  0.55575  0.51944  1.0000
  P   P185      1.0  0.64381  0.72604  0.71209  1.0000
  C   C5615     1.0  0.57301  0.88604  0.68023  1.0000
  C   C5616     1.0  0.56905  0.86966  0.69162  1.0000
  C   C5617     1.0  0.57629  0.85302  0.68579  1.0000
  C   C5618     1.0  0.58736  0.85270  0.66842  1.0000
  C   C5619     1.0  0.59147  0.86903  0.65710  1.0000
  C   C5620     1.0  0.58441  0.88563  0.66301  1.0000
  C   C5621     1.0  0.50644  0.80402  0.61479  1.0000
  H   H4510     1.0  0.57311  0.84049  0.69467  1.0000
  H   H4511     1.0  0.58790  0.89806  0.65430  1.0000
  C   C5622     1.0  0.52416  0.95805  0.61320  1.0000
  C   C5623     1.0  0.51668  0.94650  0.62886  1.0000
  C   C5624     1.0  0.50206  0.93864  0.62866  1.0000
  C   C5625     1.0  0.49515  0.94188  0.61272  1.0000
  C   C5626     1.0  0.50261  0.95347  0.59708  1.0000
  C   C5627     1.0  0.51692  0.96165  0.59741  1.0000
  H   H4512     1.0  0.52210  0.94370  0.64114  1.0000
  C   C5628     1.0  0.63670  0.96805  0.55899  1.0000
  H   H4513     1.0  0.54880  0.60471  0.46900  1.0000
  H   H4514     1.0  0.49789  0.89615  0.53925  1.0000
  C   C5629     1.0  0.67781  0.63170  0.55908  1.0000
  C   C5630     1.0  0.69104  0.62228  0.54682  1.0000
  C   C5631     1.0  0.68579  0.61180  0.53732  1.0000
  C   C5632     1.0  0.66726  0.61091  0.53982  1.0000
  C   C5633     1.0  0.65401  0.62040  0.55201  1.0000
  C   C5634     1.0  0.65932  0.63061  0.56175  1.0000
  H   H4515     1.0  0.69611  0.60443  0.52794  1.0000
  H   H4516     1.0  0.63971  0.61969  0.55409  1.0000
  H   H4517     1.0  0.64906  0.63757  0.57147  1.0000
  H   H4518     1.0  0.48986  0.48554  0.65454  1.0000
  H   H4519     1.0  0.71471  0.62296  0.47108  1.0000
  H   H4520     1.0  0.52497  0.87439  0.58574  1.0000
  C   C5635     1.0  0.64233  0.69761  0.67425  1.0000
  C   C5636     1.0  0.69336  0.78268  0.67578  1.0000
  C   C5637     1.0  0.70938  0.78610  0.66312  1.0000
  H   H4521     1.0  0.71856  0.47999  0.56212  1.0000
  H   H4522     1.0  0.53164  0.56123  0.46936  1.0000
  H   H4523     1.0  0.68101  0.79292  0.67540  1.0000
  H   H4524     1.0  0.70892  0.79862  0.65295  1.0000
  H   H4525     1.0  0.55611  0.50572  0.51701  1.0000
  C   C5638     1.0  0.58230  0.95914  0.55067  1.0000
  H   H4526     1.0  0.49830  0.51653  0.51682  1.0000
  C   C5639     1.0  0.57578  0.62502  0.62220  1.0000
  C   C5640     1.0  0.63490  0.67848  0.56608  1.0000
  H   H4527     1.0  0.70530  0.62305  0.54467  1.0000
  C   C5641     1.0  0.59807  0.71291  0.61146  1.0000
  C   C5642     1.0  0.69412  0.69522  0.52400  1.0000
  C   C5643     1.0  0.49077  0.62673  0.61917  1.0000
  C   C5644     1.0  0.49181  0.71243  0.69596  1.0000
  C   C5645     1.0  0.49504  0.94598  0.49441  1.0000
  C   C5646     1.0  0.50814  0.95174  0.50013  1.0000
  C   C5647     1.0  0.54772  0.60787  0.58635  1.0000
  H   H4528     1.0  0.51359  0.51273  0.68257  1.0000
  H   H4529     1.0  0.67713  0.68321  0.46611  1.0000
  C   C5648     1.0  0.69954  0.70902  0.69825  1.0000
  S   S767      1.0  0.72800  0.66638  0.54813  1.0000
  C   C5649     1.0  0.54506  0.54825  0.52651  1.0000
  C   C5650     1.0  0.52755  0.54498  0.52765  1.0000
  H   H4530     1.0  0.64609  0.68101  0.46423  1.0000
  H   H4531     1.0  0.66437  0.96649  0.48063  1.0000
  C   C5651     1.0  0.61244  0.68505  0.54705  1.0000
  C   C5652     1.0  0.59276  0.50549  0.54023  1.0000
  C   C5653     1.0  0.55534  0.48429  0.56935  1.0000
  H   H4532     1.0  0.57412  0.60163  0.48496  1.0000
  C   C5654     1.0  0.48892  0.64461  0.68932  1.0000
  H   H4533     1.0  0.62462  0.96206  0.56321  1.0000
  C   C5655     1.0  0.54949  0.58246  0.57256  1.0000
  H   H4534     1.0  0.61500  0.66380  0.60225  1.0000
  C   C5656     1.0  0.52383  0.95605  0.48750  1.0000
  S   S768      1.0  0.62550  0.95292  0.62400  1.0000
  C   C5657     1.0  0.64144  0.48206  0.50935  1.0000
  C   C5658     1.0  0.50561  0.82033  0.60165  1.0000
  C   C5659     1.0  0.56317  0.61668  0.61874  1.0000
  H   H4535     1.0  0.59630  0.95407  0.50741  1.0000
  C   C5660     1.0  0.50657  0.60280  0.65601  1.0000
  S   S769      1.0  0.59424  0.49831  0.50662  1.0000
  H   H4536     1.0  0.54453  0.80349  0.60550  1.0000
  P   P186      1.0  0.63222  0.69561  0.59439  1.0000
  C   C5661     1.0  0.69121  0.47900  0.56042  1.0000
  H   H4537     1.0  0.54318  0.83904  0.53650  1.0000
  C   C5662     1.0  0.66718  0.71399  0.71289  1.0000
  C   C5663     1.0  0.72660  0.75757  0.67700  1.0000
  C   C5664     1.0  0.61700  0.71274  0.60634  1.0000
  H   H4538     1.0  0.49915  0.77566  0.56606  1.0000
  C   C5665     1.0  0.56971  0.63825  0.63297  1.0000
  C   C5666     1.0  0.56120  0.80544  0.62315  1.0000
  C   C5667     1.0  0.56468  0.81621  0.63345  1.0000
  C   C5668     1.0  0.55436  0.83384  0.63353  1.0000
  C   C5669     1.0  0.54025  0.84054  0.62369  1.0000
  C   C5670     1.0  0.53592  0.82940  0.61419  1.0000
  C   C5671     1.0  0.54702  0.81207  0.61337  1.0000
  H   H4539     1.0  0.48721  0.94072  0.47159  1.0000
  H   H4540     1.0  0.56307  0.56752  0.51644  1.0000
  C   C5672     1.0  0.70524  0.69961  0.50681  1.0000
  P   P187      1.0  0.72327  0.91693  0.61583  1.0000
  C   C5673     1.0  0.72829  0.56623  0.57994  1.0000
  C   C5674     1.0  0.62400  0.73033  0.68509  1.0000
  H   H4541     1.0  0.70028  0.68378  0.58172  1.0000
  C   C5675     1.0  0.54486  0.50450  0.51164  1.0000
  H   H4542     1.0  0.48516  0.82413  0.52219  1.0000
  C   C5676     1.0  0.53008  0.58458  0.60228  1.0000
  C   C5677     1.0  0.71508  0.58217  0.57616  1.0000
  H   H4543     1.0  0.49721  0.95626  0.58481  1.0000
  H   H4544     1.0  0.53709  0.48674  0.47890  1.0000
  H   H4545     1.0  0.64966  0.94978  0.58026  1.0000
  H   H4546     1.0  0.49134  0.87098  0.58876  1.0000
  C   C5678     1.0  0.51092  0.57295  0.67569  1.0000
  H   H4547     1.0  0.56929  0.79180  0.62299  1.0000
  H   H4548     1.0  0.57552  0.81104  0.64123  1.0000
  H   H4549     1.0  0.55743  0.84230  0.64119  1.0000
  H   H4550     1.0  0.53263  0.85433  0.62374  1.0000
  H   H4551     1.0  0.50267  0.83927  0.64075  1.0000
  C   C5679     1.0  0.53106  0.51792  0.63972  1.0000
  C   C5680     1.0  0.49954  0.85396  0.61351  1.0000
  C   C5681     1.0  0.69068  0.66804  0.51617  1.0000
  H   H4552     1.0  0.70700  0.73579  0.52663  1.0000
  C   C5682     1.0  0.65567  0.71943  0.57536  1.0000
  C   C5683     1.0  0.56499  0.65301  0.48931  1.0000
  H   H4553     1.0  0.53727  0.89942  0.47748  1.0000
  H   H4554     1.0  0.50688  0.56389  0.68852  1.0000
  C   C5684     1.0  0.49003  0.69863  0.71157  1.0000
  H   H4555     1.0  0.58369  0.51609  0.62338  1.0000
  C   C5685     1.0  0.60234  0.69923  0.55584  1.0000
  C   C5686     1.0  0.50919  0.71586  0.68691  1.0000
  C   C5687     1.0  0.54413  0.49281  0.55665  1.0000
  S   S770      1.0  0.61365  0.59744  0.47146  1.0000
  H   H4556     1.0  0.59236  0.70308  0.60800  1.0000
  C   C5688     1.0  0.64061  0.96511  0.62733  1.0000
  C   C5689     1.0  0.52540  0.56661  0.66227  1.0000
  H   H4557     1.0  0.65122  0.75318  0.67679  1.0000
  H   H4558     1.0  0.56741  0.48751  0.59031  1.0000
  C   C5690     1.0  0.63868  0.50897  0.57191  1.0000
  C   C5691     1.0  0.63451  0.52780  0.57093  1.0000
  C   C5692     1.0  0.64203  0.53942  0.55538  1.0000
  C   C5693     1.0  0.65377  0.53224  0.54077  1.0000
  H   H4559     1.0  0.63253  0.50024  0.58399  1.0000
  H   H4560     1.0  0.62500  0.53351  0.58198  1.0000
  H   H4561     1.0  0.63842  0.55404  0.55452  1.0000
  H   H4562     1.0  0.65933  0.54132  0.52862  1.0000
  C   C5694     1.0  0.62842  0.70889  0.66558  1.0000
  H   H4563     1.0  0.61654  0.74276  0.68947  1.0000
  C   C5695     1.0  0.59314  0.84713  0.60923  1.0000
  C   C5696     1.0  0.59076  0.83834  0.59651  1.0000
  C   C5697     1.0  0.58104  0.84815  0.58288  1.0000
  C   C5698     1.0  0.57400  0.86682  0.58175  1.0000
  C   C5699     1.0  0.57669  0.87582  0.59424  1.0000
  C   C5700     1.0  0.58589  0.86572  0.60826  1.0000
  P   P188      1.0  0.56676  0.89962  0.59386  1.0000
  C   C5701     1.0  0.55827  0.91069  0.57322  1.0000
  C   C5702     1.0  0.54941  0.89984  0.61453  1.0000
  C   C5703     1.0  0.53254  0.89525  0.61568  1.0000
  C   C5704     1.0  0.51971  0.89396  0.63215  1.0000
  C   C5705     1.0  0.52380  0.89685  0.64769  1.0000
  C   C5706     1.0  0.54064  0.90123  0.64672  1.0000
  C   C5707     1.0  0.55343  0.90266  0.63023  1.0000
  C   C5708     1.0  0.54068  0.92177  0.57376  1.0000
  C   C5709     1.0  0.53488  0.93104  0.55753  1.0000
  C   C5710     1.0  0.54676  0.92984  0.54070  1.0000
  C   C5711     1.0  0.56437  0.91909  0.54005  1.0000
  C   C5712     1.0  0.57015  0.90961  0.55624  1.0000
  C   C5713     1.0  0.58351  0.91240  0.59365  1.0000
  C   C5714     1.0  0.60234  0.90464  0.59156  1.0000
  C   C5715     1.0  0.61490  0.91500  0.59154  1.0000
  C   C5716     1.0  0.60880  0.93321  0.59321  1.0000
  C   C5717     1.0  0.59019  0.94117  0.59460  1.0000
  C   C5718     1.0  0.57757  0.93077  0.59498  1.0000
  H   H4564     1.0  0.60019  0.83945  0.62018  1.0000
  H   H4565     1.0  0.59608  0.82385  0.59753  1.0000
  H   H4566     1.0  0.57877  0.84123  0.57333  1.0000
  H   H4567     1.0  0.56632  0.87406  0.57129  1.0000
  H   H4568     1.0  0.58733  0.87221  0.61856  1.0000
  H   H4569     1.0  0.52923  0.89273  0.60388  1.0000
  H   H4570     1.0  0.50647  0.89104  0.63278  1.0000
  H   H4571     1.0  0.51385  0.89594  0.66045  1.0000
  H   H4572     1.0  0.54383  0.90351  0.65876  1.0000
  H   H4573     1.0  0.56654  0.90567  0.62994  1.0000
  H   H4574     1.0  0.53151  0.92362  0.58661  1.0000
  H   H4575     1.0  0.52116  0.93928  0.55797  1.0000
  H   H4576     1.0  0.54229  0.93732  0.52817  1.0000
  H   H4577     1.0  0.57358  0.91826  0.52698  1.0000
  H   H4578     1.0  0.58399  0.90161  0.55557  1.0000
  H   H4579     1.0  0.60740  0.89063  0.59011  1.0000
  H   H4580     1.0  0.62934  0.90886  0.59054  1.0000
  H   H4581     1.0  0.61838  0.94107  0.59388  1.0000
  H   H4582     1.0  0.58539  0.95522  0.59620  1.0000
  H   H4583     1.0  0.56310  0.93699  0.59667  1.0000
  C   C5719     1.0  0.71892  0.63544  0.49139  1.0000
  C   C5720     1.0  0.68881  0.71173  0.57151  1.0000
  C   C5721     1.0  0.69370  0.76643  0.68889  1.0000
  H   H4584     1.0  0.49044  0.59610  0.68297  1.0000
  S   S771      1.0  0.57228  0.79641  0.70051  1.0000
  C   C5722     1.0  0.53837  0.63497  0.63675  1.0000
  H   H4585     1.0  0.62461  0.70495  0.65476  1.0000
  C   C5723     1.0  0.64703  0.70269  0.68837  1.0000
  C   C5724     1.0  0.48880  0.53930  0.55768  1.0000
  H   H4586     1.0  0.67825  0.67601  0.54198  1.0000
  H   H4587     1.0  0.65127  0.68234  0.62497  1.0000
  C   C5725     1.0  0.62410  0.72466  0.61249  1.0000
  H   H4588     1.0  0.55281  0.52025  0.58823  1.0000
  H   H4589     1.0  0.48643  0.53532  0.67718  1.0000
  C   C5726     1.0  0.52072  0.59644  0.64226  1.0000
  C   C5727     1.0  0.65799  0.51341  0.54169  1.0000
  C   C5728     1.0  0.59807  0.96616  0.54163  1.0000
  H   H4590     1.0  0.56033  0.86984  0.70498  1.0000
  C   C5729     1.0  0.51435  0.88856  0.49616  1.0000
  C   C5730     1.0  0.50348  0.88768  0.51379  1.0000
  C   C5731     1.0  0.50641  0.89693  0.52576  1.0000
  C   C5732     1.0  0.52010  0.90722  0.52029  1.0000
  C   C5733     1.0  0.53120  0.90798  0.50287  1.0000
  C   C5734     1.0  0.52845  0.89858  0.49084  1.0000
  H   H4591     1.0  0.72331  0.70527  0.53994  1.0000
  H   H4592     1.0  0.67884  0.94074  0.66734  1.0000
  C   C5735     1.0  0.68680  0.67948  0.52864  1.0000
  Fe  Fe386     1.0  0.62737  0.77654  0.70229  1.0000
  H   H4593     1.0  0.56395  0.60438  0.55994  1.0000
  C   C5736     1.0  0.56790  0.96929  0.56133  1.0000
  C   C5737     1.0  0.51237  0.51042  0.51174  1.0000
  C   C5738     1.0  0.53672  0.57868  0.50902  1.0000
  C   C5739     1.0  0.59272  0.51712  0.55161  1.0000
  H   H4594     1.0  0.54820  0.67217  0.67950  1.0000
  C   C5740     1.0  0.49441  0.47517  0.69856  1.0000
  C   C5741     1.0  0.67277  0.72453  0.56889  1.0000
  H   H4595     1.0  0.49259  0.87995  0.51830  1.0000
  Fe  Fe387     1.0  0.59698  0.80725  0.68324  1.0000
  H   H4596     1.0  0.54159  0.91627  0.49850  1.0000
  C   C5742     1.0  0.49394  0.65814  0.67420  1.0000
  H   H4597     1.0  0.54595  0.87145  0.52942  1.0000
  H   H4598     1.0  0.52005  0.57931  0.61367  1.0000
  P   P189      1.0  0.50671  0.51797  0.64568  1.0000
  C   C5743     1.0  0.52317  0.69106  0.70859  1.0000
  C   C5744     1.0  0.53773  0.53317  0.62843  1.0000
  H   H4599     1.0  0.71016  0.59927  0.61396  1.0000
  C   C5745     1.0  0.64614  0.51849  0.47120  1.0000
  H   H4600     1.0  0.55509  0.57539  0.56128  1.0000
  C   C5746     1.0  0.72671  0.55454  0.53083  1.0000
  H   H4601     1.0  0.63425  0.49775  0.53018  1.0000
  S   S772      1.0  0.59589  0.83211  0.66050  1.0000
  H   H4602     1.0  0.52799  0.49752  0.61704  1.0000
  H   H4603     1.0  0.54626  0.65332  0.64877  1.0000
  H   H4604     1.0  0.66702  0.50804  0.53021  1.0000
  C   C5747     1.0  0.48566  0.54529  0.66467  1.0000
  C   C5748     1.0  0.53600  0.60043  0.60204  1.0000
  C   C5749     1.0  0.54092  0.86494  0.54333  1.0000
  C   C5750     1.0  0.66660  0.96867  0.56363  1.0000
  P   P190      1.0  0.51714  0.83788  0.60210  1.0000
  H   H4605     1.0  0.53133  0.82420  0.56800  1.0000
  H   H4606     1.0  0.53688  0.88903  0.55419  1.0000
  C   C5751     1.0  0.55663  0.53250  0.62261  1.0000
  C   C5752     1.0  0.58692  0.96002  0.49816  1.0000
  S   S773      1.0  0.54238  0.96843  0.61268  1.0000
  C   C5753     1.0  0.65067  0.77991  0.68356  1.0000
  C   C5754     1.0  0.72100  0.55386  0.54971  1.0000
  C   C5755     1.0  0.49148  0.55405  0.63172  1.0000
  H   H4607     1.0  0.63874  0.72405  0.60992  1.0000
  C   C5756     1.0  0.56904  0.51662  0.62804  1.0000
  C   C5757     1.0  0.56256  0.50140  0.63935  1.0000
  C   C5758     1.0  0.61924  0.72523  0.67105  1.0000
  C   C5759     1.0  0.53898  0.52112  0.56690  1.0000
  C   C5760     1.0  0.65466  0.47326  0.53652  1.0000
  H   H4608     1.0  0.58388  0.52869  0.47824  1.0000
  H   H4609     1.0  0.53388  0.95029  0.71092  1.0000
  C   C5761     1.0  0.49069  0.76601  0.56716  1.0000
  C   C5762     1.0  0.57526  0.53693  0.46887  1.0000
  H   H4610     1.0  0.55587  0.96371  0.56875  1.0000
  C   C5763     1.0  0.68937  0.55783  0.54682  1.0000
  C   C5764     1.0  0.69512  0.55896  0.52800  1.0000
  H   H4611     1.0  0.63442  0.65249  0.47886  1.0000
  C   C5765     1.0  0.55057  0.66684  0.48404  1.0000
  C   C5766     1.0  0.62885  0.67485  0.55199  1.0000
  C   C5767     1.0  0.70225  0.55515  0.55768  1.0000
  C   C5768     1.0  0.50192  0.50120  0.66642  1.0000
  C   C5769     1.0  0.49752  0.82910  0.51482  1.0000
  H   H4612     1.0  0.58786  0.63223  0.48079  1.0000
  C   C5770     1.0  0.48612  0.66154  0.65890  1.0000
  P   P191      1.0  0.52219  0.52282  0.53834  1.0000
  C   C5771     1.0  0.52892  0.86654  0.57514  1.0000
  C   C5772     1.0  0.49011  0.47384  0.68253  1.0000
  C   C5773     1.0  0.52670  0.51140  0.51951  1.0000
  H   H4613     1.0  0.58422  0.74816  0.63386  1.0000
  C   C5774     1.0  0.53061  0.82502  0.50757  1.0000
  C   C5775     1.0  0.65894  0.63872  0.48910  1.0000
  H   H4614     1.0  0.71023  0.58591  0.56347  1.0000
  H   H4615     1.0  0.54181  0.48485  0.54808  1.0000
  C   C5776     1.0  0.53422  0.49399  0.48991  1.0000
  H   H4616     1.0  0.60930  0.95797  0.53374  1.0000
  H   H4617     1.0  0.60514  0.67354  0.65748  1.0000
  H   H4618     1.0  0.70207  0.71569  0.56702  1.0000
  H   H4619     1.0  0.53278  0.53542  0.56607  1.0000
  H   H4620     1.0  0.53268  0.56312  0.58799  1.0000
  H   H4621     1.0  0.67484  0.55967  0.55286  1.0000
  H   H4622     1.0  0.68503  0.56166  0.51956  1.0000
  H   H4623     1.0  0.67359  0.73844  0.56206  1.0000
  H   H4624     1.0  0.57499  0.67052  0.65388  1.0000
  H   H4625     1.0  0.69751  0.55457  0.57221  1.0000
  H   H4626     1.0  0.64747  0.67022  0.57000  1.0000
  C   C5777     1.0  0.50053  0.51151  0.62754  1.0000
  C   C5778     1.0  0.69184  0.94150  0.65787  1.0000
  C   C5779     1.0  0.72185  0.73278  0.52455  1.0000
  H   H4627     1.0  0.59151  0.49150  0.54596  1.0000
  P   P192      1.0  0.70603  0.65753  0.48294  1.0000
  C   C5780     1.0  0.55019  0.51254  0.57959  1.0000
  H   H4628     1.0  0.55179  0.54173  0.49038  1.0000
  C   C5781     1.0  0.59339  0.73818  0.62638  1.0000
  C   C5782     1.0  0.50159  0.59107  0.67258  1.0000
  C   C5783     1.0  0.70828  0.59380  0.58859  1.0000
  H   H4629     1.0  0.48777  0.61363  0.62667  1.0000
  H   H4630     1.0  0.52419  0.65416  0.70695  1.0000
  C   C5784     1.0  0.62418  0.64595  0.62571  1.0000
  H   H4631     1.0  0.59023  0.62148  0.61623  1.0000
  H   H4632     1.0  0.52188  0.91481  0.52948  1.0000
  H   H4633     1.0  0.56700  0.64992  0.50322  1.0000
  H   H4634     1.0  0.53889  0.48994  0.65357  1.0000
  C   C5785     1.0  0.55104  0.64304  0.64044  1.0000
  H   H4635     1.0  0.71112  0.74184  0.70017  1.0000
  C   C5786     1.0  0.55843  0.49413  0.58076  1.0000
  C   C5787     1.0  0.53700  0.57550  0.58768  1.0000
  C   C5788     1.0  0.55701  0.54430  0.47582  1.0000
  S   S774      1.0  0.72377  0.64769  0.59156  1.0000
  C   C5789     1.0  0.57722  0.60038  0.47085  1.0000
  C   C5790     1.0  0.62349  0.66179  0.61214  1.0000
  H   H4636     1.0  0.60047  0.86880  0.64390  1.0000
  C   C5791     1.0  0.60850  0.70308  0.56976  1.0000
  H   H4637     1.0  0.54162  0.84789  0.49032  1.0000
  H   H4638     1.0  0.67760  0.96330  0.57115  1.0000
  C   C5792     1.0  0.63354  0.67488  0.61150  1.0000
  C   C5793     1.0  0.73101  0.71556  0.53194  1.0000
  C   C5794     1.0  0.70880  0.47138  0.56404  1.0000
  H   H4639     1.0  0.71059  0.71336  0.68740  1.0000
  C   C5795     1.0  0.72810  0.57415  0.60849  1.0000
  C   C5796     1.0  0.71507  0.93115  0.63273  1.0000
  C   C5797     1.0  0.69886  0.92940  0.64590  1.0000
  H   H4640     1.0  0.58247  0.67822  0.71322  1.0000
  H   H4641     1.0  0.53406  0.96023  0.49200  1.0000
  C   C5798     1.0  0.54429  0.62205  0.62550  1.0000
  C   C5799     1.0  0.61231  0.73744  0.62231  1.0000
  C   C5800     1.0  0.59354  0.67406  0.66886  1.0000
  H   H4642     1.0  0.56270  0.49020  0.49117  1.0000
  C   C5801     1.0  0.54365  0.50201  0.64514  1.0000
  C   C5802     1.0  0.72093  0.62094  0.48273  1.0000
  H   H4643     1.0  0.59159  0.51204  0.56614  1.0000
  H   H4644     1.0  0.73224  0.59255  0.48252  1.0000
  H   H4645     1.0  0.51835  0.48545  0.59510  1.0000
  C   C5803     1.0  0.70386  0.91039  0.61170  1.0000
  C   C5804     1.0  0.68709  0.92289  0.61143  1.0000
  C   C5805     1.0  0.67164  0.91752  0.60967  1.0000
  C   C5806     1.0  0.67290  0.89975  0.60778  1.0000
  C   C5807     1.0  0.68964  0.88735  0.60757  1.0000
  C   C5808     1.0  0.70508  0.89262  0.60954  1.0000
  H   H4646     1.0  0.61657  0.63582  0.62593  1.0000
  H   H4647     1.0  0.67913  0.73096  0.68807  1.0000
  H   H4648     1.0  0.60881  0.67725  0.68733  1.0000
  H   H4649     1.0  0.69128  0.91909  0.64664  1.0000
  H   H4650     1.0  0.50971  0.58585  0.50286  1.0000
  C   C5809     1.0  0.63475  0.64314  0.63884  1.0000
  C   C5810     1.0  0.55463  0.59874  0.57183  1.0000
  H   H4651     1.0  0.54210  0.57345  0.63570  1.0000
  H   H4652     1.0  0.60816  0.73386  0.66466  1.0000
  H   H4653     1.0  0.52390  0.63906  0.64248  1.0000
  H   H4654     1.0  0.68583  0.93666  0.61309  1.0000
  H   H4655     1.0  0.65857  0.92704  0.61023  1.0000
  H   H4656     1.0  0.66082  0.89555  0.60674  1.0000
  H   H4657     1.0  0.69057  0.87354  0.60621  1.0000
  H   H4658     1.0  0.72596  0.89559  0.65260  1.0000
  P   P193      1.0  0.52753  0.61184  0.62113  1.0000
  C   C5811     1.0  0.70186  0.67232  0.49889  1.0000
  C   C5812     1.0  0.51490  0.55856  0.51887  1.0000
  H   H4659     1.0  0.55549  0.53771  0.53227  1.0000
  C   C5813     1.0  0.53621  0.51140  0.55505  1.0000
  C   C5814     1.0  0.63797  0.71925  0.69380  1.0000
  H   H4660     1.0  0.60043  0.71417  0.57622  1.0000
  H   H4661     1.0  0.54032  0.59167  0.50185  1.0000
  H   H4662     1.0  0.52047  0.97043  0.55597  1.0000
  Fe  Fe388     1.0  0.71420  0.64465  0.56759  1.0000
  C   C5815     1.0  0.64373  0.67221  0.62502  1.0000
  H   H4663     1.0  0.65470  0.78664  0.66952  1.0000
  H   H4664     1.0  0.53752  0.76526  0.70607  1.0000
  H   H4665     1.0  0.50050  0.67423  0.59260  1.0000
  H   H4666     1.0  0.51372  0.80164  0.62574  1.0000
  H   H4667     1.0  0.63544  0.63074  0.64921  1.0000
  C   C5816     1.0  0.51369  0.50093  0.61608  1.0000
  C   C5817     1.0  0.58629  0.72584  0.62104  1.0000
  C   C5818     1.0  0.50879  0.62978  0.61473  1.0000
  C   C5819     1.0  0.51227  0.64684  0.60468  1.0000
  C   C5820     1.0  0.64804  0.65347  0.47963  1.0000
  H   H4668     1.0  0.49507  0.55086  0.55586  1.0000
  H   H4669     1.0  0.54393  0.81669  0.50921  1.0000
  H   H4670     1.0  0.65754  0.50743  0.47400  1.0000
  H   H4671     1.0  0.65774  0.69363  0.69496  1.0000
  H   H4672     1.0  0.58947  0.70696  0.55218  1.0000
  C   C5821     1.0  0.51198  0.85321  0.49419  1.0000
  H   H4673     1.0  0.63669  0.66387  0.54514  1.0000
  C   C5822     1.0  0.64223  0.53356  0.47938  1.0000
  H   H4674     1.0  0.57161  0.72628  0.62435  1.0000
  C   C5823     1.0  0.59557  0.67620  0.68563  1.0000
  H   H4675     1.0  0.61782  0.74674  0.62683  1.0000
  C   C5824     1.0  0.71053  0.75415  0.68974  1.0000
  C   C5825     1.0  0.64447  0.65630  0.63854  1.0000
  H   H4676     1.0  0.60740  0.68180  0.53659  1.0000
  H   H4677     1.0  0.65274  0.65408  0.64866  1.0000
  H   H4678     1.0  0.52612  0.64940  0.60067  1.0000
  C   C5826     1.0  0.49372  0.48681  0.66658  1.0000
  C   C5827     1.0  0.50293  0.48918  0.69849  1.0000
  C   C5828     1.0  0.67072  0.68858  0.58653  1.0000
  C   C5829     1.0  0.50693  0.50200  0.68242  1.0000
  H   H4679     1.0  0.64332  0.72948  0.57330  1.0000
  C   C5830     1.0  0.53245  0.83837  0.56518  1.0000
  C   C5831     1.0  0.65091  0.96102  0.56867  1.0000
  H   H4680     1.0  0.51712  0.92731  0.70977  1.0000
  H   H4681     1.0  0.49900  0.77763  0.62376  1.0000
  C   C5832     1.0  0.52625  0.95509  0.46912  1.0000
  C   C5833     1.0  0.54953  0.56509  0.51736  1.0000
  C   C5834     1.0  0.54861  0.49583  0.49689  1.0000
  C   C5835     1.0  0.65449  0.70158  0.58485  1.0000
  C   C5836     1.0  0.64815  0.78977  0.69888  1.0000
  C   C5837     1.0  0.49299  0.74928  0.57949  1.0000
  C   C5838     1.0  0.70898  0.68831  0.49422  1.0000
  H   H4682     1.0  0.56823  0.60628  0.61063  1.0000
  H   H4683     1.0  0.69122  0.70390  0.53379  1.0000
  H   H4684     1.0  0.67033  0.67446  0.59285  1.0000
  C   C5839     1.0  0.62457  0.69237  0.57535  1.0000
  H   H4685     1.0  0.52348  0.74072  0.70353  1.0000
  C   C5840     1.0  0.64292  0.75054  0.70740  1.0000
  H   H4686     1.0  0.71103  0.71174  0.50315  1.0000
  H   H4687     1.0  0.71732  0.69226  0.48093  1.0000
  C   C5841     1.0  0.49379  0.54072  0.64758  1.0000
  H   H4688     1.0  0.65051  0.80354  0.69583  1.0000
  H   H4689     1.0  0.56171  0.54424  0.61368  1.0000
  C   C5842     1.0  0.65043  0.50164  0.55727  1.0000
  H   H4690     1.0  0.55161  0.62070  0.58526  1.0000
  C   C5843     1.0  0.49054  0.50866  0.55412  1.0000
  C   C5844     1.0  0.68779  0.69372  0.58002  1.0000
  C   C5845     1.0  0.51946  0.57539  0.50968  1.0000
  H   H4691     1.0  0.52843  0.54551  0.62387  1.0000
  H   H4692     1.0  0.64948  0.68491  0.67006  1.0000
  C   C5846     1.0  0.49059  0.94552  0.71265  1.0000
  C   C5847     1.0  0.50964  0.94093  0.71125  1.0000
  H   H4693     1.0  0.53811  0.70798  0.68621  1.0000
  C   C5848     1.0  0.64826  0.76033  0.68787  1.0000
  H   H4694     1.0  0.69823  0.60614  0.58554  1.0000
  C   C5849     1.0  0.73185  0.74616  0.51464  1.0000
  H   H4695     1.0  0.55984  0.96469  0.71096  1.0000
  H   H4696     1.0  0.71807  0.52062  0.57404  1.0000
  H   H4697     1.0  0.53278  0.55263  0.66477  1.0000
  H   H4698     1.0  0.68764  0.49357  0.55580  1.0000
  C   C5850     1.0  0.58051  0.67696  0.70025  1.0000
  H   H4699     1.0  0.69551  0.96481  0.66602  1.0000
  H   H4700     1.0  0.51558  0.80470  0.52512  1.0000
  C   C5851     1.0  0.52478  0.70525  0.69328  1.0000
  C   C5852     1.0  0.51472  0.81825  0.51658  1.0000
  P   P194      1.0  0.51008  0.87631  0.48119  1.0000
  C   C5853     1.0  0.53047  0.57838  0.64571  1.0000
  H   H4701     1.0  0.48960  0.67218  0.64733  1.0000
  H   H4702     1.0  0.71781  0.88271  0.60964  1.0000
  H   H4703     1.0  0.57941  0.64508  0.63520  1.0000
  C   C5854     1.0  0.52925  0.84256  0.49666  1.0000
  C   C5855     1.0  0.71378  0.55718  0.52003  1.0000
  H   H4704     1.0  0.50163  0.55606  0.51890  1.0000
  C   C5856     1.0  0.72596  0.77348  0.66349  1.0000
  C   C5857     1.0  0.71490  0.58988  0.60467  1.0000
  C   C5858     1.0  0.56315  0.67611  0.69805  1.0000
  H   H4705     1.0  0.50502  0.50040  0.49146  1.0000
  H   H4706     1.0  0.60006  0.94145  0.47990  1.0000
  S   S775      1.0  0.48542  0.71539  0.59584  1.0000
  C   C5859     1.0  0.72485  0.94418  0.63280  1.0000
  C   C5860     1.0  0.73284  0.95143  0.56601  1.0000
  C   C5861     1.0  0.68164  0.71915  0.69880  1.0000
  H   H4707     1.0  0.71816  0.55817  0.50541  1.0000
  C   C5862     1.0  0.48656  0.80954  0.58743  1.0000
  H   H4708     1.0  0.49713  0.55076  0.61835  1.0000
  H   H4709     1.0  0.57219  0.48906  0.64350  1.0000
  H   H4710     1.0  0.58139  0.94568  0.54978  1.0000
  H   H4711     1.0  0.49828  0.49620  0.54972  1.0000
  C   C5863     1.0  0.70127  0.95499  0.65723  1.0000
  C   C5864     1.0  0.53578  0.87484  0.55726  1.0000
  C   C5865     1.0  0.56135  0.67341  0.68134  1.0000
  H   H4712     1.0  0.72560  0.48913  0.59117  1.0000
  S   S776      1.0  0.60992  0.80549  0.70655  1.0000
  C   C5866     1.0  0.68354  0.65562  0.48130  1.0000
  H   H4713     1.0  0.49620  0.92989  0.64087  1.0000
  C   C5867     1.0  0.49610  0.84648  0.50379  1.0000
  H   H4714     1.0  0.51063  0.72653  0.67478  1.0000
  C   C5868     1.0  0.64278  0.48558  0.52578  1.0000
  C   C5869     1.0  0.51914  0.95390  0.71184  1.0000
  C   C5870     1.0  0.52678  0.84837  0.57916  1.0000
  C   C5871     1.0  0.71793  0.95612  0.64491  1.0000
  H   H4715     1.0  0.63220  0.49153  0.50121  1.0000
  C   C5872     1.0  0.49558  0.85125  0.63265  1.0000
  C   C5873     1.0  0.49780  0.66091  0.59991  1.0000
  H   H4716     1.0  0.72477  0.75956  0.50897  1.0000
  H   H4717     1.0  0.50620  0.49022  0.71097  1.0000
  C   C5874     1.0  0.57676  0.64307  0.47667  1.0000
  H   H4718     1.0  0.62450  0.55947  0.48215  1.0000
  C   C5875     1.0  0.53933  0.84669  0.54731  1.0000
  H   H4719     1.0  0.72495  0.95982  0.55598  1.0000
  C   C5876     1.0  0.67650  0.63984  0.49017  1.0000
  H   H4720     1.0  0.48564  0.49136  0.59372  1.0000
  H   H4721     1.0  0.73360  0.57142  0.62073  1.0000
  C   C5877     1.0  0.48982  0.49741  0.60275  1.0000
  H   H4722     1.0  0.72524  0.96662  0.64433  1.0000
  H   H4723     1.0  0.65957  0.96138  0.60225  1.0000
  C   C5878     1.0  0.57737  0.96091  0.47041  1.0000
  C   C5879     1.0  0.49513  0.82320  0.58828  1.0000
  H   H4724     1.0  0.49362  0.83595  0.57842  1.0000
  C   C5880     1.0  0.49787  0.79040  0.61389  1.0000
  C   C5881     1.0  0.48937  0.86906  0.60345  1.0000
  C   C5882     1.0  0.65667  0.96724  0.61414  1.0000
  C   C5883     1.0  0.70312  0.69329  0.71145  1.0000
  H   H4725     1.0  0.71696  0.68533  0.71076  1.0000
  H   H4726     1.0  0.48649  0.86202  0.46634  1.0000
  C   C5884     1.0  0.65464  0.66949  0.47138  1.0000
  C   C5885     1.0  0.67226  0.67064  0.47237  1.0000
  H   H4727     1.0  0.55982  0.70885  0.71359  1.0000
  H   H4728     1.0  0.58941  0.50132  0.46713  1.0000
  C   C5886     1.0  0.48803  0.79311  0.60017  1.0000
  C   C5887     1.0  0.54799  0.67083  0.46606  1.0000
  C   C5888     1.0  0.72755  0.63266  0.50612  1.0000
  H   H4729     1.0  0.72687  0.64373  0.51264  1.0000
  C   C5889     1.0  0.73087  0.60371  0.48917  1.0000
  C   C5890     1.0  0.67083  0.69782  0.72583  1.0000
  S   S777      1.0  0.53772  0.67088  0.81578  1.0000
  Fe  Fe389     1.0  0.51793  0.89897  0.90813  1.0000
  H   H4730     1.0  0.60946  0.71192  0.72156  1.0000
  S   S778      1.0  0.51921  0.91078  0.87803  1.0000
  Fe  Fe390     1.0  0.53231  0.86487  0.93401  1.0000
  H   H4731     1.0  0.58426  0.67944  0.89008  1.0000
  S   S779      1.0  0.55036  0.83668  0.93716  1.0000
  C   C5891     1.0  0.72287  0.62830  0.88307  1.0000
  Fe  Fe391     1.0  0.52293  0.90173  0.94515  1.0000
  C   C5892     1.0  0.54905  0.87215  0.85480  1.0000
  S   S780      1.0  0.50926  0.87199  0.91904  1.0000
  S   S781      1.0  0.54252  0.89103  0.92137  1.0000
  C   C5893     1.0  0.49600  0.71530  0.81016  1.0000
  C   C5894     1.0  0.55369  0.95808  0.93235  1.0000
  C   C5895     1.0  0.48656  0.75309  0.79859  1.0000
  Fe  Fe392     1.0  0.54371  0.50513  0.88581  1.0000
  S   S782      1.0  0.56970  0.48395  0.88324  1.0000
  S   S783      1.0  0.54489  0.53016  0.86326  1.0000
  H   H4732     1.0  0.67832  0.50116  0.80327  1.0000
  H   H4733     1.0  0.52393  0.74462  0.89501  1.0000
  H   H4734     1.0  0.53052  0.74338  0.80907  1.0000
  C   C5896     1.0  0.54205  0.74786  0.77995  1.0000
  S   S784      1.0  0.52592  0.48614  0.88594  1.0000
  S   S785      1.0  0.53873  0.50064  0.91650  1.0000
  S   S786      1.0  0.49280  0.66832  0.80222  1.0000
  C   C5897     1.0  0.53765  0.86312  0.83259  1.0000
  H   H4735     1.0  0.52956  0.53830  0.81183  1.0000
  H   H4736     1.0  0.50403  0.67739  0.73008  1.0000
  Fe  Fe393     1.0  0.72156  0.65656  0.94347  1.0000
  S   S787      1.0  0.63223  0.53227  0.91820  1.0000
  Fe  Fe394     1.0  0.57575  0.76518  0.87153  1.0000
  S   S788      1.0  0.56995  0.73914  0.89067  1.0000
  H   H4737     1.0  0.51362  0.93835  0.89929  1.0000
  Fe  Fe395     1.0  0.59717  0.74558  0.84060  1.0000
  S   S789      1.0  0.59342  0.71790  0.85709  1.0000
  S   S790      1.0  0.61402  0.74891  0.81174  1.0000
  Fe  Fe396     1.0  0.56440  0.73153  0.86666  1.0000
  Fe  Fe397     1.0  0.59953  0.72730  0.87974  1.0000
  S   S791      1.0  0.61637  0.70647  0.89851  1.0000
  S   S792      1.0  0.56755  0.75841  0.84851  1.0000
  S   S793      1.0  0.60583  0.75392  0.86245  1.0000
  H   H4738     1.0  0.53141  0.81671  0.76731  1.0000
  H   H4739     1.0  0.55492  0.96941  0.87489  1.0000
  C   C5898     1.0  0.49572  0.85715  0.88118  1.0000
  S   S794      1.0  0.57203  0.79880  0.75059  1.0000
  C   C5899     1.0  0.49485  0.62883  0.92282  1.0000
  H   H4740     1.0  0.50092  0.57465  0.89685  1.0000
  C   C5900     1.0  0.60280  0.76401  0.79488  1.0000
  C   C5901     1.0  0.58477  0.77347  0.79943  1.0000
  C   C5902     1.0  0.57555  0.78453  0.78584  1.0000
  C   C5903     1.0  0.58430  0.78615  0.76751  1.0000
  C   C5904     1.0  0.60255  0.77717  0.76286  1.0000
  C   C5905     1.0  0.61179  0.76606  0.77652  1.0000
  H   H4741     1.0  0.57774  0.77222  0.81338  1.0000
  H   H4742     1.0  0.56149  0.79142  0.78955  1.0000
  H   H4743     1.0  0.60948  0.77879  0.74875  1.0000
  H   H4744     1.0  0.62578  0.75889  0.77286  1.0000
  C   C5906     1.0  0.49311  0.80785  0.75961  1.0000
  S   S795      1.0  0.49599  0.47346  0.93345  1.0000
  C   C5907     1.0  0.52573  0.78995  0.77149  1.0000
  C   C5908     1.0  0.60773  0.50664  0.83207  1.0000
  Fe  Fe398     1.0  0.56361  0.47796  0.91380  1.0000
  C   C5909     1.0  0.55489  0.70360  0.72791  1.0000
  C   C5910     1.0  0.53067  0.55139  0.86571  1.0000
  H   H4745     1.0  0.69078  0.49629  0.91273  1.0000
  C   C5911     1.0  0.67729  0.70605  0.89289  1.0000
  C   C5912     1.0  0.66861  0.69350  0.90653  1.0000
  C   C5913     1.0  0.64986  0.69392  0.90822  1.0000
  C   C5914     1.0  0.63965  0.70695  0.89639  1.0000
  C   C5915     1.0  0.64829  0.71966  0.88288  1.0000
  C   C5916     1.0  0.66709  0.71913  0.88107  1.0000
  H   H4746     1.0  0.67639  0.68332  0.91564  1.0000
  H   H4747     1.0  0.64325  0.68405  0.91869  1.0000
  H   H4748     1.0  0.64056  0.72969  0.87365  1.0000
  H   H4749     1.0  0.54678  0.59489  0.93118  1.0000
  C   C5917     1.0  0.50523  0.81793  0.76114  1.0000
  C   C5918     1.0  0.69132  0.59704  0.93306  1.0000
  C   C5919     1.0  0.50212  0.95500  0.78693  1.0000
  C   C5920     1.0  0.56821  0.59679  0.90675  1.0000
  C   C5921     1.0  0.73016  0.59029  0.88861  1.0000
  H   H4750     1.0  0.64596  0.50079  0.81835  1.0000
  C   C5922     1.0  0.55484  0.65417  0.88751  1.0000
  S   S796      1.0  0.52645  0.92149  0.96072  1.0000
  C   C5923     1.0  0.52159  0.80897  0.76690  1.0000
  C   C5924     1.0  0.70544  0.61742  0.94985  1.0000
  C   C5925     1.0  0.56581  0.86028  0.85069  1.0000
  C   C5926     1.0  0.59905  0.48809  0.92657  1.0000
  C   C5927     1.0  0.61379  0.48455  0.93548  1.0000
  C   C5928     1.0  0.52112  0.75017  0.75133  1.0000
  H   H4751     1.0  0.50750  0.72239  0.73148  1.0000
  S   S797      1.0  0.72329  0.71490  0.96307  1.0000
  C   C5929     1.0  0.51905  0.96206  0.84814  1.0000
  S   S798      1.0  0.49192  0.60638  0.86940  1.0000
  C   C5930     1.0  0.55711  0.71219  0.74087  1.0000
  C   C5931     1.0  0.55476  0.70143  0.84146  1.0000
  C   C5932     1.0  0.69259  0.61519  0.92507  1.0000
  S   S799      1.0  0.56372  0.79492  0.87251  1.0000
  C   C5933     1.0  0.48702  0.82817  0.89677  1.0000
  H   H4752     1.0  0.62528  0.71340  0.77954  1.0000
  C   C5934     1.0  0.55362  0.82486  0.91941  1.0000
  C   C5935     1.0  0.56257  0.80647  0.92146  1.0000
  C   C5936     1.0  0.56553  0.79690  0.90735  1.0000
  C   C5937     1.0  0.55969  0.80579  0.89106  1.0000
  C   C5938     1.0  0.55054  0.82409  0.88913  1.0000
  C   C5939     1.0  0.54750  0.83358  0.90322  1.0000
  H   H4753     1.0  0.56734  0.79964  0.93395  1.0000
  H   H4754     1.0  0.57258  0.78280  0.90896  1.0000
  H   H4755     1.0  0.54592  0.83106  0.87660  1.0000
  H   H4756     1.0  0.54076  0.84775  0.90139  1.0000
  C   C5940     1.0  0.56863  0.84998  0.83738  1.0000
  C   C5941     1.0  0.62876  0.71899  0.73359  1.0000
  C   C5942     1.0  0.53501  0.87363  0.84571  1.0000
  H   H4757     1.0  0.56732  0.70576  0.84066  1.0000
  H   H4758     1.0  0.52646  0.86400  0.82605  1.0000
  C   C5943     1.0  0.71091  0.61950  0.87919  1.0000
  H   H4759     1.0  0.53712  0.56233  0.83691  1.0000
  C   C5944     1.0  0.64006  0.76067  0.72280  1.0000
  H   H4760     1.0  0.73261  0.57556  0.89100  1.0000
  C   C5945     1.0  0.56036  0.58895  0.92458  1.0000
  C   C5946     1.0  0.50717  0.58542  0.86791  1.0000
  C   C5947     1.0  0.52734  0.48861  0.77533  1.0000
  C   C5948     1.0  0.51993  0.94314  0.85332  1.0000
  C   C5949     1.0  0.51797  0.93450  0.87179  1.0000
  C   C5950     1.0  0.51506  0.94487  0.88505  1.0000
  H   H4761     1.0  0.51845  0.79751  0.93094  1.0000
  Fe  Fe399     1.0  0.52335  0.47932  0.91645  1.0000
  H   H4762     1.0  0.52227  0.93516  0.84301  1.0000
  C   C5951     1.0  0.51847  0.61581  0.89963  1.0000
  S   S800      1.0  0.51599  0.62901  0.81964  1.0000
  C   C5952     1.0  0.59484  0.50500  0.91509  1.0000
  H   H4763     1.0  0.55550  0.64088  0.85744  1.0000
  S   S801      1.0  0.53902  0.72064  0.86915  1.0000
  H   H4764     1.0  0.49084  0.95806  0.83157  1.0000
  H   H4765     1.0  0.54132  0.65611  0.88458  1.0000
  C   C5953     1.0  0.55877  0.59145  0.85256  1.0000
  H   H4766     1.0  0.71676  0.79807  0.78068  1.0000
  H   H4767     1.0  0.70072  0.63928  0.92697  1.0000
  H   H4768     1.0  0.52126  0.79985  0.89786  1.0000
  C   C5954     1.0  0.48474  0.82565  0.88018  1.0000
  H   H4769     1.0  0.54687  0.88007  0.86519  1.0000
  C   C5955     1.0  0.54291  0.74303  0.79855  1.0000
  Fe  Fe400     1.0  0.71528  0.68931  0.91292  1.0000
  C   C5956     1.0  0.69978  0.78188  0.75268  1.0000
  H   H4770     1.0  0.68797  0.62147  0.91243  1.0000
  H   H4771     1.0  0.71973  0.64296  0.88163  1.0000
  C   C5957     1.0  0.48704  0.83335  0.95828  1.0000
  S   S802      1.0  0.73243  0.66104  0.91319  1.0000
  H   H4772     1.0  0.72377  0.55239  0.95221  1.0000
  C   C5958     1.0  0.59599  0.52364  0.83231  1.0000
  H   H4773     1.0  0.72184  0.54506  0.88350  1.0000
  S   S803      1.0  0.69377  0.53534  0.95445  1.0000
  H   H4774     1.0  0.72279  0.49348  0.81676  1.0000
  H   H4775     1.0  0.56386  0.72376  0.73644  1.0000
  C   C5959     1.0  0.49080  0.57992  0.82105  1.0000
  H   H4776     1.0  0.58160  0.84060  0.83480  1.0000
  C   C5960     1.0  0.50045  0.49998  0.80691  1.0000
  C   C5961     1.0  0.56170  0.66950  0.88683  1.0000
  H   H4777     1.0  0.53854  0.77133  0.88817  1.0000
  C   C5962     1.0  0.51287  0.73646  0.74978  1.0000
  S   S804      1.0  0.51466  0.87496  0.95894  1.0000
  Fe  Fe401     1.0  0.51272  0.65833  0.82104  1.0000
  H   H4778     1.0  0.51578  0.79832  0.80926  1.0000
  C   C5963     1.0  0.55802  0.59487  0.86964  1.0000
  C   C5964     1.0  0.68875  0.68762  0.72517  1.0000
  H   H4779     1.0  0.64901  0.47308  0.87538  1.0000
  S   S805      1.0  0.72003  0.49468  0.93086  1.0000
  C   C5965     1.0  0.71239  0.66361  0.84494  1.0000
  C   C5966     1.0  0.52122  0.80366  0.81800  1.0000
  H   H4780     1.0  0.58091  0.95889  0.93427  1.0000
  H   H4781     1.0  0.52205  0.88286  0.84907  1.0000
  H   H4782     1.0  0.60176  0.53147  0.90393  1.0000
  C   C5967     1.0  0.52972  0.76072  0.73537  1.0000
  C   C5968     1.0  0.49316  0.85467  0.86478  1.0000
  H   H4783     1.0  0.53679  0.81967  0.79572  1.0000
  H   H4784     1.0  0.59002  0.53089  0.82058  1.0000
  H   H4785     1.0  0.50006  0.86931  0.88164  1.0000
  H   H4786     1.0  0.58347  0.50785  0.90823  1.0000
  H   H4787     1.0  0.49516  0.54894  0.86538  1.0000
  H   H4788     1.0  0.61539  0.49741  0.87544  1.0000
  S   S806      1.0  0.70258  0.68402  0.94288  1.0000
  C   C5969     1.0  0.61986  0.51490  0.92165  1.0000
  H   H4789     1.0  0.49349  0.51266  0.74731  1.0000
  P   P195      1.0  0.55570  0.61688  0.89395  1.0000
  C   C5970     1.0  0.52128  0.56756  0.80564  1.0000
  C   C5971     1.0  0.50004  0.61954  0.90842  1.0000
  H   H4790     1.0  0.49160  0.74652  0.91158  1.0000
  H   H4791     1.0  0.70063  0.68127  0.86440  1.0000
  H   H4792     1.0  0.69923  0.66141  0.84421  1.0000
  H   H4793     1.0  0.59488  0.55247  0.93306  1.0000
  H   H4794     1.0  0.52191  0.54462  0.89492  1.0000
  H   H4795     1.0  0.53032  0.55896  0.76834  1.0000
  H   H4796     1.0  0.69521  0.57542  0.95631  1.0000
  H   H4797     1.0  0.57650  0.85884  0.85810  1.0000
  C   C5972     1.0  0.51654  0.79810  0.83694  1.0000
  C   C5973     1.0  0.55918  0.85000  0.75694  1.0000
  C   C5974     1.0  0.55331  0.86892  0.75350  1.0000
  C   C5975     1.0  0.54837  0.87824  0.76788  1.0000
  C   C5976     1.0  0.54926  0.86868  0.78572  1.0000
  C   C5977     1.0  0.55502  0.84964  0.78933  1.0000
  C   C5978     1.0  0.56013  0.84043  0.77472  1.0000
  P   P196      1.0  0.55744  0.83693  0.81206  1.0000
  C   C5979     1.0  0.54065  0.82248  0.82159  1.0000
  C   C5980     1.0  0.58023  0.82286  0.80998  1.0000
  C   C5981     1.0  0.58376  0.80623  0.82222  1.0000
  C   C5982     1.0  0.60128  0.79518  0.82023  1.0000
  C   C5983     1.0  0.61534  0.80048  0.80592  1.0000
  C   C5984     1.0  0.61209  0.81724  0.79395  1.0000
  C   C5985     1.0  0.59466  0.82850  0.79610  1.0000
  C   C5986     1.0  0.55732  0.61262  0.87162  1.0000
  H   H4798     1.0  0.55835  0.75242  0.75241  1.0000
  H   H4799     1.0  0.55289  0.87638  0.73964  1.0000
  H   H4800     1.0  0.55206  0.94708  0.94414  1.0000
  C   C5987     1.0  0.53556  0.81706  0.84061  1.0000
  C   C5988     1.0  0.53806  0.68449  0.83083  1.0000
  H   H4801     1.0  0.54412  0.89295  0.76513  1.0000
  H   H4802     1.0  0.54586  0.87632  0.79645  1.0000
  H   H4803     1.0  0.56527  0.82583  0.77696  1.0000
  H   H4804     1.0  0.57300  0.80159  0.83316  1.0000
  H   H4805     1.0  0.60374  0.78215  0.82942  1.0000
  H   H4806     1.0  0.62864  0.79145  0.80398  1.0000
  H   H4807     1.0  0.62298  0.82140  0.78287  1.0000
  H   H4808     1.0  0.59244  0.84148  0.78673  1.0000
  H   H4809     1.0  0.55835  0.60316  0.82424  1.0000
  H   H4810     1.0  0.50011  0.53354  0.83225  1.0000
  H   H4811     1.0  0.54120  0.82178  0.84966  1.0000
  S   S807      1.0  0.70101  0.70512  0.88969  1.0000
  H   H4812     1.0  0.52220  0.49010  0.84272  1.0000
  C   C5989     1.0  0.58274  0.63465  0.89584  1.0000
  C   C5990     1.0  0.50374  0.74359  0.79088  1.0000
  H   H4813     1.0  0.56332  0.84272  0.74579  1.0000
  C   C5991     1.0  0.52293  0.70076  0.85538  1.0000
  C   C5992     1.0  0.51367  0.73312  0.73259  1.0000
  C   C5993     1.0  0.65659  0.48963  0.82279  1.0000
  H   H4814     1.0  0.56040  0.73461  0.81822  1.0000
  C   C5994     1.0  0.59533  0.57258  0.90808  1.0000
  C   C5995     1.0  0.67494  0.48988  0.81418  1.0000
  C   C5996     1.0  0.60706  0.70556  0.76714  1.0000
  C   C5997     1.0  0.57905  0.66748  0.89055  1.0000
  H   H4815     1.0  0.64095  0.78716  0.72958  1.0000
  S   S808      1.0  0.68200  0.53628  0.91609  1.0000
  C   C5998     1.0  0.48809  0.77427  0.91449  1.0000
  H   H4816     1.0  0.71496  0.76198  0.73663  1.0000
  H   H4817     1.0  0.51761  0.95614  0.80609  1.0000
  C   C5999     1.0  0.55039  0.70601  0.75942  1.0000
  C   C6000     1.0  0.54072  0.69183  0.76489  1.0000
  C   C6001     1.0  0.53834  0.68334  0.75195  1.0000
  C   C6002     1.0  0.54625  0.68854  0.73343  1.0000
  C   C6003     1.0  0.52263  0.74343  0.71685  1.0000
  C   C6004     1.0  0.49638  0.78944  0.91083  1.0000
  C   C6005     1.0  0.54065  0.65424  0.72593  1.0000
  C   C6006     1.0  0.55461  0.85142  0.82808  1.0000
  C   C6007     1.0  0.51877  0.55322  0.76850  1.0000
  C   C6008     1.0  0.64255  0.78021  0.71859  1.0000
  C   C6009     1.0  0.53537  0.61846  0.74078  1.0000
  C   C6010     1.0  0.54621  0.62586  0.74790  1.0000
  C   C6011     1.0  0.54911  0.64359  0.74031  1.0000
  Fe  Fe402     1.0  0.49390  0.63891  0.80311  1.0000
  C   C6012     1.0  0.51863  0.54992  0.81410  1.0000
  C   C6013     1.0  0.51399  0.96377  0.87988  1.0000
  H   H4818     1.0  0.53869  0.78342  0.77556  1.0000
  C   C6014     1.0  0.61488  0.49685  0.84756  1.0000
  H   H4819     1.0  0.55233  0.71240  0.76956  1.0000
  H   H4820     1.0  0.53497  0.68742  0.77921  1.0000
  H   H4821     1.0  0.53036  0.67271  0.75650  1.0000
  C   C6015     1.0  0.51966  0.53440  0.77400  1.0000
  P   P197      1.0  0.54341  0.67749  0.71664  1.0000
  C   C6016     1.0  0.58744  0.56487  0.92580  1.0000
  C   C6017     1.0  0.62209  0.71280  0.76683  1.0000
  H   H4822     1.0  0.53266  0.60495  0.74701  1.0000
  H   H4823     1.0  0.55203  0.61801  0.75956  1.0000
  H   H4824     1.0  0.55764  0.64905  0.74593  1.0000
  H   H4825     1.0  0.59479  0.52723  0.87551  1.0000
  H   H4826     1.0  0.65070  0.61558  0.95024  1.0000
  Fe  Fe403     1.0  0.67913  0.55592  0.93408  1.0000
  C   C6018     1.0  0.67652  0.78108  0.81509  1.0000
  C   C6019     1.0  0.65932  0.78504  0.82640  1.0000
  C   C6020     1.0  0.64820  0.77204  0.83264  1.0000
  C   C6021     1.0  0.65421  0.75507  0.82760  1.0000
  C   C6022     1.0  0.67161  0.75087  0.81647  1.0000
  C   C6023     1.0  0.68266  0.76406  0.81013  1.0000
  P   P198      1.0  0.68008  0.72871  0.81053  1.0000
  C   C6024     1.0  0.70352  0.72109  0.81392  1.0000
  C   C6025     1.0  0.66617  0.71306  0.82551  1.0000
  C   C6026     1.0  0.67049  0.70331  0.84233  1.0000
  C   C6027     1.0  0.65900  0.69211  0.85436  1.0000
  C   C6028     1.0  0.64294  0.69082  0.84983  1.0000
  C   C6029     1.0  0.63857  0.70042  0.83307  1.0000
  C   C6030     1.0  0.65012  0.71149  0.82095  1.0000
  C   C6031     1.0  0.71705  0.71142  0.80193  1.0000
  H   H4827     1.0  0.53668  0.63495  0.92440  1.0000
  C   C6032     1.0  0.57609  0.73755  0.79070  1.0000
  H   H4828     1.0  0.50589  0.72825  0.76171  1.0000
  C   C6033     1.0  0.70845  0.72506  0.82861  1.0000
  C   C6034     1.0  0.67898  0.72967  0.78717  1.0000
  C   C6035     1.0  0.67586  0.74639  0.77488  1.0000
  C   C6036     1.0  0.67570  0.74674  0.75671  1.0000
  C   C6037     1.0  0.67871  0.73050  0.75069  1.0000
  C   C6038     1.0  0.68112  0.71385  0.76299  1.0000
  C   C6039     1.0  0.68120  0.71342  0.78117  1.0000
  H   H4829     1.0  0.68518  0.79112  0.81040  1.0000
  H   H4830     1.0  0.65458  0.79813  0.83045  1.0000
  H   H4831     1.0  0.63488  0.77511  0.84146  1.0000
  H   H4832     1.0  0.64526  0.74529  0.83260  1.0000
  H   H4833     1.0  0.69611  0.76110  0.80152  1.0000
  H   H4834     1.0  0.68226  0.70487  0.84658  1.0000
  H   H4835     1.0  0.66203  0.68515  0.86763  1.0000
  H   H4836     1.0  0.63359  0.68287  0.85958  1.0000
  H   H4837     1.0  0.62586  0.69985  0.82976  1.0000
  H   H4838     1.0  0.64609  0.71940  0.80838  1.0000
  H   H4839     1.0  0.71375  0.70796  0.79064  1.0000
  S   S809      1.0  0.71476  0.62975  0.96032  1.0000
  C   C6040     1.0  0.55668  0.48338  0.75431  1.0000
  C   C6041     1.0  0.73249  0.49562  0.82360  1.0000
  H   H4840     1.0  0.69826  0.73220  0.83830  1.0000
  H   H4841     1.0  0.67340  0.75915  0.77924  1.0000
  H   H4842     1.0  0.67315  0.75958  0.74717  1.0000
  H   H4843     1.0  0.67884  0.73093  0.73653  1.0000
  H   H4844     1.0  0.68298  0.70128  0.75844  1.0000
  H   H4845     1.0  0.68311  0.70041  0.79056  1.0000
  C   C6042     1.0  0.55422  0.69045  0.82968  1.0000
  H   H4846     1.0  0.59863  0.70044  0.78007  1.0000
  H   H4847     1.0  0.51391  0.95465  0.77569  1.0000
  C   C6043     1.0  0.52065  0.55496  0.88269  1.0000
  Fe  Fe404     1.0  0.65494  0.53019  0.93293  1.0000
  S   S810      1.0  0.65113  0.55156  0.94917  1.0000
  C   C6044     1.0  0.56997  0.57304  0.93404  1.0000
  C   C6045     1.0  0.71861  0.48291  0.91467  1.0000
  H   H4848     1.0  0.55773  0.58366  0.88133  1.0000
  C   C6046     1.0  0.69651  0.58928  0.94987  1.0000
  H   H4849     1.0  0.51643  0.47928  0.95781  1.0000
  C   C6047     1.0  0.73346  0.72414  0.75060  1.0000
  C   C6048     1.0  0.51565  0.81207  0.95183  1.0000
  P   P199      1.0  0.62851  0.47407  0.84777  1.0000
  H   H4850     1.0  0.71968  0.70164  0.75643  1.0000
  C   C6049     1.0  0.50282  0.56473  0.76363  1.0000
  C   C6050     1.0  0.70015  0.79198  0.76518  1.0000
  H   H4851     1.0  0.52172  0.71700  0.79167  1.0000
  C   C6051     1.0  0.50932  0.80730  0.93858  1.0000
  H   H4852     1.0  0.50197  0.52463  0.89176  1.0000
  C   C6052     1.0  0.72659  0.71959  0.83112  1.0000
  P   P200      1.0  0.50539  0.50277  0.78239  1.0000
  H   H4853     1.0  0.65985  0.69276  0.73616  1.0000
  H   H4854     1.0  0.69143  0.67512  0.73510  1.0000
  C   C6053     1.0  0.57538  0.74288  0.77219  1.0000
  C   C6054     1.0  0.55666  0.62696  0.85632  1.0000
  C   C6055     1.0  0.58575  0.58843  0.89855  1.0000
  C   C6056     1.0  0.69974  0.62532  0.93334  1.0000
  H   H4855     1.0  0.56663  0.48837  0.74262  1.0000
  H   H4856     1.0  0.63340  0.59172  0.95275  1.0000
  H   H4857     1.0  0.51632  0.59219  0.83887  1.0000
  C   C6057     1.0  0.52656  0.63059  0.91982  1.0000
  H   H4858     1.0  0.50408  0.64159  0.93966  1.0000
  C   C6058     1.0  0.50419  0.95590  0.80408  1.0000
  H   H4859     1.0  0.52205  0.60871  0.88842  1.0000
  H   H4860     1.0  0.68804  0.80172  0.76975  1.0000
  C   C6059     1.0  0.53057  0.75725  0.71826  1.0000
  C   C6060     1.0  0.49269  0.84394  0.89711  1.0000
  H   H4861     1.0  0.51074  0.70476  0.86528  1.0000
  C   C6061     1.0  0.61331  0.71213  0.73404  1.0000
  H   H4862     1.0  0.60888  0.56613  0.90175  1.0000
  C   C6062     1.0  0.55722  0.62348  0.83928  1.0000
  C   C6063     1.0  0.55846  0.74803  0.76680  1.0000
  C   C6064     1.0  0.53186  0.62139  0.90523  1.0000
  C   C6065     1.0  0.56528  0.63658  0.89208  1.0000
  C   C6066     1.0  0.51623  0.75709  0.89943  1.0000
  C   C6067     1.0  0.63301  0.71927  0.75016  1.0000
  H   H4863     1.0  0.53726  0.50877  0.75230  1.0000
  H   H4864     1.0  0.59109  0.62137  0.89961  1.0000
  H   H4865     1.0  0.53425  0.56969  0.79674  1.0000
  C   C6068     1.0  0.50842  0.72463  0.79699  1.0000
  H   H4866     1.0  0.50992  0.68519  0.84480  1.0000
  H   H4867     1.0  0.63682  0.75401  0.73689  1.0000
  C   C6069     1.0  0.49020  0.52540  0.88606  1.0000
  C   C6070     1.0  0.49742  0.78880  0.76376  1.0000
  H   H4868     1.0  0.71550  0.49032  0.85044  1.0000
  H   H4869     1.0  0.49972  0.70068  0.81477  1.0000
  C   C6071     1.0  0.53952  0.96551  0.92271  1.0000
  H   H4870     1.0  0.48976  0.61536  0.90390  1.0000
  H   H4871     1.0  0.70316  0.47576  0.81314  1.0000
  H   H4872     1.0  0.49540  0.86495  0.85248  1.0000
  C   C6072     1.0  0.52920  0.56497  0.85000  1.0000
  C   C6073     1.0  0.51362  0.77968  0.77002  1.0000
  H   H4873     1.0  0.67374  0.72889  0.87051  1.0000
  C   C6074     1.0  0.71309  0.67494  0.85617  1.0000
  S   S811      1.0  0.68411  0.58436  0.92110  1.0000
  H   H4874     1.0  0.53185  0.52574  0.77839  1.0000
  Fe  Fe405     1.0  0.69410  0.51514  0.93789  1.0000
  C   C6075     1.0  0.50198  0.54727  0.82584  1.0000
  C   C6076     1.0  0.60520  0.51834  0.91268  1.0000
  H   H4875     1.0  0.59104  0.69960  0.75106  1.0000
  C   C6077     1.0  0.60269  0.70523  0.75076  1.0000
  H   H4876     1.0  0.59200  0.59412  0.88474  1.0000
  H   H4877     1.0  0.61712  0.47146  0.94431  1.0000
  H   H4878     1.0  0.50195  0.57936  0.75978  1.0000
  H   H4879     1.0  0.55086  0.96061  0.74473  1.0000
  C   C6078     1.0  0.53320  0.81582  0.81035  1.0000
  H   H4880     1.0  0.60298  0.64854  0.89805  1.0000
  C   C6079     1.0  0.54011  0.49498  0.75999  1.0000
  H   H4881     1.0  0.50213  0.83268  0.75752  1.0000
  C   C6080     1.0  0.55827  0.60575  0.83739  1.0000
  C   C6081     1.0  0.58958  0.65007  0.89502  1.0000
  H   H4882     1.0  0.64492  0.72425  0.75022  1.0000
  H   H4883     1.0  0.69843  0.62733  0.87476  1.0000
  Fe  Fe406     1.0  0.58685  0.79234  0.72336  1.0000
  C   C6082     1.0  0.51748  0.58191  0.85108  1.0000
  H   H4884     1.0  0.58795  0.74352  0.76202  1.0000
  C   C6083     1.0  0.59139  0.53107  0.84795  1.0000
  C   C6084     1.0  0.59867  0.52159  0.86329  1.0000
  C   C6085     1.0  0.61038  0.50457  0.86314  1.0000
  C   C6086     1.0  0.48773  0.83890  0.86426  1.0000
  C   C6087     1.0  0.62419  0.49793  0.93304  1.0000
  H   H4885     1.0  0.63555  0.49514  0.93990  1.0000
  S   S812      1.0  0.58600  0.47126  0.93006  1.0000
  H   H4886     1.0  0.55933  0.57772  0.85121  1.0000
  S   S813      1.0  0.49906  0.91178  0.93079  1.0000
  H   H4887     1.0  0.55983  0.95762  0.84713  1.0000
  H   H4888     1.0  0.55653  0.63462  0.82758  1.0000
  C   C6088     1.0  0.70368  0.59943  0.95818  1.0000
  S   S814      1.0  0.66722  0.50750  0.95370  1.0000
  C   C6089     1.0  0.52246  0.68961  0.84379  1.0000
  H   H4889     1.0  0.56637  0.68649  0.81974  1.0000
  C   C6090     1.0  0.53903  0.70678  0.85420  1.0000
  H   H4890     1.0  0.49008  0.49493  0.85965  1.0000
  H   H4891     1.0  0.55347  0.68300  0.88356  1.0000
  H   H4892     1.0  0.58177  0.54393  0.84840  1.0000
  H   H4893     1.0  0.72385  0.78854  0.95030  1.0000
  H   H4894     1.0  0.50934  0.59624  0.80251  1.0000
  H   H4895     1.0  0.53583  0.77165  0.73608  1.0000
  H   H4896     1.0  0.70484  0.59363  0.87978  1.0000
  H   H4897     1.0  0.48997  0.62318  0.74449  1.0000
  H   H4898     1.0  0.52698  0.96015  0.92705  1.0000
  C   C6091     1.0  0.51462  0.78827  0.90117  1.0000
  C   C6092     1.0  0.49803  0.75817  0.90883  1.0000
  S   S815      1.0  0.49723  0.63040  0.77634  1.0000
  C   C6093     1.0  0.50811  0.63432  0.92854  1.0000
  C   C6094     1.0  0.50882  0.57195  0.88375  1.0000
  H   H4899     1.0  0.61085  0.50094  0.81995  1.0000
  C   C6095     1.0  0.50730  0.58253  0.80897  1.0000
  H   H4900     1.0  0.52033  0.80040  0.86286  1.0000
  S   S816      1.0  0.60232  0.76432  0.72081  1.0000
  C   C6096     1.0  0.48803  0.56226  0.82961  1.0000
  C   C6097     1.0  0.55986  0.73792  0.80386  1.0000
  C   C6098     1.0  0.71630  0.78989  0.77137  1.0000
  C   C6099     1.0  0.51105  0.49385  0.83537  1.0000
  H   H4901     1.0  0.50759  0.78837  0.84290  1.0000
  C   C6100     1.0  0.52449  0.77213  0.89560  1.0000
  C   C6101     1.0  0.72868  0.65488  0.83502  1.0000
  H   H4902     1.0  0.52089  0.96862  0.83388  1.0000
  C   C6102     1.0  0.51485  0.49555  0.81643  1.0000
  Fe  Fe407     1.0  0.49251  0.62838  0.84382  1.0000
  H   H4903     1.0  0.49482  0.84606  0.90962  1.0000
  C   C6103     1.0  0.52366  0.80487  0.84821  1.0000
  C   C6104     1.0  0.50460  0.82519  0.96156  1.0000
  C   C6105     1.0  0.49169  0.81550  0.93514  1.0000
  H   H4904     1.0  0.58919  0.73373  0.79492  1.0000
  C   C6106     1.0  0.53038  0.64643  0.71841  1.0000
  C   C6107     1.0  0.71456  0.60050  0.88197  1.0000
  Fe  Fe408     1.0  0.49223  0.88419  0.94279  1.0000
  H   H4905     1.0  0.52905  0.49332  0.80934  1.0000
  C   C6108     1.0  0.70163  0.47704  0.89491  1.0000
  H   H4906     1.0  0.72511  0.72967  0.76226  1.0000
  C   C6109     1.0  0.70256  0.48644  0.90788  1.0000
  P   P201      1.0  0.51997  0.75513  0.77331  1.0000
  C   C6110     1.0  0.71541  0.76938  0.74666  1.0000
  S   S817      1.0  0.49089  0.65701  0.84651  1.0000
  C   C6111     1.0  0.48637  0.53909  0.87105  1.0000
  C   C6112     1.0  0.65215  0.47504  0.83695  1.0000
  C   C6113     1.0  0.56354  0.97049  0.84623  1.0000
  C   C6114     1.0  0.52772  0.62864  0.72585  1.0000
  H   H4907     1.0  0.56383  0.56690  0.94772  1.0000
  C   C6115     1.0  0.73207  0.77767  0.76510  1.0000
  H   H4908     1.0  0.48826  0.78116  0.76179  1.0000
  C   C6116     1.0  0.56998  0.96473  0.92671  1.0000
  C   C6117     1.0  0.68894  0.47564  0.81974  1.0000
  C   C6118     1.0  0.50475  0.52690  0.77412  1.0000
  H   H4909     1.0  0.68748  0.78405  0.74732  1.0000
  C   C6119     1.0  0.50564  0.68806  0.71799  1.0000
  C   C6120     1.0  0.48481  0.95502  0.78419  1.0000
  H   H4910     1.0  0.51938  0.62291  0.72023  1.0000
  Fe  Fe409     1.0  0.72668  0.69340  0.94661  1.0000
  H   H4911     1.0  0.68911  0.47974  0.88983  1.0000
  H   H4912     1.0  0.59083  0.47280  0.84708  1.0000
  C   C6121     1.0  0.72838  0.49392  0.84253  1.0000
  C   C6122     1.0  0.48871  0.53860  0.76938  1.0000
  C   C6123     1.0  0.49288  0.49663  0.84493  1.0000
  H   H4913     1.0  0.72796  0.64598  0.82654  1.0000
  H   H4914     1.0  0.52947  0.80610  0.95407  1.0000
  H   H4915     1.0  0.73019  0.72242  0.84270  1.0000
  H   H4916     1.0  0.72934  0.57795  0.92660  1.0000
  C   C6124     1.0  0.48894  0.95716  0.81844  1.0000
  C   C6125     1.0  0.64832  0.60579  0.96295  1.0000
  C   C6126     1.0  0.48942  0.49492  0.77404  1.0000
  C   C6127     1.0  0.48667  0.50198  0.75608  1.0000
  C   C6128     1.0  0.48782  0.55741  0.76402  1.0000
  H   H4917     1.0  0.48587  0.83690  0.85152  1.0000
  C   C6129     1.0  0.72999  0.67797  0.85705  1.0000
  H   H4918     1.0  0.73055  0.68688  0.86562  1.0000
  C   C6130     1.0  0.73162  0.76700  0.75302  1.0000
  C   C6131     1.0  0.73034  0.70830  0.74734  1.0000
  H   H4919     1.0  0.73262  0.53666  0.91266  1.0000
  H   H4920     1.0  0.55891  0.89253  0.96408  1.0000
  H   H4921     1.0  0.95102  0.99395  0.12833  1.0000
  H   H4922     1.0  0.74321  0.19740  0.16408  1.0000
  Fe  Fe410     1.0  0.96220  0.43972  0.14337  1.0000
  S   S818      1.0  0.93879  0.42718  0.16174  1.0000
  C   C6132     1.0  0.93200  0.97747  0.11250  1.0000
  Fe  Fe411     1.0  0.92073  0.45169  0.14810  1.0000
  S   S819      1.0  0.89401  0.45267  0.13992  1.0000
  Fe  Fe412     1.0  0.93917  0.44487  0.18067  1.0000
  H   H4923     1.0  0.82118  0.34914  0.19941  1.0000
  H   H4924     1.0  0.89180  0.11779  0.20249  1.0000
  S   S820      1.0  0.96426  0.45515  0.16349  1.0000
  S   S821      1.0  0.81005  0.03086  0.12519  1.0000
  C   C6133     1.0  0.81653  0.17405  0.98012  1.0000
  C   C6134     1.0  0.77137  0.45046  0.05868  1.0000
  S   S822      1.0  0.85585  0.99323  0.12235  1.0000
  C   C6135     1.0  0.90370  0.38778  0.97816  1.0000
  C   C6136     1.0  0.82164  0.28892  0.96818  1.0000
  C   C6137     1.0  0.78231  0.01620  0.04432  1.0000
  H   H4925     1.0  0.77107  0.00050  0.15138  1.0000
  Fe  Fe413     1.0  0.73765  0.14022  0.04426  1.0000
  C   C6138     1.0  0.75294  0.22703  0.09044  1.0000
  H   H4926     1.0  0.82430  0.47033  0.10871  1.0000
  C   C6139     1.0  0.82217  0.25139  0.97886  1.0000
  H   H4927     1.0  0.82301  0.24706  0.01446  1.0000
  H   H4928     1.0  0.93824  0.98606  0.10035  1.0000
  H   H4929     1.0  0.81809  0.36670  0.06894  1.0000
  C   C6140     1.0  0.76265  0.38183  0.08139  1.0000
  C   C6141     1.0  0.80402  0.15129  0.96528  1.0000
  H   H4930     1.0  0.79478  0.19668  0.14814  1.0000
  C   C6142     1.0  0.87692  0.41145  0.97282  1.0000
  Fe  Fe414     1.0  0.76974  0.11059  0.05442  1.0000
  S   S823      1.0  0.78434  0.13004  0.05959  1.0000
  S   S824      1.0  0.78151  0.08062  0.05520  1.0000
  C   C6143     1.0  0.78177  0.01239  0.06317  1.0000
  C   C6144     1.0  0.79664  0.26310  0.21257  1.0000
  Fe  Fe415     1.0  0.77649  0.14805  0.03376  1.0000
  S   S825      1.0  0.79634  0.16512  0.01462  1.0000
  Fe  Fe416     1.0  0.75644  0.14270  0.07369  1.0000
  H   H4931     1.0  0.78003  0.42910  0.15127  1.0000
  S   S826      1.0  0.76394  0.12767  0.02746  1.0000
  H   H4932     1.0  0.77847  0.97295  0.07948  1.0000
  Fe  Fe417     1.0  0.77965  0.23748  0.16132  1.0000
  S   S827      1.0  0.80498  0.23344  0.13944  1.0000
  S   S828      1.0  0.77657  0.22764  0.19195  1.0000
  C   C6145     1.0  0.77306  0.32386  0.06652  1.0000
  Fe  Fe418     1.0  0.78677  0.22627  0.12471  1.0000
  S   S829      1.0  0.79811  0.20395  0.10838  1.0000
  Fe  Fe419     1.0  0.79474  0.26248  0.12637  1.0000
  S   S830      1.0  0.81496  0.28079  0.11158  1.0000
  S   S831      1.0  0.76214  0.22806  0.14758  1.0000
  S   S832      1.0  0.77086  0.26724  0.14950  1.0000
  Fe  Fe420     1.0  0.81731  0.38141  0.10319  1.0000
  S   S833      1.0  0.80961  0.40425  0.08030  1.0000
  S   S834      1.0  0.79635  0.36374  0.11771  1.0000
  Fe  Fe421     1.0  0.85302  0.39304  0.10109  1.0000
  S   S835      1.0  0.84840  0.41618  0.07762  1.0000
  S   S836      1.0  0.87848  0.38768  0.11284  1.0000
  Fe  Fe422     1.0  0.81952  0.42152  0.09344  1.0000
  S   S837      1.0  0.80653  0.45056  0.09520  1.0000
  Fe  Fe423     1.0  0.83908  0.39669  0.06646  1.0000
  S   S838      1.0  0.84515  0.39878  0.03593  1.0000
  S   S839      1.0  0.82462  0.39956  0.11776  1.0000
  S   S840      1.0  0.84637  0.37265  0.08855  1.0000
  H   H4933     1.0  0.97013  0.44262  0.19995  1.0000
  C   C6146     1.0  0.81745  0.11791  0.18368  1.0000
  C   C6147     1.0  0.81658  0.10090  0.18109  1.0000
  S   S841      1.0  0.86823  0.33133  0.99666  1.0000
  H   H4934     1.0  0.88842  0.35274  0.05510  1.0000
  H   H4935     1.0  0.78152  0.97799  0.17802  1.0000
  H   H4936     1.0  0.87411  0.17406  0.98548  1.0000
  C   C6148     1.0  0.85604  0.07466  0.15582  1.0000
  C   C6149     1.0  0.85079  0.37966  0.02564  1.0000
  C   C6150     1.0  0.85187  0.38257  0.00680  1.0000
  C   C6151     1.0  0.85709  0.36787  0.99780  1.0000
  C   C6152     1.0  0.86104  0.35007  0.00765  1.0000
  C   C6153     1.0  0.85951  0.34707  0.02661  1.0000
  C   C6154     1.0  0.85448  0.36184  0.03560  1.0000
  H   H4937     1.0  0.84871  0.39630  0.99910  1.0000
  H   H4938     1.0  0.85816  0.37040  0.98324  1.0000
  H   H4939     1.0  0.86231  0.33330  0.03427  1.0000
  H   H4940     1.0  0.85360  0.35951  0.05014  1.0000
  Fe  Fe424     1.0  0.82541  0.00199  0.12380  1.0000
  C   C6155     1.0  0.75367  0.44570  0.11745  1.0000
  S   S842      1.0  0.74928  0.15225  0.10053  1.0000
  C   C6156     1.0  0.74754  0.21844  0.07937  1.0000
  H   H4941     1.0  0.77940  0.42745  0.10982  1.0000
  H   H4942     1.0  0.83468  0.05564  0.12587  1.0000
  C   C6157     1.0  0.80880  0.30412  0.11241  1.0000
  C   C6158     1.0  0.79226  0.31138  0.12304  1.0000
  C   C6159     1.0  0.78833  0.32984  0.12425  1.0000
  C   C6160     1.0  0.80085  0.34112  0.11473  1.0000
  C   C6161     1.0  0.81711  0.33398  0.10370  1.0000
  C   C6162     1.0  0.82117  0.31549  0.10271  1.0000
  C   C6163     1.0  0.74998  0.44222  0.00379  1.0000
  H   H4943     1.0  0.79920  0.02087  0.01736  1.0000
  H   H4944     1.0  0.82664  0.34268  0.09619  1.0000
  H   H4945     1.0  0.83399  0.30993  0.09453  1.0000
  C   C6164     1.0  0.80394  0.16351  0.99137  1.0000
  C   C6165     1.0  0.79773  0.15206  0.98389  1.0000
  S   S843      1.0  0.82449  0.98378  0.10563  1.0000
  C   C6166     1.0  0.98203  0.35512  0.20442  1.0000
  H   H4946     1.0  0.78809  0.14382  0.99240  1.0000
  H   H4947     1.0  0.83914  0.15393  0.16344  1.0000
  C   C6167     1.0  0.76262  0.16692  0.10251  1.0000
  C   C6168     1.0  0.75673  0.17667  0.11670  1.0000
  C   C6169     1.0  0.76736  0.18825  0.11858  1.0000
  C   C6170     1.0  0.78404  0.18995  0.10638  1.0000
  C   C6171     1.0  0.78999  0.17999  0.09239  1.0000
  C   C6172     1.0  0.77924  0.16869  0.09032  1.0000
  H   H4948     1.0  0.82728  0.00871  0.06184  1.0000
  H   H4949     1.0  0.76268  0.19582  0.12944  1.0000
  H   H4950     1.0  0.80302  0.18092  0.08313  1.0000
  H   H4951     1.0  0.78396  0.16114  0.07943  1.0000
  H   H4952     1.0  0.79395  0.25868  0.97539  1.0000
  C   C6173     1.0  0.82919  0.20902  0.19920  1.0000
  C   C6174     1.0  0.81384  0.21602  0.19095  1.0000
  C   C6175     1.0  0.79619  0.21856  0.20175  1.0000
  C   C6176     1.0  0.85272  0.16048  0.19818  1.0000
  H   H4953     1.0  0.82358  0.28615  0.14329  1.0000
  H   H4954     1.0  0.84281  0.20697  0.19077  1.0000
  H   H4955     1.0  0.81567  0.21940  0.17625  1.0000
  C   C6177     1.0  0.74790  0.41822  0.06724  1.0000
  C   C6178     1.0  0.95126  0.38577  0.99643  1.0000
  P   P202      1.0  0.73829  0.44172  0.05864  1.0000
  H   H4956     1.0  0.77344  0.33777  0.06640  1.0000
  H   H4957     1.0  0.86182  0.07977  0.16449  1.0000
  C   C6179     1.0  0.83745  0.32521  0.18960  1.0000
  C   C6180     1.0  0.76612  0.02178  0.10820  1.0000
  H   H4958     1.0  0.84500  0.19157  0.99963  1.0000
  H   H4959     1.0  0.83946  0.25551  0.13754  1.0000
  C   C6181     1.0  0.97224  0.00163  0.13640  1.0000
  C   C6182     1.0  0.78288  0.45520  0.10433  1.0000
  C   C6183     1.0  0.77644  0.01887  0.18661  1.0000
  H   H4960     1.0  0.77209  0.02825  0.17476  1.0000
  C   C6184     1.0  0.80518  0.22172  0.97771  1.0000
  H   H4961     1.0  0.81268  0.12998  0.17414  1.0000
  C   C6185     1.0  0.80246  0.04474  0.10556  1.0000
  C   C6186     1.0  0.80907  0.03987  0.08854  1.0000
  C   C6187     1.0  0.80249  0.05102  0.07319  1.0000
  C   C6188     1.0  0.78942  0.06712  0.07475  1.0000
  C   C6189     1.0  0.78283  0.07204  0.09176  1.0000
  C   C6190     1.0  0.78930  0.06080  0.10712  1.0000
  H   H4962     1.0  0.81936  0.02761  0.08721  1.0000
  H   H4963     1.0  0.80776  0.04738  0.05996  1.0000
  H   H4964     1.0  0.77270  0.08442  0.09309  1.0000
  H   H4965     1.0  0.78387  0.06443  0.12028  1.0000
  C   C6191     1.0  0.85838  0.98407  0.18120  1.0000
  C   C6192     1.0  0.84622  0.00011  0.17557  1.0000
  C   C6193     1.0  0.84313  0.01506  0.18386  1.0000
  C   C6194     1.0  0.85255  0.01429  0.19746  1.0000
  S   S844      1.0  0.81829  0.98175  0.14955  1.0000
  C   C6195     1.0  0.86763  0.98318  0.19499  1.0000
  H   H4966     1.0  0.83915  0.00098  0.16485  1.0000
  H   H4967     1.0  0.83354  0.02735  0.17959  1.0000
  H   H4968     1.0  0.75002  0.32300  0.08927  1.0000
  C   C6196     1.0  0.79892  0.01751  0.03189  1.0000
  C   C6197     1.0  0.89020  0.43444  0.13224  1.0000
  C   C6198     1.0  0.90286  0.41791  0.13225  1.0000
  C   C6199     1.0  0.89914  0.40366  0.12629  1.0000
  C   C6200     1.0  0.88282  0.40587  0.12015  1.0000
  C   C6201     1.0  0.87021  0.42242  0.12008  1.0000
  C   C6202     1.0  0.87388  0.43658  0.12616  1.0000
  H   H4969     1.0  0.91549  0.41610  0.13688  1.0000
  H   H4970     1.0  0.90898  0.39093  0.12638  1.0000
  H   H4971     1.0  0.85761  0.42434  0.11535  1.0000
  H   H4972     1.0  0.86408  0.44929  0.12604  1.0000
  C   C6203     1.0  0.74652  0.40414  0.05952  1.0000
  H   H4973     1.0  0.80332  0.39422  0.04941  1.0000
  H   H4974     1.0  0.73605  0.46019  0.98298  1.0000
  C   C6204     1.0  0.73713  0.44680  0.03481  1.0000
  H   H4975     1.0  0.79810  0.00647  0.08383  1.0000
  S   S845      1.0  0.74241  0.12159  0.07077  1.0000
  C   C6205     1.0  0.73640  0.45647  0.99742  1.0000
  C   C6206     1.0  0.81188  0.34795  0.05604  1.0000
  S   S846      1.0  0.84892  0.03376  0.20672  1.0000
  H   H4976     1.0  0.90442  0.99132  0.10971  1.0000
  C   C6207     1.0  0.77194  0.28761  0.06820  1.0000
  C   C6208     1.0  0.76862  0.01938  0.12601  1.0000
  C   C6209     1.0  0.74489  0.46383  0.11805  1.0000
  P   P203      1.0  0.83085  0.27233  0.20724  1.0000
  H   H4977     1.0  0.81207  0.19527  0.01344  1.0000
  H   H4978     1.0  0.77167  0.27348  0.06909  1.0000
  C   C6210     1.0  0.76541  0.98803  0.13199  1.0000
  Fe  Fe425     1.0  0.75529  0.25750  0.13406  1.0000
  H   H4979     1.0  0.76638  0.23061  0.08661  1.0000
  C   C6211     1.0  0.83974  0.30639  0.19151  1.0000
  H   H4980     1.0  0.81616  0.23958  0.04803  1.0000
  H   H4981     1.0  0.81889  0.33615  0.06431  1.0000
  H   H4982     1.0  0.73915  0.27177  0.18138  1.0000
  C   C6212     1.0  0.77787  0.45744  0.15097  1.0000
  H   H4983     1.0  0.84868  0.15015  0.08616  1.0000
  H   H4984     1.0  0.75044  0.97814  0.19763  1.0000
  C   C6213     1.0  0.82278  0.08500  0.19306  1.0000
  C   C6214     1.0  0.86475  0.99829  0.20312  1.0000
  Fe  Fe426     1.0  0.84854  0.97171  0.14688  1.0000
  H   H4985     1.0  0.74511  0.23770  0.11506  1.0000
  H   H4986     1.0  0.76037  0.97892  0.11024  1.0000
  H   H4987     1.0  0.80690  0.21040  0.06448  1.0000
  H   H4988     1.0  0.88969  0.97229  0.13776  1.0000
  H   H4989     1.0  0.78262  0.30273  0.13056  1.0000
  C   C6215     1.0  0.85908  0.05589  0.15682  1.0000
  C   C6216     1.0  0.80068  0.18636  0.15855  1.0000
  H   H4990     1.0  0.76994  0.39249  0.10118  1.0000
  C   C6217     1.0  0.78538  0.29582  0.05524  1.0000
  C   C6218     1.0  0.78600  0.31403  0.05425  1.0000
  P   P204      1.0  0.80444  0.32387  0.03850  1.0000
  C   C6219     1.0  0.80356  0.34610  0.04258  1.0000
  C   C6220     1.0  0.82564  0.30876  0.04308  1.0000
  C   C6221     1.0  0.82708  0.29999  0.06108  1.0000
  C   C6222     1.0  0.84343  0.28833  0.06479  1.0000
  C   C6223     1.0  0.85847  0.28532  0.05058  1.0000
  C   C6224     1.0  0.85709  0.29382  0.03262  1.0000
  C   C6225     1.0  0.84070  0.30533  0.02887  1.0000
  C   C6226     1.0  0.79427  0.36180  0.03234  1.0000
  C   C6227     1.0  0.79425  0.37907  0.03479  1.0000
  H   H4991     1.0  0.76152  0.42694  0.02699  1.0000
  C   C6228     1.0  0.80293  0.32707  0.01485  1.0000
  C   C6229     1.0  0.78987  0.32033  0.00994  1.0000
  C   C6230     1.0  0.78787  0.32439  0.99175  1.0000
  C   C6231     1.0  0.79874  0.33533  0.97840  1.0000
  C   C6232     1.0  0.81182  0.34196  0.98316  1.0000
  C   C6233     1.0  0.81399  0.33780  0.00125  1.0000
  H   H4992     1.0  0.79553  0.28787  0.04623  1.0000
  H   H4993     1.0  0.81556  0.30210  0.07231  1.0000
  H   H4994     1.0  0.84435  0.28158  0.07873  1.0000
  H   H4995     1.0  0.87115  0.27635  0.05346  1.0000
  H   H4996     1.0  0.86873  0.29164  0.02150  1.0000
  H   H4997     1.0  0.83999  0.31152  0.01483  1.0000
  H   H4998     1.0  0.78732  0.36081  0.02217  1.0000
  H   H4999     1.0  0.78772  0.39115  0.02638  1.0000
  H   H5000     1.0  0.77769  0.31931  0.98804  1.0000
  H   H5001     1.0  0.87297  0.17570  0.19732  1.0000
  H   H5002     1.0  0.81516  0.35747  0.15172  1.0000
  H   H5003     1.0  0.82410  0.34329  0.00467  1.0000
  H   H5004     1.0  0.76982  0.01848  0.03926  1.0000
  C   C6234     1.0  0.81142  0.36527  0.05875  1.0000
  H   H5005     1.0  0.97584  0.39235  0.99957  1.0000
  H   H5006     1.0  0.81130  0.09998  0.16969  1.0000
  C   C6235     1.0  0.88605  0.26146  0.14404  1.0000
  C   C6236     1.0  0.88681  0.26008  0.16223  1.0000
  C   C6237     1.0  0.88692  0.27557  0.16833  1.0000
  C   C6238     1.0  0.88639  0.29242  0.15621  1.0000
  C   C6239     1.0  0.88600  0.29385  0.13783  1.0000
  C   C6240     1.0  0.88552  0.27829  0.13189  1.0000
  P   P205      1.0  0.88404  0.31598  0.12280  1.0000
  C   C6241     1.0  0.86243  0.32909  0.13255  1.0000
  C   C6242     1.0  0.90312  0.32666  0.12052  1.0000
  C   C6243     1.0  0.90374  0.34377  0.10890  1.0000
  C   C6244     1.0  0.91817  0.35249  0.10712  1.0000
  C   C6245     1.0  0.93236  0.34401  0.11654  1.0000
  C   C6246     1.0  0.93219  0.32671  0.12765  1.0000
  C   C6247     1.0  0.91767  0.31800  0.12960  1.0000
  C   C6248     1.0  0.84643  0.32192  0.13674  1.0000
  C   C6249     1.0  0.82951  0.33200  0.14394  1.0000
  C   C6250     1.0  0.82841  0.34935  0.14690  1.0000
  C   C6251     1.0  0.84434  0.35636  0.14325  1.0000
  C   C6252     1.0  0.86132  0.34621  0.13629  1.0000
  C   C6253     1.0  0.88418  0.31428  0.09987  1.0000
  C   C6254     1.0  0.90018  0.30549  0.08953  1.0000
  C   C6255     1.0  0.90062  0.30440  0.07162  1.0000
  C   C6256     1.0  0.88510  0.31207  0.06392  1.0000
  C   C6257     1.0  0.86918  0.32097  0.07408  1.0000
  C   C6258     1.0  0.86879  0.32224  0.09191  1.0000
  H   H5007     1.0  0.88564  0.24950  0.13941  1.0000
  C   C6259     1.0  0.75917  0.29744  0.08041  1.0000
  H   H5008     1.0  0.88733  0.27449  0.18247  1.0000
  H   H5009     1.0  0.88620  0.30440  0.16116  1.0000
  H   H5010     1.0  0.88446  0.27909  0.11801  1.0000
  H   H5011     1.0  0.89278  0.35066  0.10159  1.0000
  H   H5012     1.0  0.91809  0.36604  0.09869  1.0000
  H   H5013     1.0  0.94344  0.35092  0.11523  1.0000
  H   H5014     1.0  0.94331  0.32011  0.13481  1.0000
  H   H5015     1.0  0.91796  0.30456  0.13813  1.0000
  H   H5016     1.0  0.84694  0.30874  0.13396  1.0000
  H   H5017     1.0  0.74575  0.43506  0.12213  1.0000
  C   C6260     1.0  0.82768  0.29667  0.20497  1.0000
  H   H5018     1.0  0.84358  0.36983  0.14549  1.0000
  H   H5019     1.0  0.87338  0.35198  0.13372  1.0000
  H   H5020     1.0  0.91235  0.29960  0.09530  1.0000
  H   H5021     1.0  0.91303  0.29770  0.06366  1.0000
  H   H5022     1.0  0.88544  0.31127  0.05003  1.0000
  H   H5023     1.0  0.85715  0.32701  0.06812  1.0000
  H   H5024     1.0  0.85654  0.32959  0.09933  1.0000
  C   C6261     1.0  0.75051  0.43755  0.02239  1.0000
  C   C6262     1.0  0.80676  0.46758  0.14482  1.0000
  H   H5025     1.0  0.76410  0.04778  0.05737  1.0000
  H   H5026     1.0  0.76876  0.36785  0.08669  1.0000
  H   H5027     1.0  0.83113  0.44634  0.14184  1.0000
  C   C6263     1.0  0.76342  0.39572  0.08953  1.0000
  C   C6264     1.0  0.82747  0.28022  0.17089  1.0000
  C   C6265     1.0  0.75229  0.45653  0.06030  1.0000
  C   C6266     1.0  0.81588  0.15926  0.18536  1.0000
  H   H5028     1.0  0.77787  0.43668  0.05709  1.0000
  H   H5029     1.0  0.96331  0.01371  0.14068  1.0000
  H   H5030     1.0  0.96473  0.40751  0.19345  1.0000
  P   P206      1.0  0.92036  0.37551  0.99213  1.0000
  C   C6267     1.0  0.91028  0.37677  0.01577  1.0000
  C   C6268     1.0  0.92661  0.35201  0.98970  1.0000
  C   C6269     1.0  0.94485  0.34244  0.98891  1.0000
  C   C6270     1.0  0.94963  0.32432  0.98680  1.0000
  C   C6271     1.0  0.93626  0.31564  0.98543  1.0000
  C   C6272     1.0  0.91809  0.32504  0.98630  1.0000
  C   C6273     1.0  0.91327  0.34316  0.98839  1.0000
  C   C6274     1.0  0.90935  0.39255  0.02210  1.0000
  C   C6275     1.0  0.90111  0.39385  0.04019  1.0000
  C   C6276     1.0  0.89371  0.37944  0.05211  1.0000
  C   C6277     1.0  0.89450  0.36373  0.04594  1.0000
  C   C6278     1.0  0.90263  0.36241  0.02782  1.0000
  C   C6279     1.0  0.79097  0.18376  0.17658  1.0000
  H   H5031     1.0  0.86712  0.04651  0.16629  1.0000
  H   H5032     1.0  0.95552  0.34897  0.98959  1.0000
  C   C6280     1.0  0.97967  0.36403  0.18675  1.0000
  H   H5033     1.0  0.74385  0.17540  0.12615  1.0000
  C   C6281     1.0  0.91285  0.98061  0.11782  1.0000
  C   C6282     1.0  0.81809  0.17574  0.15391  1.0000
  H   H5034     1.0  0.91470  0.40400  0.01296  1.0000
  H   H5035     1.0  0.90017  0.40615  0.04493  1.0000
  H   H5036     1.0  0.88710  0.38062  0.06605  1.0000
  C   C6283     1.0  0.97222  0.38406  0.21407  1.0000
  H   H5037     1.0  0.90259  0.35032  0.02327  1.0000
  H   H5038     1.0  0.76300  0.46054  0.15311  1.0000
  H   H5039     1.0  0.84697  0.11783  0.09104  1.0000
  H   H5040     1.0  0.84313  0.10121  0.14336  1.0000
  H   H5041     1.0  0.85396  0.03460  0.14654  1.0000
  C   C6284     1.0  0.74404  0.03235  0.07542  1.0000
  S   S847      1.0  0.74964  0.16221  0.04839  1.0000
  C   C6285     1.0  0.81512  0.01480  0.03820  1.0000
  C   C6286     1.0  0.84557  0.24563  0.16451  1.0000
  C   C6287     1.0  0.76509  0.97472  0.07627  1.0000
  C   C6288     1.0  0.86862  0.18750  0.97833  1.0000
  C   C6289     1.0  0.97345  0.38289  0.18279  1.0000
  C   C6290     1.0  0.82302  0.33451  0.20100  1.0000
  C   C6291     1.0  0.80900  0.20103  0.03986  1.0000
  C   C6292     1.0  0.81303  0.20510  0.02077  1.0000
  C   C6293     1.0  0.81786  0.22181  0.01126  1.0000
  C   C6294     1.0  0.81912  0.23416  0.02127  1.0000
  P   P207      1.0  0.82239  0.22729  0.98650  1.0000
  H   H5042     1.0  0.85087  0.29939  0.18245  1.0000
  H   H5043     1.0  0.76027  0.43499  0.99424  1.0000
  H   H5044     1.0  0.90770  0.31835  0.98521  1.0000
  H   H5045     1.0  0.80496  0.18819  0.04697  1.0000
  H   H5046     1.0  0.86108  0.11434  0.20261  1.0000
  S   S848      1.0  0.77859  0.25498  0.10998  1.0000
  C   C6295     1.0  0.78234  0.46223  0.05906  1.0000
  C   C6296     1.0  0.73590  0.99362  0.07075  1.0000
  H   H5047     1.0  0.84987  0.28197  0.97109  1.0000
  H   H5048     1.0  0.74792  0.09219  0.15014  1.0000
  C   C6297     1.0  0.83786  0.25817  0.97772  1.0000
  C   C6298     1.0  0.74991  0.04809  0.06429  1.0000
  C   C6299     1.0  0.82987  0.10310  0.21081  1.0000
  H   H5049     1.0  0.89810  0.14839  0.19991  1.0000
  H   H5050     1.0  0.77114  0.03054  0.13049  1.0000
  H   H5051     1.0  0.79368  0.29160  0.96589  1.0000
  H   H5052     1.0  0.86575  0.42195  0.97757  1.0000
  C   C6300     1.0  0.97674  0.97452  0.12405  1.0000
  C   C6301     1.0  0.81626  0.44961  0.14443  1.0000
  H   H5053     1.0  0.82932  0.97353  0.06878  1.0000
  H   H5054     1.0  0.80364  0.00989  0.17178  1.0000
  C   C6302     1.0  0.75973  0.31555  0.07956  1.0000
  C   C6303     1.0  0.84886  0.14318  0.20030  1.0000
  H   H5055     1.0  0.84192  0.17250  0.19720  1.0000
  C   C6304     1.0  0.77604  0.21241  0.98242  1.0000
  H   H5056     1.0  0.84910  0.23925  0.19214  1.0000
  C   C6305     1.0  0.75597  0.41381  0.08260  1.0000
  H   H5057     1.0  0.89914  0.35029  0.98891  1.0000
  C   C6306     1.0  0.80619  0.26358  0.97463  1.0000
  C   C6307     1.0  0.78746  0.43971  0.14997  1.0000
  S   S849      1.0  0.91931  0.46863  0.16840  1.0000
  H   H5058     1.0  0.97154  0.38981  0.16910  1.0000
  H   H5059     1.0  0.98256  0.35632  0.17609  1.0000
  C   C6308     1.0  0.96850  0.43520  0.21389  1.0000
  H   H5060     1.0  0.74230  0.07688  0.05383  1.0000
  H   H5061     1.0  0.82149  0.18282  0.98579  1.0000
  H   H5062     1.0  0.81408  0.42205  0.14611  1.0000
  H   H5063     1.0  0.78509  0.21952  0.00319  1.0000
  C   C6309     1.0  0.85360  0.07525  0.07304  1.0000
  C   C6310     1.0  0.84131  0.08006  0.06123  1.0000
  C   C6311     1.0  0.82350  0.08953  0.06661  1.0000
  C   C6312     1.0  0.81777  0.09383  0.08395  1.0000
  C   C6313     1.0  0.82988  0.08876  0.09608  1.0000
  C   C6314     1.0  0.84802  0.07979  0.09028  1.0000
  P   P208      1.0  0.82294  0.09527  0.11812  1.0000
  C   C6315     1.0  0.82518  0.11859  0.11511  1.0000
  C   C6316     1.0  0.79918  0.09387  0.12812  1.0000
  C   C6317     1.0  0.78500  0.10714  0.12126  1.0000
  C   C6318     1.0  0.76662  0.10646  0.12916  1.0000
  C   C6319     1.0  0.76218  0.09272  0.14414  1.0000
  C   C6320     1.0  0.77614  0.07967  0.15130  1.0000
  C   C6321     1.0  0.79456  0.08019  0.14334  1.0000
  C   C6322     1.0  0.81371  0.12966  0.12708  1.0000
  C   C6323     1.0  0.81466  0.14800  0.12411  1.0000
  C   C6324     1.0  0.82733  0.15535  0.10943  1.0000
  C   C6325     1.0  0.83903  0.14436  0.09768  1.0000
  C   C6326     1.0  0.83799  0.12604  0.10048  1.0000
  C   C6327     1.0  0.83746  0.08003  0.13304  1.0000
  C   C6328     1.0  0.84072  0.06114  0.13404  1.0000
  C   C6329     1.0  0.85158  0.04916  0.14579  1.0000
  C   C6330     1.0  0.84535  0.08674  0.14389  1.0000
  H   H5064     1.0  0.86746  0.06799  0.06882  1.0000
  H   H5065     1.0  0.84554  0.07651  0.04789  1.0000
  H   H5066     1.0  0.81401  0.09336  0.05738  1.0000
  H   H5067     1.0  0.80386  0.10100  0.08773  1.0000
  H   H5068     1.0  0.85792  0.07625  0.09901  1.0000
  H   H5069     1.0  0.78807  0.11816  0.10987  1.0000
  C   C6331     1.0  0.76457  0.01764  0.20368  1.0000
  H   H5070     1.0  0.82266  0.07173  0.19084  1.0000
  H   H5071     1.0  0.77275  0.06892  0.16284  1.0000
  H   H5072     1.0  0.80500  0.06972  0.14904  1.0000
  H   H5073     1.0  0.80370  0.12427  0.13844  1.0000
  H   H5074     1.0  0.80524  0.15671  0.13286  1.0000
  H   H5075     1.0  0.82777  0.16969  0.10694  1.0000
  H   H5076     1.0  0.94684  0.38117  0.01096  1.0000
  C   C6332     1.0  0.77267  0.44139  0.11047  1.0000
  H   H5077     1.0  0.78097  0.31228  0.02010  1.0000
  C   C6333     1.0  0.94090  0.38505  0.98410  1.0000
  Fe  Fe427     1.0  0.85454  0.97305  0.10648  1.0000
  C   C6334     1.0  0.88451  0.14701  0.19956  1.0000
  C   C6335     1.0  0.80294  0.38081  0.04788  1.0000
  C   C6336     1.0  0.86329  0.12788  0.20122  1.0000
  C   C6337     1.0  0.79812  0.00943  0.06940  1.0000
  C   C6338     1.0  0.76268  0.99040  0.11426  1.0000
  C   C6339     1.0  0.79420  0.00836  0.18488  1.0000
  H   H5078     1.0  0.82563  0.17805  0.13991  1.0000
  C   C6340     1.0  0.83478  0.26717  0.18486  1.0000
  H   H5079     1.0  0.94000  0.30171  0.98349  1.0000
  C   C6341     1.0  0.83758  0.27686  0.97235  1.0000
  H   H5080     1.0  0.75666  0.42438  0.08917  1.0000
  H   H5081     1.0  0.96380  0.31720  0.98578  1.0000
  C   C6342     1.0  0.82568  0.16220  0.16724  1.0000
  P   P209      1.0  0.76017  0.01089  0.07895  1.0000
  C   C6343     1.0  0.88099  0.12981  0.20095  1.0000
  H   H5082     1.0  0.87716  0.97086  0.19929  1.0000
  H   H5083     1.0  0.77569  0.33531  0.13280  1.0000
  C   C6344     1.0  0.76318  0.00730  0.10214  1.0000
  C   C6345     1.0  0.82433  0.11913  0.19847  1.0000
  H   H5084     1.0  0.88709  0.24704  0.17165  1.0000
  C   C6346     1.0  0.82944  0.27606  0.15387  1.0000
  C   C6347     1.0  0.85344  0.46812  0.17835  1.0000
  C   C6348     1.0  0.81473  0.01067  0.05694  1.0000
  C   C6349     1.0  0.83841  0.25878  0.15067  1.0000
  C   C6350     1.0  0.87039  0.16236  0.19806  1.0000
  H   H5085     1.0  0.86771  0.46154  0.17830  1.0000
  C   C6351     1.0  0.78846  0.21825  0.98908  1.0000
  C   C6352     1.0  0.84380  0.24979  0.18155  1.0000
  S   S850      1.0  0.93343  0.43483  0.21144  1.0000
  H   H5086     1.0  0.75583  0.11663  0.12359  1.0000
  C   C6353     1.0  0.75404  0.38601  0.06649  1.0000
  C   C6354     1.0  0.75299  0.99175  0.07527  1.0000
  P   P210      1.0  0.82547  0.14102  0.20216  1.0000
  C   C6355     1.0  0.81005  0.21350  0.04967  1.0000
  H   H5087     1.0  0.85216  0.23208  0.16217  1.0000
  H   H5088     1.0  0.81710  0.32667  0.14662  1.0000
  H   H5089     1.0  0.82018  0.35052  0.97280  1.0000
  C   C6356     1.0  0.96785  0.39191  0.99003  1.0000
  C   C6357     1.0  0.81521  0.23000  0.04038  1.0000
  H   H5090     1.0  0.82797  0.01601  0.02859  1.0000
  H   H5091     1.0  0.81402  0.98868  0.19843  1.0000
  H   H5092     1.0  0.75096  0.02616  0.20514  1.0000
  C   C6358     1.0  0.77993  0.21054  0.96426  1.0000
  H   H5093     1.0  0.76682  0.03489  0.09907  1.0000
  C   C6359     1.0  0.79849  0.17023  0.18997  1.0000
  H   H5094     1.0  0.77769  0.19240  0.18023  1.0000
  H   H5095     1.0  0.76545  0.97485  0.14112  1.0000
  S   S851      1.0  0.94414  0.46288  0.12827  1.0000
  H   H5096     1.0  0.76365  0.20879  0.99151  1.0000
  C   C6360     1.0  0.80596  0.28229  0.96931  1.0000
  H   H5097     1.0  0.88755  0.40501  0.99718  1.0000
  C   C6361     1.0  0.80000  0.99627  0.20009  1.0000
  C   C6362     1.0  0.80663  0.43576  0.14692  1.0000
  C   C6363     1.0  0.85205  0.19754  0.98634  1.0000
  H   H5098     1.0  0.85602  0.46817  0.15021  1.0000
  H   H5099     1.0  0.79798  0.26669  0.19790  1.0000
  H   H5100     1.0  0.75678  0.21541  0.06689  1.0000
  H   H5101     1.0  0.79698  0.45734  0.05835  1.0000
  C   C6364     1.0  0.76851  0.00246  0.13782  1.0000
  C   C6365     1.0  0.88941  0.40174  0.98396  1.0000
  C   C6366     1.0  0.96967  0.39288  0.19647  1.0000
  H   H5102     1.0  0.84682  0.33263  0.17920  1.0000
  H   H5103     1.0  0.75331  0.37520  0.06029  1.0000
  H   H5104     1.0  0.81977  0.29349  0.17318  1.0000
  C   C6367     1.0  0.84453  0.21475  0.97696  1.0000
  C   C6368     1.0  0.97441  0.39702  0.97128  1.0000
  H   H5105     1.0  0.85034  0.24902  0.98093  1.0000
  H   H5106     1.0  0.74902  0.29092  0.09075  1.0000
  H   H5107     1.0  0.89610  0.46111  0.21022  1.0000
  H   H5108     1.0  0.80575  0.97689  0.05054  1.0000
  H   H5109     1.0  0.73965  0.40713  0.04818  1.0000
  H   H5110     1.0  0.73799  0.24185  0.20181  1.0000
  C   C6369     1.0  0.96532  0.99035  0.12937  1.0000
  C   C6370     1.0  0.74112  0.23074  0.10663  1.0000
  C   C6371     1.0  0.82940  0.08612  0.20789  1.0000
  H   H5111     1.0  0.84676  0.46860  0.20700  1.0000
  C   C6372     1.0  0.73756  0.06481  0.06239  1.0000
  H   H5112     1.0  0.84976  0.46693  0.08246  1.0000
  H   H5113     1.0  0.79071  0.16854  0.20385  1.0000
  Fe  Fe428     1.0  0.87043  0.33621  0.96611  1.0000
  C   C6373     1.0  0.94771  0.39007  0.96528  1.0000
  C   C6374     1.0  0.73432  0.19475  0.17737  1.0000
  H   H5114     1.0  0.87207  0.99760  0.21360  1.0000
  H   H5115     1.0  0.79701  0.33885  0.96436  1.0000
  Fe  Fe429     1.0  0.95317  0.22428  0.33624  1.0000
  C   C6375     1.0  0.77030  0.23870  0.37509  1.0000
  S   S852      1.0  0.73709  0.20229  0.41124  1.0000
  H   H5116     1.0  0.75095  0.01266  0.37330  1.0000
  H   H5117     1.0  0.79128  0.24849  0.26520  1.0000
  S   S853      1.0  0.77725  0.16179  0.39842  1.0000
  H   H5118     1.0  0.77473  0.21319  0.36646  1.0000
  H   H5119     1.0  0.86082  0.28480  0.21564  1.0000
  H   H5120     1.0  0.86734  0.21848  0.24083  1.0000
  C   C6376     1.0  0.91552  0.41395  0.44983  1.0000
  C   C6377     1.0  0.93561  0.01043  0.29534  1.0000
  Fe  Fe430     1.0  0.82370  0.18988  0.29761  1.0000
  C   C6378     1.0  0.80255  0.27168  0.41195  1.0000
  S   S854      1.0  0.79454  0.19496  0.31356  1.0000
  S   S855      1.0  0.84902  0.18153  0.30958  1.0000
  C   C6379     1.0  0.81558  0.15591  0.23365  1.0000
  C   C6380     1.0  0.81054  0.26418  0.22086  1.0000
  C   C6381     1.0  0.87607  0.26123  0.23048  1.0000
  H   H5121     1.0  0.74113  0.09793  0.40988  1.0000
  C   C6382     1.0  0.95868  0.35209  0.41396  1.0000
  C   C6383     1.0  0.74663  0.22721  0.36826  1.0000
  C   C6384     1.0  0.84996  0.26070  0.21828  1.0000
  H   H5122     1.0  0.80954  0.21091  0.35121  1.0000
  H   H5123     1.0  0.94076  0.45172  0.41858  1.0000
  C   C6385     1.0  0.74662  0.11068  0.44647  1.0000
  S   S856      1.0  0.97265  0.23823  0.31330  1.0000
  Fe  Fe431     1.0  0.87113  0.06097  0.24599  1.0000
  C   C6386     1.0  0.79755  0.13468  0.23272  1.0000
  C   C6387     1.0  0.77644  0.10326  0.45453  1.0000
  C   C6388     1.0  0.91713  0.25010  0.45446  1.0000
  H   H5124     1.0  0.75696  0.21048  0.26755  1.0000
  H   H5125     1.0  0.83213  0.24531  0.30226  1.0000
  H   H5126     1.0  0.76144  0.00566  0.23229  1.0000
  H   H5127     1.0  0.95355  0.33277  0.26518  1.0000
  P   P211      1.0  0.94776  0.38906  0.45557  1.0000
  C   C6389     1.0  0.93374  0.44121  0.42741  1.0000
  H   H5128     1.0  0.81731  0.00942  0.22542  1.0000
  C   C6390     1.0  0.95800  0.30919  0.33724  1.0000
  H   H5129     1.0  0.76016  0.18744  0.24918  1.0000
  C   C6391     1.0  0.89859  0.23275  0.30402  1.0000
  C   C6392     1.0  0.95265  0.38228  0.42051  1.0000
  C   C6393     1.0  0.93093  0.37914  0.26669  1.0000
  S   S857      1.0  0.87255  0.22493  0.29010  1.0000
  C   C6394     1.0  0.96464  0.41616  0.25023  1.0000
  H   H5130     1.0  0.91911  0.45040  0.25961  1.0000
  H   H5131     1.0  0.82442  0.07951  0.26566  1.0000
  H   H5132     1.0  0.75363  0.17997  0.37261  1.0000
  C   C6395     1.0  0.81830  0.25867  0.32485  1.0000
  C   C6396     1.0  0.82598  0.27013  0.44866  1.0000
  H   H5133     1.0  0.82200  0.03159  0.24067  1.0000
  C   C6397     1.0  0.90557  0.31608  0.44796  1.0000
  H   H5134     1.0  0.78043  0.21593  0.22924  1.0000
  C   C6398     1.0  0.74572  0.07106  0.40437  1.0000
  H   H5135     1.0  0.95081  0.29936  0.34710  1.0000
  C   C6399     1.0  0.81094  0.32495  0.21443  1.0000
  C   C6400     1.0  0.76487  0.22525  0.36960  1.0000
  H   H5136     1.0  0.82052  0.27201  0.31724  1.0000
  H   H5137     1.0  0.76263  0.20929  0.43946  1.0000
  S   S858      1.0  0.94220  0.24830  0.34999  1.0000
  S   S859      1.0  0.95362  0.29709  0.43379  1.0000
  C   C6401     1.0  0.89068  0.21900  0.30209  1.0000
  C   C6402     1.0  0.80456  0.15874  0.25048  1.0000
  C   C6403     1.0  0.78806  0.99468  0.21726  1.0000
  C   C6404     1.0  0.86848  0.13155  0.26361  1.0000
  C   C6405     1.0  0.82895  0.99966  0.29995  1.0000
  C   C6406     1.0  0.81475  0.99533  0.31476  1.0000
  C   C6407     1.0  0.80828  0.25927  0.23997  1.0000
  C   C6408     1.0  0.76445  0.11372  0.44316  1.0000
  Fe  Fe432     1.0  0.86336  0.03251  0.22929  1.0000
  C   C6409     1.0  0.83622  0.98801  0.28757  1.0000
  H   H5138     1.0  0.80898  0.00430  0.32435  1.0000
  C   C6410     1.0  0.81222  0.22425  0.34416  1.0000
  H   H5139     1.0  0.84706  0.99118  0.27612  1.0000
  C   C6411     1.0  0.79697  0.25076  0.38971  1.0000
  C   C6412     1.0  0.90549  0.43045  0.44183  1.0000
  P   P212      1.0  0.97072  0.10414  0.30178  1.0000
  S   S860      1.0  0.97132  0.35709  0.33623  1.0000
  Fe  Fe433     1.0  0.96347  0.26140  0.32834  1.0000
  H   H5140     1.0  0.77434  0.98888  0.36043  1.0000
  C   C6413     1.0  0.80630  0.23908  0.35303  1.0000
  H   H5141     1.0  0.88523  0.26870  0.23273  1.0000
  C   C6414     1.0  0.87156  0.10297  0.25434  1.0000
  H   H5142     1.0  0.96161  0.25808  0.44697  1.0000
  C   C6415     1.0  0.89709  0.20089  0.30998  1.0000
  C   C6416     1.0  0.91117  0.19662  0.31990  1.0000
  C   C6417     1.0  0.91926  0.21033  0.32165  1.0000
  C   C6418     1.0  0.91293  0.22844  0.31366  1.0000
  H   H5143     1.0  0.89109  0.19020  0.30858  1.0000
  H   H5144     1.0  0.91585  0.18262  0.32620  1.0000
  H   H5145     1.0  0.97956  0.00609  0.27109  1.0000
  H   H5146     1.0  0.80721  0.16821  0.25724  1.0000
  H   H5147     1.0  0.80762  0.20399  0.24382  1.0000
  H   H5148     1.0  0.92113  0.46952  0.22847  1.0000
  Fe  Fe434     1.0  0.96542  0.23683  0.36511  1.0000
  H   H5149     1.0  0.90688  0.45664  0.42403  1.0000
  C   C6419     1.0  0.96546  0.10798  0.26634  1.0000
  H   H5150     1.0  0.96314  0.40882  0.26422  1.0000
  S   S861      1.0  0.84618  0.04964  0.24924  1.0000
  S   S862      1.0  0.87369  0.13393  0.29665  1.0000
  C   C6420     1.0  0.87610  0.46752  0.23402  1.0000
  P   P213      1.0  0.79399  0.23595  0.37646  1.0000
  H   H5151     1.0  0.96074  0.34328  0.40440  1.0000
  S   S863      1.0  0.83710  0.01984  0.29704  1.0000
  H   H5152     1.0  0.95865  0.42269  0.43256  1.0000
  C   C6421     1.0  0.92649  0.01132  0.28138  1.0000
  C   C6422     1.0  0.78200  0.17135  0.37496  1.0000
  C   C6423     1.0  0.80025  0.17074  0.36559  1.0000
  C   C6424     1.0  0.80430  0.17766  0.34670  1.0000
  C   C6425     1.0  0.79007  0.18563  0.33716  1.0000
  C   C6426     1.0  0.77180  0.18656  0.34664  1.0000
  C   C6427     1.0  0.76776  0.17937  0.36547  1.0000
  H   H5153     1.0  0.81126  0.16501  0.37301  1.0000
  H   H5154     1.0  0.81840  0.17701  0.33960  1.0000
  H   H5155     1.0  0.76072  0.19278  0.33937  1.0000
  H   H5156     1.0  0.79443  0.12551  0.22595  1.0000
  S   S864      1.0  0.83369  0.21262  0.27581  1.0000
  C   C6428     1.0  0.96307  0.24624  0.42401  1.0000
  C   C6429     1.0  0.81469  0.27005  0.39533  1.0000
  C   C6430     1.0  0.74768  0.21260  0.25836  1.0000
  C   C6431     1.0  0.76932  0.08891  0.39720  1.0000
  C   C6432     1.0  0.78206  0.07491  0.38982  1.0000
  C   C6433     1.0  0.77667  0.05896  0.38970  1.0000
  C   C6434     1.0  0.75856  0.05668  0.39748  1.0000
  C   C6435     1.0  0.81222  0.14380  0.22461  1.0000
  P   P214      1.0  0.75105  0.03610  0.39812  1.0000
  S   S865      1.0  0.96378  0.23118  0.39548  1.0000
  C   C6436     1.0  0.76853  0.01893  0.38801  1.0000
  C   C6437     1.0  0.76445  0.00967  0.37649  1.0000
  H   H5157     1.0  0.95431  0.29596  0.39688  1.0000
  C   C6438     1.0  0.93471  0.38157  0.28260  1.0000
  S   S866      1.0  0.97462  0.21173  0.35330  1.0000
  C   C6439     1.0  0.78566  0.01320  0.39320  1.0000
  H   H5158     1.0  0.75047  0.04724  0.35925  1.0000
  C   C6440     1.0  0.96949  0.33744  0.32971  1.0000
  H   H5159     1.0  0.91709  0.38353  0.26417  1.0000
  C   C6441     1.0  0.79266  0.25281  0.25053  1.0000
  H   H5160     1.0  0.76125  0.26526  0.38241  1.0000
  H   H5161     1.0  0.76705  0.24633  0.25028  1.0000
  C   C6442     1.0  0.95723  0.13876  0.30977  1.0000
  H   H5162     1.0  0.78196  0.15140  0.27180  1.0000
  H   H5163     1.0  0.88037  0.45445  0.24258  1.0000
  H   H5164     1.0  0.77347  0.10130  0.39724  1.0000
  H   H5165     1.0  0.79614  0.07641  0.38417  1.0000
  H   H5166     1.0  0.78665  0.04864  0.38336  1.0000
  C   C6443     1.0  0.95260  0.37608  0.28574  1.0000
  C   C6444     1.0  0.95004  0.14539  0.34004  1.0000
  S   S867      1.0  0.93700  0.20422  0.33412  1.0000
  S   S868      1.0  0.87291  0.00906  0.25094  1.0000
  H   H5167     1.0  0.88370  0.09558  0.29548  1.0000
  H   H5168     1.0  0.78868  0.01920  0.40305  1.0000
  C   C6445     1.0  0.74333  0.02477  0.42133  1.0000
  H   H5169     1.0  0.82370  0.11243  0.25399  1.0000
  H   H5170     1.0  0.79974  0.33218  0.22326  1.0000
  C   C6446     1.0  0.95635  0.05400  0.31893  1.0000
  H   H5171     1.0  0.79688  0.97629  0.32847  1.0000
  C   C6447     1.0  0.87794  0.09346  0.27022  1.0000
  C   C6448     1.0  0.78795  0.26247  0.41775  1.0000
  C   C6449     1.0  0.95896  0.34449  0.43230  1.0000
  C   C6450     1.0  0.77046  0.00584  0.21900  1.0000
  S   S869      1.0  0.87248  0.18366  0.26728  1.0000
  C   C6451     1.0  0.87400  0.12204  0.27991  1.0000
  H   H5172     1.0  0.80326  0.26831  0.34917  1.0000
  H   H5173     1.0  0.79961  0.11869  0.36947  1.0000
  C   C6452     1.0  0.96207  0.24963  0.40557  1.0000
  C   C6453     1.0  0.95753  0.27867  0.42300  1.0000
  H   H5174     1.0  0.95560  0.37788  0.29809  1.0000
  C   C6454     1.0  0.95604  0.07248  0.31135  1.0000
  S   S870      1.0  0.92573  0.00980  0.24623  1.0000
  C   C6455     1.0  0.86598  0.23293  0.23517  1.0000
  C   C6456     1.0  0.82137  0.22659  0.32591  1.0000
  H   H5175     1.0  0.94675  0.04719  0.31641  1.0000
  C   C6457     1.0  0.95478  0.00846  0.29171  1.0000
  C   C6458     1.0  0.75733  0.25441  0.37872  1.0000
  C   C6459     1.0  0.95923  0.26756  0.39569  1.0000
  H   H5176     1.0  0.76888  0.12433  0.43187  1.0000
  H   H5177     1.0  0.77398  0.24468  0.41161  1.0000
  C   C6460     1.0  0.96402  0.30726  0.31905  1.0000
  S   S871      1.0  0.88084  0.04022  0.26940  1.0000
  H   H5178     1.0  0.86491  0.14625  0.26086  1.0000
  C   C6461     1.0  0.95181  0.43009  0.22288  1.0000
  Fe  Fe435     1.0  0.84531  0.19160  0.25837  1.0000
  H   H5179     1.0  0.86874  0.24358  0.44350  1.0000
  C   C6462     1.0  0.97989  0.40900  0.38014  1.0000
  C   C6463     1.0  0.83981  0.25468  0.44694  1.0000
  H   H5180     1.0  0.96092  0.10961  0.23951  1.0000
  S   S872      1.0  0.83300  0.16964  0.27920  1.0000
  C   C6464     1.0  0.82681  0.18832  0.39615  1.0000
  C   C6465     1.0  0.81453  0.17969  0.41025  1.0000
  C   C6466     1.0  0.79600  0.18802  0.41386  1.0000
  H   H5181     1.0  0.91718  0.32263  0.44141  1.0000
  H   H5182     1.0  0.95545  0.37688  0.39377  1.0000
  C   C6467     1.0  0.82052  0.20521  0.38558  1.0000
  Fe  Fe436     1.0  0.85986  0.20286  0.28658  1.0000
  C   C6468     1.0  0.87914  0.10299  0.28303  1.0000
  H   H5183     1.0  0.84119  0.18192  0.39341  1.0000
  H   H5184     1.0  0.81929  0.16648  0.41829  1.0000
  H   H5185     1.0  0.78639  0.18124  0.42463  1.0000
  H   H5186     1.0  0.95850  0.27024  0.38144  1.0000
  H   H5187     1.0  0.97752  0.97151  0.27116  1.0000
  C   C6469     1.0  0.95467  0.11198  0.25315  1.0000
  C   C6470     1.0  0.77768  0.99587  0.36932  1.0000
  C   C6471     1.0  0.94501  0.37105  0.25401  1.0000
  H   H5188     1.0  0.78732  0.00987  0.29020  1.0000
  H   H5189     1.0  0.97999  0.10249  0.26266  1.0000
  C   C6472     1.0  0.79923  0.99692  0.24906  1.0000
  C   C6473     1.0  0.79060  0.99736  0.26733  1.0000
  C   C6474     1.0  0.79347  0.00998  0.27593  1.0000
  C   C6475     1.0  0.80482  0.02231  0.26637  1.0000
  C   C6476     1.0  0.81315  0.02214  0.24813  1.0000
  C   C6477     1.0  0.87792  0.24256  0.23776  1.0000
  H   H5190     1.0  0.91176  0.01251  0.28435  1.0000
  H   H5191     1.0  0.88838  0.23557  0.24570  1.0000
  H   H5192     1.0  0.73944  0.00142  0.41315  1.0000
  H   H5193     1.0  0.78186  0.98793  0.27517  1.0000
  H   H5194     1.0  0.85555  0.19162  0.45189  1.0000
  H   H5195     1.0  0.80752  0.03169  0.27323  1.0000
  C   C6478     1.0  0.75112  0.08702  0.40435  1.0000
  H   H5196     1.0  0.77518  0.05550  0.46347  1.0000
  H   H5197     1.0  0.88181  0.07879  0.27263  1.0000
  C   C6479     1.0  0.87567  0.17617  0.36513  1.0000
  C   C6480     1.0  0.86785  0.18567  0.35011  1.0000
  C   C6481     1.0  0.86402  0.20470  0.34624  1.0000
  C   C6482     1.0  0.86813  0.21428  0.35731  1.0000
  C   C6483     1.0  0.87633  0.20482  0.37225  1.0000
  C   C6484     1.0  0.87973  0.18570  0.37628  1.0000
  P   P215      1.0  0.88090  0.21682  0.38731  1.0000
  C   C6485     1.0  0.86309  0.21436  0.40754  1.0000
  C   C6486     1.0  0.90368  0.20821  0.39200  1.0000
  C   C6487     1.0  0.91722  0.19797  0.38056  1.0000
  C   C6488     1.0  0.93528  0.19280  0.38324  1.0000
  C   C6489     1.0  0.94000  0.19791  0.39726  1.0000
  C   C6490     1.0  0.92664  0.20824  0.40863  1.0000
  C   C6491     1.0  0.90856  0.21350  0.40594  1.0000
  C   C6492     1.0  0.84494  0.22320  0.40657  1.0000
  C   C6493     1.0  0.83079  0.22091  0.42188  1.0000
  C   C6494     1.0  0.83462  0.20956  0.43820  1.0000
  C   C6495     1.0  0.85263  0.20048  0.43922  1.0000
  C   C6496     1.0  0.86682  0.20272  0.42391  1.0000
  C   C6497     1.0  0.88097  0.24037  0.37657  1.0000
  C   C6498     1.0  0.89178  0.24460  0.35908  1.0000
  C   C6499     1.0  0.89242  0.26272  0.35066  1.0000
  C   C6500     1.0  0.88252  0.27673  0.35977  1.0000
  C   C6501     1.0  0.87214  0.27260  0.37741  1.0000
  C   C6502     1.0  0.87145  0.25447  0.38587  1.0000
  H   H5198     1.0  0.87873  0.16142  0.36800  1.0000
  H   H5199     1.0  0.86502  0.17828  0.34130  1.0000
  H   H5200     1.0  0.85829  0.21203  0.33434  1.0000
  H   H5201     1.0  0.86500  0.22901  0.35400  1.0000
  H   H5202     1.0  0.88572  0.17816  0.38793  1.0000
  H   H5203     1.0  0.91412  0.19454  0.36909  1.0000
  H   H5204     1.0  0.94578  0.18544  0.37393  1.0000
  H   H5205     1.0  0.95415  0.19444  0.39892  1.0000
  H   H5206     1.0  0.93058  0.21271  0.41905  1.0000
  H   H5207     1.0  0.89851  0.22205  0.41441  1.0000
  H   H5208     1.0  0.84174  0.23174  0.39391  1.0000
  H   H5209     1.0  0.81682  0.22787  0.42111  1.0000
  C   C6503     1.0  0.82623  0.08769  0.27428  1.0000
  C   C6504     1.0  0.77767  0.22049  0.45275  1.0000
  H   H5210     1.0  0.88057  0.19516  0.42486  1.0000
  H   H5211     1.0  0.89986  0.23384  0.35198  1.0000
  H   H5212     1.0  0.90085  0.26584  0.33716  1.0000
  H   H5213     1.0  0.88327  0.29076  0.35328  1.0000
  H   H5214     1.0  0.86495  0.28345  0.38467  1.0000
  H   H5215     1.0  0.86380  0.25154  0.39973  1.0000
  H   H5216     1.0  0.82566  0.21515  0.31910  1.0000
  C   C6505     1.0  0.98320  0.43070  0.22295  1.0000
  C   C6506     1.0  0.78964  0.20480  0.40319  1.0000
  C   C6507     1.0  0.93654  0.00999  0.26378  1.0000
  S   S873      1.0  0.84677  0.19609  0.22791  1.0000
  H   H5217     1.0  0.92782  0.01106  0.30901  1.0000
  H   H5218     1.0  0.89370  0.24678  0.29793  1.0000
  H   H5219     1.0  0.83024  0.21188  0.37493  1.0000
  S   S874      1.0  0.86812  0.09157  0.23883  1.0000
  C   C6508     1.0  0.95565  0.37099  0.40803  1.0000
  C   C6509     1.0  0.96198  0.12003  0.31702  1.0000
  H   H5220     1.0  0.78980  0.21972  0.44204  1.0000
  C   C6510     1.0  0.85820  0.25575  0.44459  1.0000
  H   H5221     1.0  0.96355  0.00700  0.24660  1.0000
  H   H5222     1.0  0.92382  0.38772  0.29249  1.0000
  H   H5223     1.0  0.94593  0.07974  0.30317  1.0000
  C   C6511     1.0  0.94381  0.42475  0.43541  1.0000
  H   H5224     1.0  0.93687  0.41693  0.24827  1.0000
  H   H5225     1.0  0.96422  0.09980  0.34190  1.0000
  H   H5226     1.0  0.82625  0.27686  0.39107  1.0000
  C   C6512     1.0  0.95688  0.28207  0.40444  1.0000
  C   C6513     1.0  0.95291  0.37469  0.43901  1.0000
  C   C6514     1.0  0.95650  0.35566  0.44469  1.0000
  H   H5227     1.0  0.86230  0.12952  0.23867  1.0000
  C   C6515     1.0  0.96673  0.36828  0.27292  1.0000
  Fe  Fe437     1.0  0.89584  0.02358  0.24823  1.0000
  Fe  Fe438     1.0  0.85723  0.02725  0.27066  1.0000
  C   C6516     1.0  0.78674  0.13735  0.24971  1.0000
  C   C6517     1.0  0.97322  0.32016  0.30637  1.0000
  C   C6518     1.0  0.93577  0.11869  0.25762  1.0000
  C   C6519     1.0  0.96059  0.11411  0.33596  1.0000
  C   C6520     1.0  0.79496  0.99081  0.37391  1.0000
  C   C6521     1.0  0.92893  0.45931  0.25463  1.0000
  H   H5228     1.0  0.77567  0.06291  0.33799  1.0000
  H   H5229     1.0  0.77565  0.13005  0.25602  1.0000
  H   H5230     1.0  0.83496  0.10364  0.22249  1.0000
  H   H5231     1.0  0.78765  0.02978  0.34719  1.0000
  C   C6522     1.0  0.93007  0.47008  0.23707  1.0000
  H   H5232     1.0  0.91908  0.23909  0.31492  1.0000
  C   C6523     1.0  0.80181  0.21339  0.38879  1.0000
  C   C6524     1.0  0.93836  0.11747  0.28849  1.0000
  C   C6525     1.0  0.96478  0.00751  0.27404  1.0000
  C   C6526     1.0  0.81041  0.00951  0.23950  1.0000
  C   C6527     1.0  0.78997  0.05798  0.33890  1.0000
  C   C6528     1.0  0.79668  0.03934  0.34417  1.0000
  C   C6529     1.0  0.81525  0.03293  0.34479  1.0000
  C   C6530     1.0  0.82719  0.04513  0.34005  1.0000
  C   C6531     1.0  0.82061  0.06390  0.33456  1.0000
  C   C6532     1.0  0.80191  0.07020  0.33394  1.0000
  P   P216      1.0  0.83625  0.07952  0.32557  1.0000
  C   C6533     1.0  0.83218  0.09704  0.33860  1.0000
  C   C6534     1.0  0.85963  0.06708  0.32528  1.0000
  C   C6535     1.0  0.86745  0.06414  0.34063  1.0000
  C   C6536     1.0  0.88554  0.05459  0.34051  1.0000
  C   C6537     1.0  0.89591  0.04777  0.32514  1.0000
  C   C6538     1.0  0.88813  0.05038  0.30997  1.0000
  C   C6539     1.0  0.87000  0.05984  0.31008  1.0000
  C   C6540     1.0  0.84569  0.10737  0.33571  1.0000
  C   C6541     1.0  0.84263  0.12156  0.34492  1.0000
  C   C6542     1.0  0.82611  0.12545  0.35724  1.0000
  C   C6543     1.0  0.81256  0.11529  0.36020  1.0000
  C   C6544     1.0  0.81555  0.10112  0.35091  1.0000
  C   C6545     1.0  0.83267  0.09003  0.30272  1.0000
  C   C6546     1.0  0.83167  0.10885  0.29613  1.0000
  C   C6547     1.0  0.82805  0.11692  0.27876  1.0000
  C   C6548     1.0  0.82982  0.07951  0.29166  1.0000
  H   H5233     1.0  0.92111  0.36506  0.46371  1.0000
  P   P217      1.0  0.98099  0.35400  0.24135  1.0000
  H   H5234     1.0  0.82059  0.01841  0.34816  1.0000
  H   H5235     1.0  0.84165  0.03970  0.33988  1.0000
  H   H5236     1.0  0.79671  0.08449  0.32893  1.0000
  H   H5237     1.0  0.85960  0.06923  0.35269  1.0000
  H   H5238     1.0  0.89156  0.05246  0.35232  1.0000
  H   H5239     1.0  0.90994  0.04039  0.32496  1.0000
  H   H5240     1.0  0.89622  0.04503  0.29810  1.0000
  H   H5241     1.0  0.86416  0.06154  0.29828  1.0000
  H   H5242     1.0  0.85843  0.10483  0.32588  1.0000
  H   H5243     1.0  0.85296  0.12977  0.34213  1.0000
  H   H5244     1.0  0.82372  0.13650  0.36428  1.0000
  C   C6549     1.0  0.94981  0.42080  0.24118  1.0000
  H   H5245     1.0  0.80478  0.09367  0.35318  1.0000
  H   H5246     1.0  0.83402  0.11740  0.30406  1.0000
  H   H5247     1.0  0.82800  0.13129  0.27352  1.0000
  H   H5248     1.0  0.83056  0.06495  0.29634  1.0000
  C   C6550     1.0  0.81206  0.25945  0.38434  1.0000
  C   C6551     1.0  0.86217  0.27030  0.22075  1.0000
  H   H5249     1.0  0.77521  0.21098  0.40616  1.0000
  H   H5250     1.0  0.82655  0.16338  0.22783  1.0000
  S   S875      1.0  0.96602  0.00663  0.30953  1.0000
  S   S876      1.0  0.95873  0.28990  0.31144  1.0000
  C   C6552     1.0  0.77900  0.25161  0.24214  1.0000
  C   C6553     1.0  0.89334  0.32159  0.46321  1.0000
  C   C6554     1.0  0.85197  0.24196  0.22566  1.0000
  C   C6555     1.0  0.90344  0.30148  0.44165  1.0000
  C   C6556     1.0  0.88869  0.29261  0.45027  1.0000
  C   C6557     1.0  0.78093  0.25687  0.22320  1.0000
  P   P218      1.0  0.88647  0.27314  0.44281  1.0000
  C   C6558     1.0  0.86282  0.27224  0.44443  1.0000
  C   C6559     1.0  0.89717  0.27458  0.41900  1.0000
  C   C6560     1.0  0.90846  0.25924  0.41262  1.0000
  C   C6561     1.0  0.91721  0.26075  0.39427  1.0000
  C   C6562     1.0  0.91488  0.27757  0.38220  1.0000
  C   C6563     1.0  0.90332  0.29280  0.38835  1.0000
  C   C6564     1.0  0.89428  0.29127  0.40664  1.0000
  H   H5251     1.0  0.83276  0.97437  0.24641  1.0000
  C   C6565     1.0  0.95136  0.15136  0.32124  1.0000
  P   P219      1.0  0.79611  0.98077  0.23741  1.0000
  C   C6566     1.0  0.83054  0.28680  0.44759  1.0000
  C   C6567     1.0  0.84891  0.28792  0.44531  1.0000
  H   H5252     1.0  0.80377  0.29893  0.22694  1.0000
  C   C6568     1.0  0.91461  0.44401  0.43052  1.0000
  H   H5253     1.0  0.97022  0.02949  0.33427  1.0000
  C   C6569     1.0  0.96963  0.04397  0.32901  1.0000
  C   C6570     1.0  0.97643  0.33486  0.31183  1.0000
  H   H5254     1.0  0.81214  0.99504  0.38994  1.0000
  H   H5255     1.0  0.80454  0.27992  0.42044  1.0000
  H   H5256     1.0  0.73727  0.11896  0.43778  1.0000
  H   H5257     1.0  0.85215  0.30094  0.44455  1.0000
  H   H5258     1.0  0.91367  0.29688  0.43038  1.0000
  H   H5259     1.0  0.92735  0.12154  0.24751  1.0000
  H   H5260     1.0  0.91087  0.24620  0.42180  1.0000
  H   H5261     1.0  0.92627  0.24895  0.38953  1.0000
  H   H5262     1.0  0.92211  0.27885  0.36810  1.0000
  H   H5263     1.0  0.90160  0.30584  0.37898  1.0000
  H   H5264     1.0  0.88548  0.30323  0.41126  1.0000
  H   H5265     1.0  0.97785  0.31883  0.29227  1.0000
  C   C6571     1.0  0.96039  0.32448  0.34246  1.0000
  H   H5266     1.0  0.95702  0.34940  0.45881  1.0000
  C   C6572     1.0  0.96484  0.32367  0.25845  1.0000
  H   H5267     1.0  0.94001  0.45123  0.27910  1.0000
  C   C6573     1.0  0.76232  0.21454  0.45125  1.0000
  H   H5268     1.0  0.91295  0.12653  0.27878  1.0000
  C   C6574     1.0  0.79891  0.99938  0.38597  1.0000
  H   H5269     1.0  0.78868  0.02453  0.45801  1.0000
  H   H5270     1.0  0.92497  0.25876  0.44372  1.0000
  S   S877      1.0  0.88772  0.04532  0.22456  1.0000
  Fe  Fe439     1.0  0.85930  0.16312  0.28930  1.0000
  H   H5271     1.0  0.74241  0.21663  0.36432  1.0000
  C   C6575     1.0  0.78518  0.25202  0.40670  1.0000
  C   C6576     1.0  0.96302  0.36550  0.25710  1.0000
  C   C6577     1.0  0.96465  0.30505  0.26295  1.0000
  H   H5272     1.0  0.94183  0.36907  0.24186  1.0000
  C   C6578     1.0  0.86722  0.12204  0.25091  1.0000
  H   H5273     1.0  0.95508  0.32631  0.35637  1.0000
  C   C6579     1.0  0.97833  0.36509  0.21827  1.0000
  C   C6580     1.0  0.82552  0.10633  0.26777  1.0000
  C   C6581     1.0  0.96094  0.26074  0.43270  1.0000
  H   H5274     1.0  0.81871  0.26011  0.24673  1.0000
  H   H5275     1.0  0.95364  0.12218  0.36200  1.0000
  C   C6582     1.0  0.82474  0.24369  0.31635  1.0000
  H   H5276     1.0  0.93168  0.11932  0.30221  1.0000
  C   C6583     1.0  0.80940  0.20722  0.22911  1.0000
  H   H5277     1.0  0.96538  0.23237  0.43164  1.0000
  H   H5278     1.0  0.82360  0.20788  0.45008  1.0000
  Fe  Fe440     1.0  0.74843  0.17245  0.41236  1.0000
  H   H5279     1.0  0.96104  0.32988  0.43701  1.0000
  H   H5280     1.0  0.83612  0.24177  0.44805  1.0000
  H   H5281     1.0  0.82207  0.25776  0.37192  1.0000
  H   H5282     1.0  0.77890  0.26319  0.43095  1.0000
  C   C6584     1.0  0.80878  0.25645  0.34303  1.0000
  H   H5283     1.0  0.95002  0.39687  0.41564  1.0000
  C   C6585     1.0  0.95571  0.00804  0.26019  1.0000
  H   H5284     1.0  0.81170  0.26903  0.45126  1.0000
  C   C6586     1.0  0.79025  0.14937  0.25860  1.0000
  C   C6587     1.0  0.92764  0.12148  0.27527  1.0000
  C   C6588     1.0  0.98238  0.07086  0.32402  1.0000
  C   C6589     1.0  0.82952  0.97208  0.29001  1.0000
  H   H5285     1.0  0.77054  0.25553  0.21664  1.0000
  C   C6590     1.0  0.74242  0.03234  0.43635  1.0000
  H   H5286     1.0  0.95839  0.14368  0.29518  1.0000
  S   S878      1.0  0.98075  0.40520  0.30573  1.0000
  C   C6591     1.0  0.79403  0.21393  0.22084  1.0000
  C   C6592     1.0  0.97972  0.33017  0.24597  1.0000
  H   H5287     1.0  0.97077  0.42131  0.37491  1.0000
  C   C6593     1.0  0.96919  0.08104  0.31370  1.0000
  H   H5288     1.0  0.94561  0.15528  0.34882  1.0000
  H   H5289     1.0  0.81975  0.29874  0.44904  1.0000
  C   C6594     1.0  0.95737  0.11071  0.28412  1.0000
  C   C6595     1.0  0.95460  0.12677  0.34741  1.0000
  C   C6596     1.0  0.93475  0.41096  0.44665  1.0000
  C   C6597     1.0  0.89792  0.25372  0.45714  1.0000
  C   C6598     1.0  0.80788  0.97947  0.31711  1.0000
  H   H5290     1.0  0.94802  0.16584  0.31553  1.0000
  C   C6599     1.0  0.74941  0.19955  0.24809  1.0000
  H   H5291     1.0  0.95334  0.30009  0.27295  1.0000
  H   H5292     1.0  0.74606  0.04537  0.43454  1.0000
  S   S879      1.0  0.74018  0.16478  0.44284  1.0000
  C   C6600     1.0  0.98149  0.42081  0.24096  1.0000
  H   H5293     1.0  0.98386  0.34447  0.30213  1.0000
  C   C6601     1.0  0.74065  0.09730  0.46121  1.0000
  H   H5294     1.0  0.98051  0.36442  0.27538  1.0000
  C   C6602     1.0  0.73640  0.04872  0.36672  1.0000
  H   H5295     1.0  0.80511  0.97997  0.36842  1.0000
  C   C6603     1.0  0.96889  0.39166  0.46001  1.0000
  H   H5296     1.0  0.89066  0.43262  0.44418  1.0000
  H   H5297     1.0  0.90824  0.40346  0.45824  1.0000
  C   C6604     1.0  0.73672  0.02301  0.45413  1.0000
  H   H5298     1.0  0.76042  0.97374  0.23498  1.0000
  C   C6605     1.0  0.97158  0.46760  0.42952  1.0000
  H   H5299     1.0  0.84242  0.23435  0.22445  1.0000
  H   H5300     1.0  0.97911  0.27829  0.25887  1.0000
  H   H5301     1.0  0.94112  0.23305  0.46386  1.0000
  C   C6606     1.0  0.94076  0.45972  0.26555  1.0000
  C   C6607     1.0  0.97242  0.46696  0.41131  1.0000
  H   H5302     1.0  0.83440  0.07375  0.21701  1.0000
  H   H5303     1.0  0.73934  0.19203  0.22822  1.0000
  H   H5304     1.0  0.96935  0.39207  0.22444  1.0000
  H   H5305     1.0  0.98158  0.39628  0.35788  1.0000
  H   H5306     1.0  0.79025  0.10567  0.45197  1.0000
  C   C6608     1.0  0.73903  0.25623  0.37756  1.0000
  C   C6609     1.0  0.73879  0.00761  0.42447  1.0000
  C   C6610     1.0  0.98255  0.05242  0.33166  1.0000
  C   C6611     1.0  0.81327  0.30607  0.21646  1.0000
  C   C6612     1.0  0.82704  0.20471  0.21827  1.0000
  C   C6613     1.0  0.97925  0.29274  0.25509  1.0000
  H   H5307     1.0  0.98060  0.41806  0.40400  1.0000
  C   C6614     1.0  0.73753  0.20225  0.23617  1.0000
  H   H5308     1.0  0.86226  0.33791  0.55318  1.0000
  S   S880      1.0  0.75147  0.00861  0.57939  1.0000
  H   H5309     1.0  0.89156  0.23611  0.51896  1.0000
  C   C6615     1.0  0.88699  0.46569  0.56936  1.0000
  H   H5310     1.0  0.78245  0.46990  0.68778  1.0000
  H   H5311     1.0  0.86636  0.29017  0.47379  1.0000
  S   S881      1.0  0.75839  0.37482  0.60701  1.0000
  S   S882      1.0  0.76139  0.42359  0.57839  1.0000
  H   H5312     1.0  0.81416  0.32296  0.52642  1.0000
  C   C6616     1.0  0.74613  0.22246  0.48023  1.0000
  C   C6617     1.0  0.88359  0.24986  0.51757  1.0000
  C   C6618     1.0  0.77208  0.46482  0.68439  1.0000
  H   H5313     1.0  0.92344  0.39594  0.54661  1.0000
  Fe  Fe441     1.0  0.76988  0.14001  0.66695  1.0000
  S   S883      1.0  0.79950  0.13887  0.65315  1.0000
  S   S884      1.0  0.75329  0.16316  0.68103  1.0000
  Fe  Fe442     1.0  0.76776  0.10616  0.65476  1.0000
  S   S885      1.0  0.79717  0.10217  0.64021  1.0000
  S   S886      1.0  0.74953  0.08604  0.65834  1.0000
  Fe  Fe443     1.0  0.80300  0.10880  0.66451  1.0000
  S   S887      1.0  0.82772  0.09075  0.67502  1.0000
  Fe  Fe444     1.0  0.79153  0.13242  0.62987  1.0000
  S   S888      1.0  0.80552  0.14294  0.60100  1.0000
  S   S889      1.0  0.77395  0.11031  0.68023  1.0000
  S   S890      1.0  0.76141  0.13608  0.64249  1.0000
  Fe  Fe445     1.0  0.79718  0.24295  0.49564  1.0000
  S   S891      1.0  0.80948  0.22165  0.51728  1.0000
  Fe  Fe446     1.0  0.79104  0.27314  0.51719  1.0000
  S   S892      1.0  0.80282  0.25406  0.54039  1.0000
  S   S893      1.0  0.78004  0.30335  0.51601  1.0000
  Fe  Fe447     1.0  0.82445  0.24265  0.51844  1.0000
  Fe  Fe448     1.0  0.96054  0.39193  0.55623  1.0000
  Fe  Fe449     1.0  0.78672  0.23501  0.53715  1.0000
  S   S894      1.0  0.76903  0.22075  0.56175  1.0000
  S   S895      1.0  0.81405  0.26310  0.49528  1.0000
  S   S896      1.0  0.77315  0.25489  0.51543  1.0000
  Fe  Fe450     1.0  0.95293  0.09594  0.67449  1.0000
  S   S897      1.0  0.92970  0.10402  0.69732  1.0000
  S   S898      1.0  0.96994  0.06806  0.67179  1.0000
  Fe  Fe451     1.0  0.95346  0.13448  0.65400  1.0000
  S   S899      1.0  0.93066  0.14603  0.67474  1.0000
  Fe  Fe452     1.0  0.94486  0.12593  0.69576  1.0000
  C   C6619     1.0  0.94973  0.46799  0.50265  1.0000
  Fe  Fe453     1.0  0.91704  0.12358  0.67475  1.0000
  S   S900      1.0  0.88716  0.13509  0.67381  1.0000
  S   S901      1.0  0.93884  0.11354  0.65208  1.0000
  C   C6620     1.0  0.96817  0.03528  0.66588  1.0000
  C   C6621     1.0  0.95816  0.05209  0.66992  1.0000
  S   S902      1.0  0.85438  0.23454  0.51987  1.0000
  H   H5314     1.0  0.93119  0.06874  0.67575  1.0000
  C   C6622     1.0  0.85446  0.27082  0.51663  1.0000
  H   H5315     1.0  0.83988  0.27339  0.51695  1.0000
  C   C6623     1.0  0.84426  0.10261  0.67578  1.0000
  C   C6624     1.0  0.86264  0.09363  0.67543  1.0000
  C   C6625     1.0  0.87602  0.10325  0.67532  1.0000
  C   C6626     1.0  0.87095  0.12183  0.67571  1.0000
  C   C6627     1.0  0.85250  0.13060  0.67664  1.0000
  C   C6628     1.0  0.83922  0.12105  0.67663  1.0000
  H   H5316     1.0  0.86660  0.07932  0.67496  1.0000
  H   H5317     1.0  0.89023  0.09639  0.67461  1.0000
  H   H5318     1.0  0.84849  0.14493  0.67712  1.0000
  H   H5319     1.0  0.82505  0.12795  0.67746  1.0000
  C   C6629     1.0  0.79531  0.16458  0.59023  1.0000
  C   C6630     1.0  0.80545  0.17395  0.57454  1.0000
  C   C6631     1.0  0.79763  0.19136  0.56584  1.0000
  C   C6632     1.0  0.77945  0.19921  0.57252  1.0000
  C   C6633     1.0  0.76929  0.18976  0.58807  1.0000
  C   C6634     1.0  0.77726  0.17260  0.59710  1.0000
  H   H5320     1.0  0.81946  0.16784  0.56927  1.0000
  H   H5321     1.0  0.80564  0.19864  0.55397  1.0000
  H   H5322     1.0  0.75519  0.19571  0.59308  1.0000
  H   H5323     1.0  0.76936  0.16548  0.60919  1.0000
  S   S903      1.0  0.95670  0.98177  0.62970  1.0000
  H   H5324     1.0  0.77419  0.36562  0.66086  1.0000
  S   S904      1.0  0.94743  0.41109  0.57525  1.0000
  C   C6635     1.0  0.86478  0.25304  0.51776  1.0000
  C   C6636     1.0  0.81710  0.45008  0.54957  1.0000
  C   C6637     1.0  0.81716  0.43759  0.70277  1.0000
  H   H5325     1.0  0.81597  0.43201  0.67723  1.0000
  C   C6638     1.0  0.87264  0.00200  0.61876  1.0000
  C   C6639     1.0  0.76733  0.32562  0.56846  1.0000
  H   H5326     1.0  0.97223  0.26321  0.55890  1.0000
  C   C6640     1.0  0.77732  0.22740  0.46802  1.0000
  C   C6641     1.0  0.77527  0.31177  0.53629  1.0000
  C   C6642     1.0  0.78186  0.30122  0.55171  1.0000
  C   C6643     1.0  0.77787  0.30809  0.56772  1.0000
  C   C6644     1.0  0.75261  0.05752  0.52733  1.0000
  C   C6645     1.0  0.96930  0.36331  0.52622  1.0000
  H   H5327     1.0  0.79016  0.28781  0.55132  1.0000
  H   H5328     1.0  0.78299  0.29976  0.57957  1.0000
  C   C6646     1.0  0.75714  0.43999  0.68603  1.0000
  H   H5329     1.0  0.75253  0.34978  0.55355  1.0000
  H   H5330     1.0  0.91133  0.37520  0.57456  1.0000
  C   C6647     1.0  0.78046  0.44174  0.62122  1.0000
  C   C6648     1.0  0.78522  0.44969  0.60275  1.0000
  C   C6649     1.0  0.77908  0.44429  0.58962  1.0000
  C   C6650     1.0  0.76843  0.43079  0.59492  1.0000
  C   C6651     1.0  0.76377  0.42287  0.61338  1.0000
  C   C6652     1.0  0.76975  0.42835  0.62646  1.0000
  H   H5331     1.0  0.96406  0.21023  0.64547  1.0000
  H   H5332     1.0  0.94704  0.98149  0.58599  1.0000
  H   H5333     1.0  0.76597  0.42221  0.64072  1.0000
  C   C6653     1.0  0.74850  0.07692  0.63992  1.0000
  C   C6654     1.0  0.75544  0.08459  0.62183  1.0000
  C   C6655     1.0  0.75347  0.07756  0.60747  1.0000
  C   C6656     1.0  0.87616  0.46936  0.58614  1.0000
  C   C6657     1.0  0.73921  0.16851  0.56996  1.0000
  C   C6658     1.0  0.89713  0.22830  0.48307  1.0000
  H   H5334     1.0  0.76191  0.09621  0.61893  1.0000
  S   S905      1.0  0.93543  0.31500  0.47721  1.0000
  C   C6659     1.0  0.80700  0.18270  0.50024  1.0000
  H   H5335     1.0  0.82443  0.43066  0.64372  1.0000
  C   C6660     1.0  0.93899  0.05577  0.67265  1.0000
  C   C6661     1.0  0.80302  0.17900  0.51930  1.0000
  H   H5336     1.0  0.81209  0.40154  0.64879  1.0000
  Fe  Fe454     1.0  0.92307  0.29448  0.50006  1.0000
  C   C6662     1.0  0.90234  0.45581  0.60045  1.0000
  S   S906      1.0  0.92810  0.00908  0.66725  1.0000
  C   C6663     1.0  0.79353  0.18351  0.49068  1.0000
  H   H5337     1.0  0.77700  0.13779  0.70426  1.0000
  S   S907      1.0  0.89266  0.30052  0.51237  1.0000
  C   C6664     1.0  0.86230  0.35146  0.54499  1.0000
  C   C6665     1.0  0.75867  0.07678  0.54451  1.0000
  H   H5338     1.0  0.97508  0.99203  0.58573  1.0000
  C   C6666     1.0  0.85797  0.46017  0.67419  1.0000
  C   C6667     1.0  0.76484  0.32940  0.53696  1.0000
  H   H5339     1.0  0.75419  0.27997  0.54127  1.0000
  C   C6668     1.0  0.84906  0.36005  0.53422  1.0000
  S   S908      1.0  0.93677  0.27097  0.48608  1.0000
  C   C6669     1.0  0.77740  0.02661  0.46944  1.0000
  H   H5340     1.0  0.77633  0.23043  0.59250  1.0000
  S   S909      1.0  0.95117  0.36551  0.56129  1.0000
  C   C6670     1.0  0.89757  0.41480  0.54597  1.0000
  C   C6671     1.0  0.90906  0.39892  0.55303  1.0000
  C   C6672     1.0  0.90218  0.38719  0.56881  1.0000
  C   C6673     1.0  0.88383  0.39139  0.57763  1.0000
  C   C6674     1.0  0.87202  0.40714  0.57044  1.0000
  C   C6675     1.0  0.87911  0.41890  0.55457  1.0000
  P   P220      1.0  0.84903  0.41371  0.58330  1.0000
  C   C6676     1.0  0.83513  0.39655  0.58792  1.0000
  C   C6677     1.0  0.84281  0.37897  0.58436  1.0000
  C   C6678     1.0  0.83176  0.36606  0.58793  1.0000
  C   C6679     1.0  0.81291  0.37064  0.59477  1.0000
  C   C6680     1.0  0.80510  0.38816  0.59794  1.0000
  C   C6681     1.0  0.81609  0.40105  0.59450  1.0000
  C   C6682     1.0  0.85100  0.41862  0.60438  1.0000
  C   C6683     1.0  0.86811  0.41991  0.60698  1.0000
  C   C6684     1.0  0.86946  0.42430  0.62298  1.0000
  C   C6685     1.0  0.85378  0.42800  0.63631  1.0000
  C   C6686     1.0  0.83670  0.42716  0.63371  1.0000
  C   C6687     1.0  0.83528  0.42255  0.61783  1.0000
  H   H5341     1.0  0.90320  0.42433  0.53425  1.0000
  H   H5342     1.0  0.87906  0.38273  0.59048  1.0000
  H   H5343     1.0  0.87074  0.43163  0.54916  1.0000
  H   H5344     1.0  0.80426  0.36076  0.59731  1.0000
  H   H5345     1.0  0.79042  0.39191  0.60287  1.0000
  H   H5346     1.0  0.80953  0.41466  0.59658  1.0000
  H   H5347     1.0  0.88043  0.41819  0.59654  1.0000
  H   H5348     1.0  0.88260  0.42577  0.62462  1.0000
  H   H5349     1.0  0.95582  0.99256  0.69735  1.0000
  H   H5350     1.0  0.96211  0.45360  0.60993  1.0000
  H   H5351     1.0  0.82177  0.42273  0.61596  1.0000
  Fe  Fe455     1.0  0.95853  0.30900  0.49191  1.0000
  H   H5352     1.0  0.77210  0.14029  0.54554  1.0000
  C   C6688     1.0  0.97621  0.98027  0.58004  1.0000
  Fe  Fe456     1.0  0.74611  0.98704  0.60436  1.0000
  C   C6689     1.0  0.84231  0.99585  0.63393  1.0000
  H   H5353     1.0  0.81505  0.31434  0.49770  1.0000
  C   C6690     1.0  0.96071  0.20318  0.65953  1.0000
  C   C6691     1.0  0.83960  0.45143  0.57234  1.0000
  C   C6692     1.0  0.95301  0.18352  0.69527  1.0000
  C   C6693     1.0  0.80907  0.36612  0.53966  1.0000
  C   C6694     1.0  0.75652  0.16256  0.70306  1.0000
  C   C6695     1.0  0.74708  0.47027  0.66871  1.0000
  C   C6696     1.0  0.75377  0.14246  0.58997  1.0000
  H   H5354     1.0  0.84884  0.36154  0.49686  1.0000
  C   C6697     1.0  0.76489  0.13581  0.57479  1.0000
  C   C6698     1.0  0.76968  0.04420  0.47264  1.0000
  C   C6699     1.0  0.95017  0.46096  0.47374  1.0000
  H   H5355     1.0  0.78261  0.45052  0.57536  1.0000
  C   C6700     1.0  0.81915  0.46690  0.55148  1.0000
  H   H5356     1.0  0.92754  0.44601  0.58281  1.0000
  H   H5357     1.0  0.74925  0.20723  0.66236  1.0000
  H   H5358     1.0  0.78250  0.17447  0.54355  1.0000
  C   C6701     1.0  0.79254  0.39289  0.55208  1.0000
  C   C6702     1.0  0.76077  0.33628  0.55305  1.0000
  H   H5359     1.0  0.82019  0.38014  0.55410  1.0000
  C   C6703     1.0  0.84963  0.37780  0.52402  1.0000
  H   H5360     1.0  0.80869  0.98917  0.67591  1.0000
  C   C6704     1.0  0.87612  0.37814  0.53544  1.0000
  H   H5361     1.0  0.88127  0.01041  0.60862  1.0000
  H   H5362     1.0  0.88660  0.38507  0.53586  1.0000
  C   C6705     1.0  0.86968  0.97557  0.64307  1.0000
  C   C6706     1.0  0.78550  0.17640  0.52880  1.0000
  H   H5363     1.0  0.79355  0.45999  0.59859  1.0000
  S   S910      1.0  0.95669  0.41302  0.53107  1.0000
  H   H5364     1.0  0.83384  0.98646  0.60423  1.0000
  H   H5365     1.0  0.90546  0.34839  0.49266  1.0000
  C   C6707     1.0  0.87909  0.31237  0.47224  1.0000
  C   C6708     1.0  0.82206  0.32954  0.51387  1.0000
  C   C6709     1.0  0.77605  0.18067  0.50014  1.0000
  H   H5366     1.0  0.81329  0.17880  0.52677  1.0000
  H   H5367     1.0  0.84784  0.45167  0.67959  1.0000
  C   C6710     1.0  0.79327  0.36563  0.53393  1.0000
  H   H5368     1.0  0.90836  0.45196  0.61245  1.0000
  C   C6711     1.0  0.80428  0.98059  0.66941  1.0000
  C   C6712     1.0  0.81609  0.31227  0.58154  1.0000
  H   H5369     1.0  0.74016  0.13789  0.53962  1.0000
  C   C6713     1.0  0.84133  0.35131  0.49731  1.0000
  H   H5370     1.0  0.75531  0.13509  0.60361  1.0000
  H   H5371     1.0  0.75920  0.10455  0.53069  1.0000
  H   H5372     1.0  0.80777  0.45051  0.70064  1.0000
  C   C6714     1.0  0.98212  0.34701  0.59372  1.0000
  C   C6715     1.0  0.74005  0.06189  0.64353  1.0000
  H   H5373     1.0  0.73670  0.18729  0.70605  1.0000
  C   C6716     1.0  0.86312  0.38677  0.52461  1.0000
  C   C6717     1.0  0.75628  0.05987  0.54330  1.0000
  H   H5374     1.0  0.77561  0.28472  0.64334  1.0000
  P   P221      1.0  0.81761  0.00242  0.63654  1.0000
  C   C6718     1.0  0.81206  0.00773  0.61412  1.0000
  Fe  Fe457     1.0  0.97572  0.41633  0.57191  1.0000
  H   H5375     1.0  0.89557  0.98268  0.62832  1.0000
  S   S911      1.0  0.87061  0.46804  0.62312  1.0000
  C   C6719     1.0  0.84152  0.34651  0.48096  1.0000
  H   H5376     1.0  0.75374  0.38288  0.68334  1.0000
  C   C6720     1.0  0.90551  0.45702  0.56813  1.0000
  C   C6721     1.0  0.79698  0.02140  0.60975  1.0000
  C   C6722     1.0  0.79218  0.02434  0.59281  1.0000
  P   P222      1.0  0.75520  0.41632  0.69413  1.0000
  H   H5377     1.0  0.92916  0.17957  0.68815  1.0000
  C   C6723     1.0  0.82237  0.99731  0.60111  1.0000
  C   C6724     1.0  0.80880  0.02151  0.64800  1.0000
  C   C6725     1.0  0.78977  0.02690  0.65398  1.0000
  C   C6726     1.0  0.78273  0.04190  0.66240  1.0000
  C   C6727     1.0  0.79459  0.05148  0.66523  1.0000
  C   C6728     1.0  0.81356  0.04585  0.65997  1.0000
  C   C6729     1.0  0.82070  0.03088  0.65144  1.0000
  C   C6730     1.0  0.75499  0.28829  0.66759  1.0000
  C   C6731     1.0  0.77188  0.17701  0.51931  1.0000
  C   C6732     1.0  0.80109  0.97237  0.64227  1.0000
  C   C6733     1.0  0.75255  0.08686  0.47283  1.0000
  H   H5378     1.0  0.84744  0.01889  0.61208  1.0000
  C   C6734     1.0  0.73477  0.27597  0.61876  1.0000
  H   H5379     1.0  0.83820  0.40255  0.68086  1.0000
  C   C6735     1.0  0.74512  0.21202  0.64926  1.0000
  S   S912      1.0  0.76298  0.33354  0.58891  1.0000
  C   C6736     1.0  0.96887  0.19107  0.68929  1.0000
  H   H5380     1.0  0.78860  0.02965  0.61935  1.0000
  H   H5381     1.0  0.78026  0.03461  0.58971  1.0000
  C   C6737     1.0  0.77067  0.01166  0.48106  1.0000
  H   H5382     1.0  0.73565  0.41526  0.66636  1.0000
  C   C6738     1.0  0.82626  0.43391  0.55907  1.0000
  H   H5383     1.0  0.78029  0.01963  0.65196  1.0000
  H   H5384     1.0  0.76802  0.04626  0.66667  1.0000
  H   H5385     1.0  0.78905  0.06326  0.67158  1.0000
  H   H5386     1.0  0.82265  0.05321  0.66253  1.0000
  H   H5387     1.0  0.83544  0.02677  0.64761  1.0000
  Fe  Fe458     1.0  0.95949  0.26843  0.50080  1.0000
  C   C6739     1.0  0.76648  0.38711  0.67602  1.0000
  H   H5388     1.0  0.88075  0.43765  0.67106  1.0000
  C   C6740     1.0  0.81755  0.00034  0.58417  1.0000
  C   C6741     1.0  0.84395  0.31389  0.55026  1.0000
  H   H5389     1.0  0.83934  0.38487  0.51595  1.0000
  H   H5390     1.0  0.73550  0.44730  0.67056  1.0000
  H   H5391     1.0  0.80474  0.33982  0.57023  1.0000
  C   C6742     1.0  0.82192  0.42713  0.68932  1.0000
  C   C6743     1.0  0.86302  0.28533  0.51521  1.0000
  H   H5392     1.0  0.80983  0.22611  0.58704  1.0000
  H   H5393     1.0  0.79223  0.40335  0.55924  1.0000
  C   C6744     1.0  0.76890  0.14843  0.71141  1.0000
  H   H5394     1.0  0.82035  0.18544  0.49287  1.0000
  C   C6745     1.0  0.75360  0.08917  0.51370  1.0000
  H   H5395     1.0  0.76115  0.23334  0.49373  1.0000
  C   C6746     1.0  0.93444  0.37852  0.47667  1.0000
  C   C6747     1.0  0.77817  0.37714  0.66334  1.0000
  H   H5396     1.0  0.88590  0.35379  0.55392  1.0000
  C   C6748     1.0  0.88887  0.23210  0.57031  1.0000
  C   C6749     1.0  0.87565  0.24585  0.56274  1.0000
  C   C6750     1.0  0.85830  0.24252  0.56385  1.0000
  C   C6751     1.0  0.85417  0.22543  0.57250  1.0000
  C   C6752     1.0  0.86734  0.21153  0.58021  1.0000
  C   C6753     1.0  0.88477  0.21500  0.57902  1.0000
  P   P223      1.0  0.86190  0.18937  0.59096  1.0000
  C   C6754     1.0  0.86100  0.17726  0.57409  1.0000
  C   C6755     1.0  0.87947  0.17639  0.60361  1.0000
  C   C6756     1.0  0.89564  0.16628  0.59477  1.0000
  C   C6757     1.0  0.90974  0.15702  0.60416  1.0000
  C   C6758     1.0  0.90785  0.15782  0.62241  1.0000
  C   C6759     1.0  0.89186  0.16787  0.63128  1.0000
  C   C6760     1.0  0.87775  0.17719  0.62194  1.0000
  C   C6761     1.0  0.86146  0.15842  0.57898  1.0000
  C   C6762     1.0  0.85969  0.14906  0.56643  1.0000
  C   C6763     1.0  0.85771  0.15838  0.54881  1.0000
  C   C6764     1.0  0.85753  0.17707  0.54373  1.0000
  C   C6765     1.0  0.85919  0.18649  0.55628  1.0000
  C   C6766     1.0  0.83985  0.19260  0.60647  1.0000
  C   C6767     1.0  0.83537  0.20607  0.61699  1.0000
  C   C6768     1.0  0.81851  0.20844  0.62928  1.0000
  C   C6769     1.0  0.80591  0.19753  0.63101  1.0000
  C   C6770     1.0  0.81018  0.18424  0.62049  1.0000
  C   C6771     1.0  0.82704  0.18175  0.60827  1.0000
  H   H5397     1.0  0.90244  0.23462  0.56911  1.0000
  H   H5398     1.0  0.87909  0.25889  0.55550  1.0000
  H   H5399     1.0  0.84828  0.25295  0.55735  1.0000
  H   H5400     1.0  0.84094  0.22285  0.57259  1.0000
  H   H5401     1.0  0.89534  0.20457  0.58460  1.0000
  H   H5402     1.0  0.89752  0.16582  0.58052  1.0000
  H   H5403     1.0  0.92227  0.14937  0.59730  1.0000
  C   C6772     1.0  0.75031  0.16189  0.55462  1.0000
  H   H5404     1.0  0.89039  0.16830  0.64551  1.0000
  H   H5405     1.0  0.86557  0.18484  0.62920  1.0000
  H   H5406     1.0  0.86272  0.15106  0.59266  1.0000
  H   H5407     1.0  0.85946  0.13465  0.57052  1.0000
  H   H5408     1.0  0.85612  0.15117  0.53916  1.0000
  H   H5409     1.0  0.85591  0.18442  0.53011  1.0000
  H   H5410     1.0  0.85892  0.20095  0.55190  1.0000
  H   H5411     1.0  0.84501  0.21458  0.61588  1.0000
  H   H5412     1.0  0.81521  0.21869  0.63752  1.0000
  H   H5413     1.0  0.79288  0.19924  0.64058  1.0000
  H   H5414     1.0  0.80045  0.17571  0.62189  1.0000
  H   H5415     1.0  0.82989  0.17127  0.60042  1.0000
  C   C6773     1.0  0.75132  0.26863  0.57004  1.0000
  C   C6774     1.0  0.94508  0.19545  0.66555  1.0000
  C   C6775     1.0  0.94114  0.18579  0.68348  1.0000
  C   C6776     1.0  0.94848  0.45577  0.49267  1.0000
  C   C6777     1.0  0.98005  0.27262  0.56005  1.0000
  C   C6778     1.0  0.88957  0.46333  0.66209  1.0000
  C   C6779     1.0  0.74598  0.32442  0.64949  1.0000
  C   C6780     1.0  0.96043  0.97436  0.58012  1.0000
  H   H5416     1.0  0.75843  0.20848  0.53383  1.0000
  C   C6781     1.0  0.75130  0.07213  0.51232  1.0000
  H   H5417     1.0  0.94437  0.39019  0.49418  1.0000
  C   C6782     1.0  0.75601  0.01432  0.49569  1.0000
  P   P224      1.0  0.83007  0.34965  0.53507  1.0000
  C   C6783     1.0  0.74559  0.45198  0.67479  1.0000
  C   C6784     1.0  0.74720  0.22930  0.63886  1.0000
  H   H5418     1.0  0.82531  0.99195  0.57438  1.0000
  H   H5419     1.0  0.88103  0.46956  0.55733  1.0000
  H   H5420     1.0  0.75306  0.23785  0.64402  1.0000
  C   C6785     1.0  0.83052  0.46757  0.56274  1.0000
  H   H5421     1.0  0.76471  0.40295  0.54833  1.0000
  Fe  Fe459     1.0  0.74559  0.40089  0.59070  1.0000
  H   H5422     1.0  0.76580  0.18192  0.49233  1.0000
  C   C6786     1.0  0.92609  0.37255  0.50978  1.0000
  C   C6787     1.0  0.80843  0.37966  0.54909  1.0000
  S   S913      1.0  0.97196  0.24151  0.51682  1.0000
  C   C6788     1.0  0.80238  0.01377  0.58006  1.0000
  H   H5423     1.0  0.93624  0.19660  0.65621  1.0000
  H   H5424     1.0  0.95011  0.17533  0.70890  1.0000
  H   H5425     1.0  0.77098  0.27761  0.61500  1.0000
  C   C6789     1.0  0.89220  0.26440  0.51576  1.0000
  S   S914      1.0  0.79672  0.23511  0.46930  1.0000
  H   H5426     1.0  0.80818  0.44956  0.54093  1.0000
  H   H5427     1.0  0.92767  0.37436  0.52271  1.0000
  H   H5428     1.0  0.76532  0.26902  0.56994  1.0000
  C   C6790     1.0  0.77067  0.44650  0.69046  1.0000
  P   P225      1.0  0.74510  0.06959  0.49210  1.0000
  C   C6791     1.0  0.94900  0.46093  0.63597  1.0000
  Fe  Fe460     1.0  0.94565  0.98332  0.65900  1.0000
  C   C6792     1.0  0.97603  0.29099  0.55172  1.0000
  C   C6793     1.0  0.83735  0.43449  0.57076  1.0000
  C   C6794     1.0  0.76156  0.22816  0.48186  1.0000
  C   C6795     1.0  0.92270  0.36725  0.47645  1.0000
  S   S915      1.0  0.97241  0.33195  0.49051  1.0000
  C   C6796     1.0  0.77702  0.39261  0.54596  1.0000
  S   S916      1.0  0.78775  0.44789  0.63821  1.0000
  C   C6797     1.0  0.86680  0.04839  0.65889  1.0000
  C   C6798     1.0  0.88420  0.03737  0.65530  1.0000
  C   C6799     1.0  0.89538  0.04040  0.63795  1.0000
  C   C6800     1.0  0.88916  0.05442  0.62412  1.0000
  C   C6801     1.0  0.87154  0.06536  0.62759  1.0000
  C   C6802     1.0  0.86057  0.06238  0.64511  1.0000
  P   P226      1.0  0.86356  0.08458  0.61070  1.0000
  C   C6803     1.0  0.84152  0.08360  0.60695  1.0000
  C   C6804     1.0  0.86321  0.10450  0.61902  1.0000
  C   C6805     1.0  0.84716  0.11783  0.62184  1.0000
  C   C6806     1.0  0.84738  0.13310  0.62824  1.0000
  C   C6807     1.0  0.86342  0.13497  0.63231  1.0000
  C   C6808     1.0  0.87935  0.12163  0.62992  1.0000
  C   C6809     1.0  0.87925  0.10640  0.62338  1.0000
  C   C6810     1.0  0.83242  0.09815  0.59538  1.0000
  C   C6811     1.0  0.81542  0.09757  0.59229  1.0000
  C   C6812     1.0  0.80756  0.08227  0.60036  1.0000
  C   C6813     1.0  0.81678  0.06747  0.61141  1.0000
  C   C6814     1.0  0.83376  0.06805  0.61461  1.0000
  C   C6815     1.0  0.87892  0.08443  0.58880  1.0000
  C   C6816     1.0  0.88153  0.06974  0.58023  1.0000
  C   C6817     1.0  0.89318  0.06945  0.56313  1.0000
  C   C6818     1.0  0.90217  0.08390  0.55441  1.0000
  C   C6819     1.0  0.89946  0.09869  0.56275  1.0000
  C   C6820     1.0  0.88784  0.09900  0.57986  1.0000
  H   H5429     1.0  0.85834  0.04651  0.67251  1.0000
  H   H5430     1.0  0.88925  0.02678  0.66609  1.0000
  H   H5431     1.0  0.90908  0.03210  0.63547  1.0000
  H   H5432     1.0  0.89831  0.05689  0.61101  1.0000
  H   H5433     1.0  0.84732  0.07120  0.64819  1.0000
  H   H5434     1.0  0.83430  0.11638  0.61966  1.0000
  H   H5435     1.0  0.83495  0.14325  0.63058  1.0000
  H   H5436     1.0  0.86327  0.14630  0.63821  1.0000
  H   H5437     1.0  0.89152  0.12278  0.63391  1.0000
  H   H5438     1.0  0.89158  0.09593  0.62207  1.0000
  H   H5439     1.0  0.83820  0.11021  0.58912  1.0000
  H   H5440     1.0  0.80816  0.10925  0.58401  1.0000
  H   H5441     1.0  0.79423  0.08195  0.59825  1.0000
  H   H5442     1.0  0.81057  0.05569  0.61774  1.0000
  H   H5443     1.0  0.84069  0.05639  0.62311  1.0000
  H   H5444     1.0  0.87457  0.05849  0.58683  1.0000
  H   H5445     1.0  0.89522  0.05801  0.55664  1.0000
  H   H5446     1.0  0.91122  0.08366  0.54117  1.0000
  H   H5447     1.0  0.90638  0.10993  0.55596  1.0000
  H   H5448     1.0  0.88585  0.11067  0.58595  1.0000
  C   C6821     1.0  0.95414  0.33418  0.52562  1.0000
  C   C6822     1.0  0.84400  0.29785  0.56349  1.0000
  C   C6823     1.0  0.83012  0.29703  0.57916  1.0000
  H   H5449     1.0  0.90942  0.35232  0.52208  1.0000
  H   H5450     1.0  0.90670  0.26174  0.51578  1.0000
  C   C6824     1.0  0.91629  0.22461  0.48012  1.0000
  H   H5451     1.0  0.85480  0.28606  0.56148  1.0000
  H   H5452     1.0  0.83024  0.28456  0.58935  1.0000
  C   C6825     1.0  0.97376  0.35590  0.51050  1.0000
  H   H5453     1.0  0.83233  0.32935  0.46848  1.0000
  C   C6826     1.0  0.76450  0.29412  0.64990  1.0000
  C   C6827     1.0  0.91561  0.36031  0.50945  1.0000
  H   H5454     1.0  0.88930  0.22023  0.49452  1.0000
  S   S917      1.0  0.91891  0.45227  0.54710  1.0000
  H   H5455     1.0  0.92338  0.21359  0.48919  1.0000
  H   H5456     1.0  0.79642  0.18690  0.47590  1.0000
  C   C6828     1.0  0.94971  0.34155  0.54138  1.0000
  C   C6829     1.0  0.77115  0.25442  0.60398  1.0000
  C   C6830     1.0  0.77927  0.26633  0.60891  1.0000
  C   C6831     1.0  0.79840  0.26376  0.60592  1.0000
  C   C6832     1.0  0.80950  0.24938  0.59790  1.0000
  C   C6833     1.0  0.80144  0.23742  0.59310  1.0000
  C   C6834     1.0  0.78236  0.23987  0.59621  1.0000
  H   H5457     1.0  0.85485  0.31431  0.53818  1.0000
  H   H5458     1.0  0.97837  0.15474  0.65883  1.0000
  H   H5459     1.0  0.79311  0.35506  0.52715  1.0000
  H   H5460     1.0  0.75842  0.08385  0.59349  1.0000
  H   H5461     1.0  0.73636  0.03364  0.50992  1.0000
  H   H5462     1.0  0.80454  0.27296  0.60982  1.0000
  H   H5463     1.0  0.82431  0.24744  0.59551  1.0000
  H   H5464     1.0  0.78550  0.98010  0.58037  1.0000
  S   S918      1.0  0.74185  0.05483  0.59264  1.0000
  H   H5465     1.0  0.84836  0.45221  0.58102  1.0000
  H   H5466     1.0  0.78008  0.43742  0.69864  1.0000
  C   C6835     1.0  0.95908  0.02207  0.66479  1.0000
  C   C6836     1.0  0.93989  0.02560  0.66790  1.0000
  C   C6837     1.0  0.92988  0.04249  0.67175  1.0000
  H   H5467     1.0  0.87029  0.31599  0.48466  1.0000
  H   H5468     1.0  0.80271  0.97444  0.62762  1.0000
  C   C6838     1.0  0.80697  0.98373  0.65031  1.0000
  C   C6839     1.0  0.74390  0.21112  0.53388  1.0000
  S   S919      1.0  0.96568  0.15156  0.62772  1.0000
  H   H5469     1.0  0.91503  0.04530  0.67411  1.0000
  C   C6840     1.0  0.91359  0.35794  0.49282  1.0000
  C   C6841     1.0  0.95729  0.35611  0.54169  1.0000
  C   C6842     1.0  0.83157  0.34287  0.51391  1.0000
  H   H5470     1.0  0.79151  0.41934  0.67095  1.0000
  C   C6843     1.0  0.82244  0.32465  0.49755  1.0000
  S   S920      1.0  0.96916  0.11631  0.67483  1.0000
  H   H5471     1.0  0.75046  0.04434  0.52708  1.0000
  C   C6844     1.0  0.91318  0.45225  0.58369  1.0000
  H   H5472     1.0  0.83777  0.35254  0.58517  1.0000
  H   H5473     1.0  0.85499  0.29903  0.51429  1.0000
  H   H5474     1.0  0.87306  0.24627  0.47521  1.0000
  H   H5475     1.0  0.93436  0.97263  0.70035  1.0000
  Fe  Fe461     1.0  0.74507  0.36090  0.59326  1.0000
  C   C6845     1.0  0.87651  0.45229  0.66947  1.0000
  H   H5476     1.0  0.75084  0.00275  0.50482  1.0000
  C   C6846     1.0  0.74623  0.17633  0.71251  1.0000
  C   C6847     1.0  0.83447  0.41060  0.69135  1.0000
  C   C6848     1.0  0.74489  0.06261  0.61110  1.0000
  H   H5477     1.0  0.94036  0.33600  0.55329  1.0000
  H   H5478     1.0  0.79837  0.01581  0.56711  1.0000
  H   H5479     1.0  0.75692  0.04862  0.55495  1.0000
  H   H5480     1.0  0.94853  0.46393  0.51732  1.0000
  C   C6849     1.0  0.77731  0.37888  0.53706  1.0000
  H   H5481     1.0  0.85481  0.43231  0.64824  1.0000
  C   C6850     1.0  0.75744  0.09141  0.52968  1.0000
  H   H5482     1.0  0.80503  0.31160  0.59346  1.0000
  C   C6851     1.0  0.85054  0.98023  0.64512  1.0000
  H   H5483     1.0  0.96492  0.29586  0.54437  1.0000
  C   C6852     1.0  0.79948  0.39737  0.65657  1.0000
  C   C6853     1.0  0.78774  0.40745  0.66917  1.0000
  S   S921      1.0  0.94481  0.29067  0.51617  1.0000
  H   H5484     1.0  0.97664  0.10751  0.62961  1.0000
  C   C6854     1.0  0.88197  0.28219  0.51453  1.0000
  H   H5485     1.0  0.91879  0.15072  0.62972  1.0000
  H   H5486     1.0  0.85719  0.37514  0.57863  1.0000
  H   H5487     1.0  0.76118  0.07853  0.55711  1.0000
  C   C6855     1.0  0.75505  0.04698  0.48748  1.0000
  C   C6856     1.0  0.95401  0.98195  0.70946  1.0000
  H   H5488     1.0  0.89538  0.33243  0.46854  1.0000
  H   H5489     1.0  0.96692  0.00914  0.66170  1.0000
  H   H5490     1.0  0.80345  0.37485  0.64338  1.0000
  H   H5491     1.0  0.75969  0.33766  0.52506  1.0000
  S   S922      1.0  0.82111  0.46922  0.65029  1.0000
  C   C6857     1.0  0.75985  0.31213  0.64076  1.0000
  C   C6858     1.0  0.93560  0.38153  0.49347  1.0000
  C   C6859     1.0  0.79461  0.38234  0.65350  1.0000
  H   H5492     1.0  0.75557  0.41247  0.61764  1.0000
  S   S923      1.0  0.97503  0.28640  0.47774  1.0000
  H   H5493     1.0  0.98298  0.03250  0.66359  1.0000
  H   H5494     1.0  0.94810  0.32311  0.52538  1.0000
  C   C6860     1.0  0.95071  0.46220  0.61729  1.0000
  C   C6861     1.0  0.87573  0.36050  0.54559  1.0000
  H   H5495     1.0  0.77676  0.99801  0.47869  1.0000
  C   C6862     1.0  0.74046  0.30039  0.67614  1.0000
  Fe  Fe462     1.0  0.94573  0.43268  0.55000  1.0000
  C   C6863     1.0  0.83003  0.32929  0.55262  1.0000
  H   H5496     1.0  0.76511  0.37842  0.53270  1.0000
  H   H5497     1.0  0.95685  0.41701  0.46933  1.0000
  C   C6864     1.0  0.76319  0.14547  0.55718  1.0000
  C   C6865     1.0  0.81599  0.32835  0.56829  1.0000
  H   H5498     1.0  0.98301  0.36153  0.49856  1.0000
  H   H5499     1.0  0.75909  0.27442  0.67463  1.0000
  C   C6866     1.0  0.77096  0.40262  0.67873  1.0000
  C   C6867     1.0  0.97255  0.20108  0.67135  1.0000
  C   C6868     1.0  0.96633  0.34121  0.51023  1.0000
  C   C6869     1.0  0.74800  0.03191  0.49870  1.0000
  C   C6870     1.0  0.85352  0.00673  0.62076  1.0000
  P   P227      1.0  0.74894  0.17470  0.53176  1.0000
  C   C6871     1.0  0.74094  0.15878  0.58756  1.0000
  H   H5500     1.0  0.77998  0.08188  0.47802  1.0000
  H   H5501     1.0  0.85219  0.39180  0.70833  1.0000
  H   H5502     1.0  0.77500  0.12330  0.57674  1.0000
  S   S924      1.0  0.97318  0.43953  0.54769  1.0000
  H   H5503     1.0  0.97531  0.37449  0.52639  1.0000
  H   H5504     1.0  0.86342  0.40048  0.51680  1.0000
  H   H5505     1.0  0.82448  0.42102  0.55740  1.0000
  H   H5506     1.0  0.90375  0.45689  0.65814  1.0000
  C   C6872     1.0  0.88380  0.46428  0.60174  1.0000
  H   H5507     1.0  0.94627  0.44227  0.49968  1.0000
  H   H5508     1.0  0.75210  0.10085  0.50261  1.0000
  C   C6873     1.0  0.88072  0.98640  0.62989  1.0000
  H   H5509     1.0  0.76709  0.31670  0.62700  1.0000
  C   C6874     1.0  0.83212  0.33315  0.48110  1.0000
  H   H5510     1.0  0.95914  0.45135  0.64302  1.0000
  H   H5511     1.0  0.84911  0.35301  0.46820  1.0000
  C   C6875     1.0  0.84233  0.40455  0.70682  1.0000
  H   H5512     1.0  0.93272  0.47011  0.66012  1.0000
  C   C6876     1.0  0.74506  0.27484  0.55366  1.0000
  C   C6877     1.0  0.98215  0.16284  0.62959  1.0000
  C   C6878     1.0  0.74219  0.23528  0.62172  1.0000
  H   H5513     1.0  0.98328  0.31718  0.54607  1.0000
  C   C6879     1.0  0.88792  0.24303  0.47189  1.0000
  C   C6880     1.0  0.77055  0.08985  0.46929  1.0000
  P   P228      1.0  0.74658  0.25697  0.60791  1.0000
  H   H5514     1.0  0.98087  0.15423  0.69221  1.0000
  H   H5515     1.0  0.74551  0.29598  0.59599  1.0000
  H   H5516     1.0  0.97863  0.34505  0.62260  1.0000
  H   H5517     1.0  0.73566  0.02901  0.46565  1.0000
  H   H5518     1.0  0.84234  0.97153  0.65537  1.0000
  H   H5519     1.0  0.73999  0.23888  0.53662  1.0000
  C   C6881     1.0  0.73946  0.26245  0.58629  1.0000
  H   H5520     1.0  0.94925  0.45134  0.46616  1.0000
  H   H5521     1.0  0.97227  0.35976  0.59176  1.0000
  H   H5522     1.0  0.87770  0.46530  0.70614  1.0000
  C   C6882     1.0  0.73858  0.16358  0.52005  1.0000
  C   C6883     1.0  0.73846  0.05460  0.62920  1.0000
  H   H5523     1.0  0.77064  0.38020  0.71367  1.0000
  S   S925      1.0  0.98325  0.41708  0.59822  1.0000
  C   C6884     1.0  0.73558  0.19739  0.53262  1.0000
  H   H5524     1.0  0.73436  0.13566  0.70855  1.0000
  C   C6885     1.0  0.92629  0.23556  0.46585  1.0000
  C   C6886     1.0  0.73605  0.14555  0.52705  1.0000
  C   C6887     1.0  0.73808  0.20059  0.64260  1.0000
  C   C6888     1.0  0.96919  0.40685  0.46667  1.0000
  C   C6889     1.0  0.87692  0.29774  0.46603  1.0000
  S   S926      1.0  0.73505  0.37149  0.65641  1.0000
  C   C6890     1.0  0.73666  0.29369  0.60938  1.0000
  H   H5525     1.0  0.73463  0.05591  0.65750  1.0000
  C   C6891     1.0  0.73646  0.31868  0.66719  1.0000
  H   H5526     1.0  0.73671  0.18711  0.65057  1.0000
  H   H5527     1.0  0.74270  0.33850  0.64256  1.0000
  C   C6892     1.0  0.74642  0.21570  0.46489  1.0000
  S   S927      1.0  0.73426  0.38701  0.57482  1.0000
  C   C6893     1.0  0.73555  0.22351  0.61494  1.0000
  H   H5528     1.0  0.73449  0.12874  0.67912  1.0000
  H   H5529     1.0  0.85669  0.44382  0.71419  1.0000
  C   C6894     1.0  0.73903  0.29854  0.71422  1.0000
  Fe  Fe463     1.0  0.95098  0.29117  0.46444  1.0000
  Fe  Fe464     1.0  0.89015  0.35167  0.92804  1.0000
  Fe  Fe465     1.0  0.87287  0.19433  0.88955  1.0000
  S   S928      1.0  0.85883  0.22164  0.87606  1.0000
  S   S929      1.0  0.90367  0.18503  0.88635  1.0000
  Fe  Fe466     1.0  0.83697  0.18350  0.91126  1.0000
  S   S930      1.0  0.81988  0.20982  0.89938  1.0000
  S   S931      1.0  0.82400  0.16083  0.93067  1.0000
  Fe  Fe467     1.0  0.83886  0.20639  0.87267  1.0000
  S   S932      1.0  0.82943  0.21411  0.84567  1.0000
  Fe  Fe468     1.0  0.84101  0.22293  0.90378  1.0000
  S   S933      1.0  0.83029  0.24851  0.91543  1.0000
  S   S934      1.0  0.85443  0.17885  0.88401  1.0000
  S   S935      1.0  0.85662  0.19683  0.91778  1.0000
  C   C6895     1.0  0.77886  0.24228  0.78408  1.0000
  C   C6896     1.0  0.82474  0.43152  0.71850  1.0000
  C   C6897     1.0  0.76035  0.16155  0.73876  1.0000
  H   H5530     1.0  0.98038  0.43576  0.85308  1.0000
  C   C6898     1.0  0.80233  0.46350  0.80276  1.0000
  S   S936      1.0  0.76302  0.15990  0.76125  1.0000
  H   H5531     1.0  0.78802  0.37957  0.91735  1.0000
  C   C6899     1.0  0.94026  0.99191  0.83007  1.0000
  C   C6900     1.0  0.83754  0.41498  0.72033  1.0000
  H   H5532     1.0  0.97682  0.13669  0.76736  1.0000
  C   C6901     1.0  0.98248  0.04553  0.85604  1.0000
  H   H5533     1.0  0.75255  0.24900  0.80126  1.0000
  C   C6902     1.0  0.92116  0.12721  0.77193  1.0000
  S   S937      1.0  0.87380  0.34089  0.91419  1.0000
  C   C6903     1.0  0.79238  0.25835  0.80521  1.0000
  C   C6904     1.0  0.98045  0.04776  0.87385  1.0000
  S   S938      1.0  0.82043  0.36153  0.93154  1.0000
  S   S939      1.0  0.91164  0.36797  0.91081  1.0000
  Fe  Fe469     1.0  0.75190  0.40858  0.83473  1.0000
  S   S940      1.0  0.77923  0.41561  0.82086  1.0000
  C   C6905     1.0  0.75630  0.42015  0.72886  1.0000
  H   H5534     1.0  0.81869  0.25153  0.78767  1.0000
  H   H5535     1.0  0.77655  0.36902  0.74489  1.0000
  Fe  Fe470     1.0  0.76439  0.44463  0.81750  1.0000
  Fe  Fe471     1.0  0.78089  0.41896  0.84832  1.0000
  S   S941      1.0  0.80964  0.40784  0.85353  1.0000
  H   H5536     1.0  0.82732  0.46231  0.81126  1.0000
  S   S942      1.0  0.75451  0.40953  0.86268  1.0000
  C   C6906     1.0  0.97674  0.17627  0.74239  1.0000
  S   S943      1.0  0.95223  0.16655  0.81125  1.0000
  H   H5537     1.0  0.80886  0.43108  0.87876  1.0000
  H   H5538     1.0  0.75190  0.45864  0.76073  1.0000
  C   C6907     1.0  0.75998  0.41376  0.74643  1.0000
  C   C6908     1.0  0.81234  0.39444  0.87508  1.0000
  C   C6909     1.0  0.79716  0.39180  0.88918  1.0000
  C   C6910     1.0  0.79978  0.38144  0.90641  1.0000
  C   C6911     1.0  0.81756  0.37379  0.90962  1.0000
  C   C6912     1.0  0.83271  0.37627  0.89544  1.0000
  C   C6913     1.0  0.83009  0.38657  0.87821  1.0000
  H   H5539     1.0  0.78343  0.39791  0.88690  1.0000
  H   H5540     1.0  0.84645  0.37050  0.89781  1.0000
  H   H5541     1.0  0.84186  0.38864  0.86734  1.0000
  H   H5542     1.0  0.74594  0.46684  0.91404  1.0000
  S   S944      1.0  0.88839  0.28801  0.92687  1.0000
  Fe  Fe472     1.0  0.84954  0.34995  0.93532  1.0000
  P   P229      1.0  0.75823  0.26747  0.82768  1.0000
  H   H5543     1.0  0.95154  0.14760  0.75021  1.0000
  C   C6914     1.0  0.85217  0.45641  0.71911  1.0000
  C   C6915     1.0  0.96268  0.12854  0.73223  1.0000
  C   C6916     1.0  0.96554  0.36011  0.93009  1.0000
  C   C6917     1.0  0.96102  0.37443  0.91577  1.0000
  C   C6918     1.0  0.94457  0.37662  0.90983  1.0000
  C   C6919     1.0  0.93253  0.36452  0.91815  1.0000
  C   C6920     1.0  0.93726  0.35004  0.93223  1.0000
  C   C6921     1.0  0.95367  0.34788  0.93816  1.0000
  H   H5544     1.0  0.94106  0.38788  0.89897  1.0000
  H   H5545     1.0  0.92830  0.34052  0.93865  1.0000
  C   C6922     1.0  0.74799  0.17577  0.73038  1.0000
  C   C6923     1.0  0.80423  0.25106  0.79066  1.0000
  S   S945      1.0  0.76173  0.19883  0.78541  1.0000
  C   C6924     1.0  0.98058  0.43039  0.84140  1.0000
  H   H5546     1.0  0.93014  0.09276  0.93465  1.0000
  C   C6925     1.0  0.76730  0.39536  0.75220  1.0000
  C   C6926     1.0  0.96398  0.97937  0.72314  1.0000
  H   H5547     1.0  0.78283  0.09723  0.76051  1.0000
  H   H5548     1.0  0.95802  0.33337  0.87083  1.0000
  Fe  Fe473     1.0  0.74947  0.18962  0.81492  1.0000
  H   H5549     1.0  0.79936  0.45131  0.81244  1.0000
  C   C6927     1.0  0.91696  0.18008  0.86535  1.0000
  C   C6928     1.0  0.93581  0.17280  0.86397  1.0000
  C   C6929     1.0  0.94679  0.16852  0.84747  1.0000
  C   C6930     1.0  0.93899  0.17176  0.83218  1.0000
  C   C6931     1.0  0.92020  0.17931  0.83349  1.0000
  C   C6932     1.0  0.90914  0.18326  0.85008  1.0000
  H   H5550     1.0  0.94192  0.17048  0.87572  1.0000
  H   H5551     1.0  0.96129  0.16289  0.84653  1.0000
  H   H5552     1.0  0.91416  0.18193  0.82167  1.0000
  H   H5553     1.0  0.89462  0.18888  0.85104  1.0000
  C   C6933     1.0  0.84660  0.25987  0.91763  1.0000
  C   C6934     1.0  0.86540  0.25262  0.91353  1.0000
  C   C6935     1.0  0.87810  0.26141  0.91636  1.0000
  C   C6936     1.0  0.87210  0.27762  0.92303  1.0000
  C   C6937     1.0  0.85331  0.28515  0.92661  1.0000
  C   C6938     1.0  0.84059  0.27618  0.92408  1.0000
  H   H5554     1.0  0.87014  0.24009  0.90845  1.0000
  H   H5555     1.0  0.84859  0.29772  0.93159  1.0000
  H   H5556     1.0  0.82605  0.28179  0.92730  1.0000
  C   C6939     1.0  0.81112  0.20497  0.84403  1.0000
  C   C6940     1.0  0.80482  0.20970  0.82758  1.0000
  C   C6941     1.0  0.78977  0.20323  0.82609  1.0000
  C   C6942     1.0  0.78117  0.19167  0.84098  1.0000
  C   C6943     1.0  0.78756  0.18687  0.85739  1.0000
  C   C6944     1.0  0.80243  0.19354  0.85895  1.0000
  H   H5557     1.0  0.81156  0.21846  0.81600  1.0000
  H   H5558     1.0  0.78487  0.20710  0.81344  1.0000
  H   H5559     1.0  0.78095  0.17796  0.86898  1.0000
  H   H5560     1.0  0.80714  0.18980  0.87170  1.0000
  H   H5561     1.0  0.75821  0.27269  0.71781  1.0000
  Fe  Fe474     1.0  0.74722  0.17953  0.77980  1.0000
  H   H5562     1.0  0.83227  0.18174  0.95302  1.0000
  C   C6945     1.0  0.77122  0.38336  0.74029  1.0000
  C   C6946     1.0  0.79749  0.24292  0.78017  1.0000
  H   H5563     1.0  0.89262  0.25557  0.91346  1.0000
  P   P230      1.0  0.94562  0.45206  0.84048  1.0000
  H   H5564     1.0  0.74990  0.43431  0.72494  1.0000
  Fe  Fe475     1.0  0.98029  0.14816  0.81074  1.0000
  H   H5565     1.0  0.95205  0.21197  0.71694  1.0000
  C   C6947     1.0  0.95054  0.19182  0.76160  1.0000
  C   C6948     1.0  0.97103  0.99812  0.82125  1.0000
  C   C6949     1.0  0.81821  0.46972  0.80205  1.0000
  S   S946      1.0  0.76765  0.44877  0.84406  1.0000
  C   C6950     1.0  0.96512  0.01323  0.82971  1.0000
  C   C6951     1.0  0.79609  0.21481  0.95265  1.0000
  H   H5566     1.0  0.73980  0.18624  0.73769  1.0000
  S   S947      1.0  0.74311  0.38412  0.83154  1.0000
  C   C6952     1.0  0.93429  0.00679  0.83872  1.0000
  C   C6953     1.0  0.94666  0.01739  0.83858  1.0000
  C   C6954     1.0  0.76753  0.27360  0.87548  1.0000
  H   H5567     1.0  0.94237  0.19286  0.77511  1.0000
  H   H5568     1.0  0.87699  0.10041  0.92554  1.0000
  H   H5569     1.0  0.78065  0.13713  0.73537  1.0000
  S   S948      1.0  0.86516  0.36339  0.94729  1.0000
  C   C6955     1.0  0.95468  0.05388  0.72023  1.0000
  C   C6956     1.0  0.96008  0.05555  0.80859  1.0000
  C   C6957     1.0  0.95727  0.07250  0.79671  1.0000
  H   H5570     1.0  0.95663  0.15645  0.91996  1.0000
  H   H5571     1.0  0.90703  0.46151  0.83559  1.0000
  H   H5572     1.0  0.86337  0.13325  0.92460  1.0000
  C   C6958     1.0  0.75132  0.29102  0.81702  1.0000
  C   C6959     1.0  0.94558  0.20411  0.74615  1.0000
  H   H5573     1.0  0.89058  0.18673  0.95462  1.0000
  S   S949      1.0  0.77081  0.46490  0.79146  1.0000
  C   C6960     1.0  0.75747  0.11615  0.76687  1.0000
  H   H5574     1.0  0.92145  0.39639  0.87384  1.0000
  S   S950      1.0  0.85312  0.32344  0.95548  1.0000
  H   H5575     1.0  0.74878  0.28723  0.85757  1.0000
  H   H5576     1.0  0.92011  0.00999  0.84569  1.0000
  H   H5577     1.0  0.94188  0.02876  0.84550  1.0000
  H   H5578     1.0  0.90637  0.14154  0.75064  1.0000
  C   C6961     1.0  0.76784  0.38975  0.72258  1.0000
  H   H5579     1.0  0.76204  0.12079  0.77677  1.0000
  C   C6962     1.0  0.75555  0.30744  0.73846  1.0000
  H   H5580     1.0  0.76948  0.39035  0.76607  1.0000
  H   H5581     1.0  0.94935  0.04775  0.81264  1.0000
  H   H5582     1.0  0.94455  0.07754  0.79178  1.0000
  C   C6963     1.0  0.98321  0.34912  0.87824  1.0000
  C   C6964     1.0  0.76150  0.29037  0.73362  1.0000
  H   H5583     1.0  0.98185  0.40930  0.80050  1.0000
  C   C6965     1.0  0.82826  0.42573  0.78776  1.0000
  C   C6966     1.0  0.82210  0.40931  0.79288  1.0000
  C   C6967     1.0  0.81506  0.40371  0.78066  1.0000
  C   C6968     1.0  0.81432  0.41449  0.76325  1.0000
  C   C6969     1.0  0.82070  0.43094  0.75791  1.0000
  C   C6970     1.0  0.82743  0.43660  0.77042  1.0000
  P   P231      1.0  0.81882  0.44524  0.73574  1.0000
  H   H5584     1.0  0.74188  0.10018  0.73061  1.0000
  C   C6971     1.0  0.73938  0.29560  0.80476  1.0000
  C   C6972     1.0  0.78267  0.25014  0.85096  1.0000
  H   H5585     1.0  0.89466  0.44517  0.89407  1.0000
  H   H5586     1.0  0.91021  0.31723  0.90754  1.0000
  H   H5587     1.0  0.95490  0.43218  0.81063  1.0000
  H   H5588     1.0  0.84831  0.23478  0.95174  1.0000
  H   H5589     1.0  0.77268  0.08722  0.73726  1.0000
  C   C6973     1.0  0.96580  0.43611  0.83233  1.0000
  C   C6974     1.0  0.97398  0.15275  0.89399  1.0000
  H   H5590     1.0  0.96011  0.47045  0.80352  1.0000
  H   H5591     1.0  0.83323  0.43029  0.79744  1.0000
  H   H5592     1.0  0.82233  0.40120  0.80654  1.0000
  H   H5593     1.0  0.80984  0.39121  0.78487  1.0000
  H   H5594     1.0  0.80844  0.41018  0.75408  1.0000
  H   H5595     1.0  0.83179  0.44952  0.76707  1.0000
  C   C6975     1.0  0.97700  0.13051  0.75623  1.0000
  C   C6976     1.0  0.77091  0.14804  0.72909  1.0000
  H   H5596     1.0  0.74460  0.45077  0.89034  1.0000
  C   C6977     1.0  0.95487  0.30330  0.91167  1.0000
  H   H5597     1.0  0.78319  0.44100  0.76070  1.0000
  H   H5598     1.0  0.94415  0.01587  0.71484  1.0000
  C   C6978     1.0  0.93584  0.30454  0.91593  1.0000
  H   H5599     1.0  0.78830  0.24052  0.84201  1.0000
  H   H5600     1.0  0.92441  0.33637  0.87924  1.0000
  C   C6979     1.0  0.90666  0.13951  0.76500  1.0000
  C   C6980     1.0  0.92193  0.12487  0.79025  1.0000
  C   C6981     1.0  0.90798  0.13456  0.80180  1.0000
  C   C6982     1.0  0.89313  0.14672  0.79503  1.0000
  C   C6983     1.0  0.89274  0.14930  0.77645  1.0000
  P   P232      1.0  0.87528  0.16004  0.80943  1.0000
  C   C6984     1.0  0.88068  0.18202  0.80711  1.0000
  C   C6985     1.0  0.85378  0.16265  0.80255  1.0000
  C   C6986     1.0  0.84941  0.14769  0.79856  1.0000
  C   C6987     1.0  0.83286  0.14951  0.79315  1.0000
  C   C6988     1.0  0.82058  0.16626  0.79164  1.0000
  C   C6989     1.0  0.82485  0.18120  0.79554  1.0000
  C   C6990     1.0  0.84129  0.17941  0.80115  1.0000
  C   C6991     1.0  0.87212  0.19232  0.82062  1.0000
  C   C6992     1.0  0.87639  0.20920  0.81926  1.0000
  C   C6993     1.0  0.88927  0.21591  0.80441  1.0000
  C   C6994     1.0  0.89781  0.20580  0.79083  1.0000
  C   C6995     1.0  0.89356  0.18889  0.79215  1.0000
  C   C6996     1.0  0.87325  0.14924  0.83332  1.0000
  C   C6997     1.0  0.88684  0.14910  0.84261  1.0000
  C   C6998     1.0  0.88486  0.14208  0.86137  1.0000
  C   C6999     1.0  0.86922  0.13519  0.87104  1.0000
  C   C7000     1.0  0.85557  0.13534  0.86196  1.0000
  C   C7001     1.0  0.85753  0.14235  0.84319  1.0000
  H   H5601     1.0  0.93346  0.11567  0.79542  1.0000
  H   H5602     1.0  0.90891  0.13250  0.81589  1.0000
  H   H5603     1.0  0.88172  0.15895  0.77075  1.0000
  H   H5604     1.0  0.85875  0.13459  0.79971  1.0000
  H   H5605     1.0  0.82950  0.13793  0.79014  1.0000
  H   H5606     1.0  0.80769  0.16764  0.78756  1.0000
  H   H5607     1.0  0.81529  0.19414  0.79438  1.0000
  H   H5608     1.0  0.84405  0.19111  0.80445  1.0000
  H   H5609     1.0  0.86211  0.18733  0.83229  1.0000
  H   H5610     1.0  0.86973  0.21695  0.82986  1.0000
  H   H5611     1.0  0.89273  0.22888  0.80354  1.0000
  H   H5612     1.0  0.90789  0.21094  0.77941  1.0000
  H   H5613     1.0  0.90051  0.18119  0.78161  1.0000
  H   H5614     1.0  0.89882  0.15477  0.83542  1.0000
  H   H5615     1.0  0.89521  0.14245  0.86848  1.0000
  H   H5616     1.0  0.86745  0.13016  0.88564  1.0000
  H   H5617     1.0  0.84323  0.13044  0.86959  1.0000
  H   H5618     1.0  0.84649  0.14277  0.83664  1.0000
  C   C7002     1.0  0.97378  0.03488  0.88867  1.0000
  H   H5619     1.0  0.92946  0.29635  0.92836  1.0000
  C   C7003     1.0  0.76303  0.46269  0.74985  1.0000
  H   H5620     1.0  0.96935  0.00458  0.86587  1.0000
  Fe  Fe476     1.0  0.74103  0.43906  0.85569  1.0000
  Fe  Fe477     1.0  0.87853  0.31529  0.93524  1.0000
  C   C7004     1.0  0.91655  0.44824  0.87040  1.0000
  C   C7005     1.0  0.98149  0.41519  0.81193  1.0000
  C   C7006     1.0  0.80243  0.44505  0.87393  1.0000
  H   H5621     1.0  0.73928  0.41457  0.80101  1.0000
  C   C7007     1.0  0.97007  0.01680  0.72078  1.0000
  C   C7008     1.0  0.96606  0.17796  0.75969  1.0000
  C   C7009     1.0  0.93297  0.32691  0.88810  1.0000
  C   C7010     1.0  0.95202  0.32540  0.88357  1.0000
  C   C7011     1.0  0.75347  0.28601  0.72132  1.0000
  H   H5622     1.0  0.97596  0.00036  0.75673  1.0000
  C   C7012     1.0  0.82265  0.17346  0.96150  1.0000
  H   H5623     1.0  0.94891  0.06827  0.71953  1.0000
  H   H5624     1.0  0.87765  0.21719  0.93803  1.0000
  H   H5625     1.0  0.95723  0.33663  0.94902  1.0000
  C   C7013     1.0  0.95614  0.20243  0.72881  1.0000
  H   H5626     1.0  0.96335  0.97583  0.81497  1.0000
  C   C7014     1.0  0.76044  0.40823  0.71669  1.0000
  C   C7015     1.0  0.94459  0.04255  0.71730  1.0000
  H   H5627     1.0  0.93191  0.11968  0.76295  1.0000
  C   C7016     1.0  0.73429  0.11867  0.74949  1.0000
  H   H5628     1.0  0.77351  0.23622  0.77581  1.0000
  C   C7017     1.0  0.97699  0.11418  0.72773  1.0000
  C   C7018     1.0  0.84475  0.27887  0.84098  1.0000
  C   C7019     1.0  0.83754  0.26396  0.85199  1.0000
  C   C7020     1.0  0.82739  0.26506  0.86955  1.0000
  C   C7021     1.0  0.82395  0.28118  0.87598  1.0000
  C   C7022     1.0  0.83065  0.29641  0.86479  1.0000
  C   C7023     1.0  0.84149  0.29498  0.84741  1.0000
  P   P233      1.0  0.82611  0.31763  0.87245  1.0000
  C   C7024     1.0  0.81258  0.31657  0.89533  1.0000
  C   C7025     1.0  0.84813  0.32233  0.87188  1.0000
  C   C7026     1.0  0.86136  0.30831  0.87935  1.0000
  C   C7027     1.0  0.87826  0.31175  0.87977  1.0000
  C   C7028     1.0  0.88207  0.32918  0.87270  1.0000
  C   C7029     1.0  0.86896  0.34323  0.86530  1.0000
  C   C7030     1.0  0.85203  0.33985  0.86484  1.0000
  C   C7031     1.0  0.81868  0.32137  0.90882  1.0000
  C   C7032     1.0  0.80738  0.32196  0.92602  1.0000
  C   C7033     1.0  0.78988  0.31798  0.92985  1.0000
  C   C7034     1.0  0.78366  0.31329  0.91649  1.0000
  C   C7035     1.0  0.79491  0.31273  0.89923  1.0000
  C   C7036     1.0  0.81257  0.33567  0.85855  1.0000
  C   C7037     1.0  0.80765  0.33273  0.84334  1.0000
  C   C7038     1.0  0.79660  0.34672  0.83319  1.0000
  C   C7039     1.0  0.79021  0.36363  0.83825  1.0000
  C   C7040     1.0  0.79465  0.36652  0.85357  1.0000
  C   C7041     1.0  0.80571  0.35262  0.86374  1.0000
  H   H5629     1.0  0.85301  0.27786  0.82754  1.0000
  H   H5630     1.0  0.84011  0.25139  0.84713  1.0000
  H   H5631     1.0  0.82251  0.25322  0.87840  1.0000
  H   H5632     1.0  0.81646  0.28144  0.88981  1.0000
  H   H5633     1.0  0.84729  0.30641  0.83882  1.0000
  H   H5634     1.0  0.85850  0.29478  0.88521  1.0000
  H   H5635     1.0  0.88821  0.30094  0.88599  1.0000
  H   H5636     1.0  0.89502  0.33189  0.87339  1.0000
  H   H5637     1.0  0.87174  0.35686  0.86024  1.0000
  H   H5638     1.0  0.84207  0.35102  0.85923  1.0000
  H   H5639     1.0  0.83197  0.32502  0.90614  1.0000
  C   C7042     1.0  0.89279  0.39358  0.94991  1.0000
  S   S951      1.0  0.73710  0.16845  0.80965  1.0000
  H   H5640     1.0  0.77003  0.31035  0.91940  1.0000
  H   H5641     1.0  0.78976  0.30955  0.88883  1.0000
  H   H5642     1.0  0.81199  0.31966  0.83938  1.0000
  H   H5643     1.0  0.79276  0.34445  0.82152  1.0000
  H   H5644     1.0  0.78161  0.37445  0.83044  1.0000
  H   H5645     1.0  0.78944  0.37956  0.85763  1.0000
  H   H5646     1.0  0.80886  0.35511  0.87571  1.0000
  H   H5647     1.0  0.76156  0.31068  0.74821  1.0000
  C   C7043     1.0  0.93171  0.42068  0.85896  1.0000
  C   C7044     1.0  0.92007  0.41091  0.87274  1.0000
  C   C7045     1.0  0.90680  0.41971  0.88542  1.0000
  C   C7046     1.0  0.90498  0.43838  0.88421  1.0000
  H   H5648     1.0  0.94199  0.41348  0.84945  1.0000
  C   C7047     1.0  0.81637  0.16210  0.95398  1.0000
  H   H5649     1.0  0.89803  0.41195  0.89624  1.0000
  H   H5650     1.0  0.91621  0.37320  0.95614  1.0000
  H   H5651     1.0  0.80667  0.23713  0.76900  1.0000
  C   C7048     1.0  0.95962  0.14937  0.90879  1.0000
  C   C7049     1.0  0.96711  0.13130  0.87985  1.0000
  C   C7050     1.0  0.95240  0.12812  0.89451  1.0000
  C   C7051     1.0  0.94903  0.13692  0.90919  1.0000
  P   P234      1.0  0.93971  0.11090  0.89595  1.0000
  C   C7052     1.0  0.95091  0.09092  0.90992  1.0000
  C   C7053     1.0  0.91556  0.11793  0.90519  1.0000
  C   C7054     1.0  0.90433  0.10495  0.91257  1.0000
  C   C7055     1.0  0.97670  0.04885  0.81478  1.0000
  H   H5652     1.0  0.98215  0.16244  0.89365  1.0000
  C   C7056     1.0  0.88886  0.14191  0.91121  1.0000
  C   C7057     1.0  0.90756  0.13648  0.90413  1.0000
  C   C7058     1.0  0.96848  0.08185  0.90269  1.0000
  H   H5653     1.0  0.94684  0.06643  0.95366  1.0000
  H   H5654     1.0  0.79924  0.21318  0.93861  1.0000
  C   C7059     1.0  0.83454  0.46071  0.72977  1.0000
  C   C7060     1.0  0.94327  0.08548  0.92847  1.0000
  C   C7061     1.0  0.94077  0.10747  0.87344  1.0000
  C   C7062     1.0  0.93718  0.12261  0.85946  1.0000
  C   C7063     1.0  0.93844  0.12027  0.84181  1.0000
  C   C7064     1.0  0.94292  0.10274  0.83810  1.0000
  C   C7065     1.0  0.94592  0.08756  0.85209  1.0000
  C   C7066     1.0  0.94471  0.08987  0.86975  1.0000
  H   H5655     1.0  0.76151  0.28251  0.88514  1.0000
  H   H5656     1.0  0.97040  0.34991  0.88818  1.0000
  H   H5657     1.0  0.93814  0.13424  0.92091  1.0000
  H   H5658     1.0  0.91006  0.09062  0.91287  1.0000
  H   H5659     1.0  0.78141  0.44622  0.89824  1.0000
  C   C7067     1.0  0.88560  0.11044  0.91965  1.0000
  H   H5660     1.0  0.88285  0.15628  0.91048  1.0000
  H   H5661     1.0  0.91569  0.14683  0.89774  1.0000
  C   C7068     1.0  0.97175  0.18844  0.72679  1.0000
  H   H5662     1.0  0.96976  0.39935  0.94438  1.0000
  H   H5663     1.0  0.97487  0.08625  0.88858  1.0000
  C   C7069     1.0  0.75413  0.32275  0.81055  1.0000
  H   H5664     1.0  0.75686  0.22900  0.83898  1.0000
  H   H5665     1.0  0.93365  0.13625  0.86216  1.0000
  H   H5666     1.0  0.93629  0.13211  0.83096  1.0000
  H   H5667     1.0  0.94428  0.10092  0.82436  1.0000
  H   H5668     1.0  0.94936  0.07398  0.84919  1.0000
  H   H5669     1.0  0.94694  0.07794  0.88041  1.0000
  C   C7070     1.0  0.96267  0.13659  0.74658  1.0000
  S   S952      1.0  0.76235  0.18302  0.83981  1.0000
  C   C7071     1.0  0.93012  0.43943  0.85775  1.0000
  H   H5670     1.0  0.95344  0.44875  0.87653  1.0000
  C   C7072     1.0  0.96965  0.01945  0.88565  1.0000
  C   C7073     1.0  0.97780  0.14363  0.87960  1.0000
  C   C7074     1.0  0.96632  0.42832  0.81759  1.0000
  H   H5671     1.0  0.82048  0.44718  0.84755  1.0000
  C   C7075     1.0  0.79563  0.45822  0.73627  1.0000
  H   H5672     1.0  0.93348  0.21481  0.74759  1.0000
  S   S953      1.0  0.94450  0.13680  0.72042  1.0000
  S   S954      1.0  0.89651  0.32535  0.94778  1.0000
  H   H5673     1.0  0.97095  0.26309  0.80473  1.0000
  C   C7076     1.0  0.80866  0.22037  0.95931  1.0000
  C   C7077     1.0  0.85397  0.22175  0.95949  1.0000
  H   H5674     1.0  0.80059  0.23583  0.86957  1.0000
  C   C7078     1.0  0.74015  0.12410  0.76273  1.0000
  H   H5675     1.0  0.84397  0.41022  0.73210  1.0000
  C   C7079     1.0  0.87790  0.12892  0.91912  1.0000
  C   C7080     1.0  0.97098  0.08285  0.79097  1.0000
  H   H5676     1.0  0.76890  0.30142  0.82823  1.0000
  H   H5677     1.0  0.81218  0.32591  0.93619  1.0000
  C   C7081     1.0  0.78209  0.25910  0.87897  1.0000
  H   H5678     1.0  0.79778  0.26469  0.81316  1.0000
  H   H5679     1.0  0.78741  0.25676  0.89128  1.0000
  C   C7082     1.0  0.76049  0.27634  0.85975  1.0000
  C   C7083     1.0  0.76350  0.09736  0.74453  1.0000
  C   C7084     1.0  0.78958  0.24734  0.86674  1.0000
  H   H5680     1.0  0.97696  0.10778  0.71682  1.0000
  C   C7085     1.0  0.96435  0.39606  0.95893  1.0000
  H   H5681     1.0  0.96302  0.29410  0.92102  1.0000
  Fe  Fe478     1.0  0.73481  0.21858  0.78442  1.0000
  C   C7086     1.0  0.92492  0.31633  0.90416  1.0000
  S   S955      1.0  0.98220  0.11869  0.81098  1.0000
  H   H5682     1.0  0.96540  0.00893  0.89711  1.0000
  C   C7087     1.0  0.98009  0.02832  0.72377  1.0000
  H   H5683     1.0  0.89407  0.39035  0.93675  1.0000
  C   C7088     1.0  0.97808  0.06725  0.91367  1.0000
  H   H5684     1.0  0.75984  0.33332  0.81272  1.0000
  C   C7089     1.0  0.76831  0.26486  0.84715  1.0000
  C   C7090     1.0  0.95281  0.07071  0.93938  1.0000
  C   C7091     1.0  0.95223  0.02412  0.71750  1.0000
  H   H5685     1.0  0.93075  0.98355  0.83033  1.0000
  S   S956      1.0  0.73667  0.43736  0.82858  1.0000
  H   H5686     1.0  0.97002  0.38402  0.90952  1.0000
  C   C7092     1.0  0.77374  0.25730  0.80951  1.0000
  H   H5687     1.0  0.97560  0.29145  0.78198  1.0000
  C   C7093     1.0  0.97190  0.01703  0.86784  1.0000
  H   H5688     1.0  0.96956  0.16835  0.77174  1.0000
  C   C7094     1.0  0.78704  0.45362  0.88495  1.0000
  H   H5689     1.0  0.82128  0.22314  0.95013  1.0000
  C   C7095     1.0  0.96314  0.31371  0.89542  1.0000
  C   C7096     1.0  0.78094  0.45268  0.74980  1.0000
  C   C7097     1.0  0.76921  0.10292  0.75766  1.0000
  H   H5690     1.0  0.91503  0.46268  0.86969  1.0000
  C   C7098     1.0  0.95860  0.98761  0.82134  1.0000
  H   H5691     1.0  0.98032  0.05569  0.72540  1.0000
  C   C7099     1.0  0.86422  0.46850  0.71461  1.0000
  H   H5692     1.0  0.97057  0.12411  0.86870  1.0000
  C   C7100     1.0  0.93472  0.46459  0.82154  1.0000
  C   C7101     1.0  0.97019  0.06158  0.93197  1.0000
  H   H5693     1.0  0.96314  0.46937  0.89017  1.0000
  C   C7102     1.0  0.87061  0.21176  0.95160  1.0000
  H   H5694     1.0  0.78103  0.31883  0.94307  1.0000
  C   C7103     1.0  0.97241  0.04677  0.72349  1.0000
  P   P235      1.0  0.98075  0.99322  0.72007  1.0000
  C   C7104     1.0  0.80911  0.45422  0.85639  1.0000
  H   H5695     1.0  0.97265  0.03636  0.90250  1.0000
  H   H5696     1.0  0.75664  0.42297  0.75580  1.0000
  C   C7105     1.0  0.91566  0.46708  0.82308  1.0000
  C   C7106     1.0  0.76699  0.24948  0.79864  1.0000
  C   C7107     1.0  0.74178  0.32029  0.73076  1.0000
  H   H5697     1.0  0.77208  0.28035  0.73967  1.0000
  C   C7108     1.0  0.73926  0.25583  0.83658  1.0000
  H   H5698     1.0  0.77060  0.20548  0.95926  1.0000
  C   C7109     1.0  0.75898  0.30468  0.81955  1.0000
  C   C7110     1.0  0.74200  0.32720  0.79860  1.0000
  C   C7111     1.0  0.74605  0.10500  0.74060  1.0000
  C   C7112     1.0  0.95496  0.46221  0.86864  1.0000
  H   H5699     1.0  0.97337  0.29991  0.86291  1.0000
  C   C7113     1.0  0.74291  0.23673  0.84136  1.0000
  C   C7114     1.0  0.87854  0.40731  0.95584  1.0000
  C   C7115     1.0  0.90531  0.38384  0.96098  1.0000
  C   C7116     1.0  0.95202  0.46764  0.85065  1.0000
  P   P236      1.0  0.98099  0.02693  0.82992  1.0000
  H   H5700     1.0  0.98310  0.45643  0.77710  1.0000
  H   H5701     1.0  0.79918  0.14239  0.95959  1.0000
  S   S957      1.0  0.73479  0.24725  0.76824  1.0000
  H   H5702     1.0  0.97974  0.37828  0.86981  1.0000
  H   H5703     1.0  0.94059  0.38882  0.95538  1.0000
  C   C7117     1.0  0.73463  0.31365  0.79572  1.0000
  H   H5704     1.0  0.73846  0.34113  0.79142  1.0000
  H   H5705     1.0  0.86869  0.41461  0.94735  1.0000
  C   C7118     1.0  0.97785  0.03031  0.85287  1.0000
  H   H5706     1.0  0.97769  0.05020  0.94041  1.0000
  H   H5707     1.0  0.96893  0.09591  0.78167  1.0000
  H   H5708     1.0  0.73722  0.33359  0.73436  1.0000
  C   C7119     1.0  0.87789  0.19460  0.96096  1.0000
  H   H5709     1.0  0.82157  0.30336  0.96383  1.0000
  H   H5710     1.0  0.93099  0.04820  0.71433  1.0000
  S   S958      1.0  0.94971  0.50618  0.14113  1.0000
  C   C7120     1.0  0.83886  0.70879  0.08923  1.0000
  Fe  Fe479     1.0  0.78246  0.73443  0.06783  1.0000
  S   S959      1.0  0.79731  0.71852  0.04613  1.0000
  S   S960      1.0  0.78491  0.72318  0.09712  1.0000
  Fe  Fe480     1.0  0.76603  0.76607  0.04114  1.0000
  S   S961      1.0  0.77938  0.75263  0.01698  1.0000
  H   H5711     1.0  0.90796  0.52380  0.12891  1.0000
  Fe  Fe481     1.0  0.77114  0.72732  0.03559  1.0000
  Fe  Fe482     1.0  0.80446  0.74492  0.02948  1.0000
  S   S962      1.0  0.83312  0.74452  0.01226  1.0000
  C   C7121     1.0  0.93413  0.51180  0.17590  1.0000
  S   S963      1.0  0.79173  0.76021  0.05213  1.0000
  Fe  Fe483     1.0  0.94607  0.77189  0.98558  1.0000
  S   S964      1.0  0.92606  0.79877  0.98411  1.0000
  C   C7122     1.0  0.81232  0.54875  0.17831  1.0000
  Fe  Fe484     1.0  0.95004  0.77019  0.02403  1.0000
  S   S965      1.0  0.93044  0.79679  0.02595  1.0000
  S   S966      1.0  0.96099  0.75477  0.04925  1.0000
  Fe  Fe485     1.0  0.91309  0.78682  0.01273  1.0000
  S   S967      1.0  0.88292  0.79201  0.02560  1.0000
  Fe  Fe486     1.0  0.94489  0.80668  0.99754  1.0000
  S   S968      1.0  0.95142  0.83482  0.98953  1.0000
  S   S969      1.0  0.93145  0.75928  0.01325  1.0000
  S   S970      1.0  0.96612  0.78087  0.99659  1.0000
  C   C7123     1.0  0.75081  0.73560  0.15781  1.0000
  C   C7124     1.0  0.73736  0.76780  0.15627  1.0000
  H   H5712     1.0  0.78301  0.66317  0.13713  1.0000
  C   C7125     1.0  0.73863  0.72679  0.98516  1.0000
  S   S971      1.0  0.84962  0.95071  0.13100  1.0000
  P   P237      1.0  0.75232  0.71207  0.16965  1.0000
  H   H5713     1.0  0.95064  0.95461  0.08784  1.0000
  S   S972      1.0  0.79775  0.94604  0.13981  1.0000
  Fe  Fe487     1.0  0.97449  0.90770  0.07068  1.0000
  C   C7126     1.0  0.80998  0.78975  0.99608  1.0000
  C   C7127     1.0  0.93442  0.95248  0.13855  1.0000
  H   H5714     1.0  0.83044  0.62471  0.14225  1.0000
  H   H5715     1.0  0.79665  0.92044  0.19723  1.0000
  S   S973      1.0  0.75085  0.88127  0.07400  1.0000
  H   H5716     1.0  0.94243  0.94149  0.14675  1.0000
  H   H5717     1.0  0.81811  0.65174  0.12040  1.0000
  H   H5718     1.0  0.81092  0.64805  0.09251  1.0000
  H   H5719     1.0  0.94556  0.70637  0.07466  1.0000
  C   C7128     1.0  0.96542  0.71657  0.10442  1.0000
  Fe  Fe488     1.0  0.76005  0.89542  0.09117  1.0000
  S   S974      1.0  0.78587  0.90698  0.08201  1.0000
  C   C7129     1.0  0.95244  0.71758  0.09421  1.0000
  S   S975      1.0  0.75438  0.87464  0.11685  1.0000
  H   H5720     1.0  0.93234  0.49784  0.17930  1.0000
  C   C7130     1.0  0.74862  0.82160  0.08502  1.0000
  C   C7131     1.0  0.83625  0.47583  0.10760  1.0000
  C   C7132     1.0  0.86634  0.48090  0.09081  1.0000
  H   H5721     1.0  0.88726  0.49077  0.19075  1.0000
  C   C7133     1.0  0.79435  0.93574  0.12340  1.0000
  C   C7134     1.0  0.80540  0.93727  0.10590  1.0000
  C   C7135     1.0  0.80262  0.92851  0.09323  1.0000
  C   C7136     1.0  0.78886  0.91819  0.09798  1.0000
  C   C7137     1.0  0.77758  0.91701  0.11537  1.0000
  C   C7138     1.0  0.78036  0.92572  0.12805  1.0000
  H   H5722     1.0  0.81613  0.94509  0.10218  1.0000
  H   H5723     1.0  0.81106  0.92984  0.07972  1.0000
  H   H5724     1.0  0.76679  0.90926  0.11913  1.0000
  H   H5725     1.0  0.77170  0.92461  0.14154  1.0000
  H   H5726     1.0  0.85397  0.49892  0.12897  1.0000
  H   H5727     1.0  0.77223  0.72947  0.13462  1.0000
  C   C7139     1.0  0.76241  0.74005  0.14081  1.0000
  H   H5728     1.0  0.84252  0.88459  0.00053  1.0000
  C   C7140     1.0  0.97395  0.83018  0.03291  1.0000
  H   H5729     1.0  0.73867  0.94983  0.06757  1.0000
  C   C7141     1.0  0.86013  0.62572  0.18389  1.0000
  H   H5730     1.0  0.74088  0.60839  0.98422  1.0000
  C   C7142     1.0  0.88680  0.53634  0.16946  1.0000
  H   H5731     1.0  0.78295  0.48923  0.06124  1.0000
  C   C7143     1.0  0.92801  0.52256  0.18922  1.0000
  C   C7144     1.0  0.75400  0.79436  0.07249  1.0000
  C   C7145     1.0  0.75385  0.80265  0.08674  1.0000
  C   C7146     1.0  0.83547  0.94258  0.21381  1.0000
  C   C7147     1.0  0.97737  0.67754  0.02883  1.0000
  H   H5732     1.0  0.83972  0.56136  0.20203  1.0000
  H   H5733     1.0  0.75797  0.77972  0.07409  1.0000
  C   C7148     1.0  0.75297  0.63308  0.01626  1.0000
  H   H5734     1.0  0.74872  0.49136  0.11325  1.0000
  C   C7149     1.0  0.95592  0.70578  0.08215  1.0000
  C   C7150     1.0  0.84721  0.75700  0.01677  1.0000
  C   C7151     1.0  0.86489  0.75716  0.00600  1.0000
  C   C7152     1.0  0.87609  0.76768  0.00876  1.0000
  C   C7153     1.0  0.86962  0.77806  0.02232  1.0000
  C   C7154     1.0  0.85206  0.77771  0.03325  1.0000
  C   C7155     1.0  0.84093  0.76715  0.03053  1.0000
  H   H5735     1.0  0.86983  0.74934  0.99533  1.0000
  H   H5736     1.0  0.88961  0.76795  0.00023  1.0000
  H   H5737     1.0  0.84701  0.78565  0.04381  1.0000
  H   H5738     1.0  0.82739  0.76713  0.03889  1.0000
  H   H5739     1.0  0.91847  0.92733  0.11839  1.0000
  C   C7156     1.0  0.78076  0.70096  0.10311  1.0000
  C   C7157     1.0  0.78413  0.68957  0.11964  1.0000
  C   C7158     1.0  0.76130  0.59328  0.08906  1.0000
  H   H5740     1.0  0.78948  0.69446  0.12876  1.0000
  C   C7159     1.0  0.96143  0.83976  0.00540  1.0000
  H   H5741     1.0  0.78204  0.48386  0.10071  1.0000
  C   C7160     1.0  0.75125  0.69197  0.00414  1.0000
  S   S976      1.0  0.96538  0.62092  0.15132  1.0000
  C   C7161     1.0  0.94245  0.51918  0.15821  1.0000
  C   C7162     1.0  0.94489  0.53726  0.15396  1.0000
  H   H5742     1.0  0.95136  0.54297  0.14029  1.0000
  C   C7163     1.0  0.80712  0.67043  0.03683  1.0000
  C   C7164     1.0  0.97608  0.77853  0.10488  1.0000
  C   C7165     1.0  0.89954  0.94517  0.10211  1.0000
  C   C7166     1.0  0.91618  0.93320  0.10469  1.0000
  H   H5743     1.0  0.78038  0.67616  0.05380  1.0000
  H   H5744     1.0  0.88916  0.94844  0.11380  1.0000
  C   C7167     1.0  0.82845  0.48087  0.16190  1.0000
  H   H5745     1.0  0.96630  0.71592  0.04651  1.0000
  C   C7168     1.0  0.77416  0.47319  0.10536  1.0000
  C   C7169     1.0  0.97436  0.96289  0.09117  1.0000
  C   C7170     1.0  0.88486  0.51359  0.14729  1.0000
  C   C7171     1.0  0.79206  0.53790  0.14273  1.0000
  C   C7172     1.0  0.89871  0.53618  0.15250  1.0000
  H   H5746     1.0  0.75781  0.86273  0.18159  1.0000
  C   C7173     1.0  0.79342  0.79697  0.00667  1.0000
  H   H5747     1.0  0.75620  0.67846  0.01142  1.0000
  C   C7174     1.0  0.74881  0.77207  0.13926  1.0000
  P   P238      1.0  0.96774  0.95932  0.11582  1.0000
  C   C7175     1.0  0.78258  0.52804  0.11984  1.0000
  C   C7176     1.0  0.74870  0.80495  0.05643  1.0000
  C   C7177     1.0  0.90451  0.96984  0.13357  1.0000
  C   C7178     1.0  0.75331  0.70726  0.00951  1.0000
  C   C7179     1.0  0.96032  0.65462  0.09576  1.0000
  H   H5748     1.0  0.73532  0.54987  0.00454  1.0000
  C   C7180     1.0  0.77038  0.67697  0.09601  1.0000
  C   C7181     1.0  0.81679  0.96504  0.05109  1.0000
  C   C7182     1.0  0.79450  0.51122  0.12323  1.0000
  C   C7183     1.0  0.98317  0.49069  0.17905  1.0000
  H   H5749     1.0  0.96275  0.72555  0.11389  1.0000
  H   H5750     1.0  0.74693  0.67354  0.06204  1.0000
  H   H5751     1.0  0.90864  0.94757  0.15616  1.0000
  C   C7184     1.0  0.75964  0.87176  0.18939  1.0000
  H   H5752     1.0  0.80438  0.94913  0.17770  1.0000
  S   S977      1.0  0.92457  0.63393  0.19426  1.0000
  H   H5753     1.0  0.82775  0.67777  0.16585  1.0000
  C   C7185     1.0  0.97148  0.70475  0.00567  1.0000
  C   C7186     1.0  0.79927  0.53888  0.18948  1.0000
  H   H5754     1.0  0.74799  0.78615  0.13209  1.0000
  H   H5755     1.0  0.98315  0.73946  0.07588  1.0000
  C   C7187     1.0  0.76129  0.75817  0.13151  1.0000
  H   H5756     1.0  0.87775  0.47900  0.07944  1.0000
  C   C7188     1.0  0.84139  0.63303  0.18433  1.0000
  C   C7189     1.0  0.75584  0.94921  0.20849  1.0000
  C   C7190     1.0  0.97275  0.69341  0.07964  1.0000
  C   C7191     1.0  0.85066  0.47403  0.09255  1.0000
  H   H5757     1.0  0.90798  0.95485  0.05577  1.0000
  H   H5758     1.0  0.80829  0.56055  0.16806  1.0000
  H   H5759     1.0  0.92016  0.93094  0.99349  1.0000
  H   H5760     1.0  0.78123  0.79162  0.00828  1.0000
  H   H5761     1.0  0.98413  0.78197  0.02655  1.0000
  C   C7192     1.0  0.74450  0.47471  0.06156  1.0000
  C   C7193     1.0  0.97924  0.76004  0.11309  1.0000
  H   H5762     1.0  0.77410  0.53069  0.10981  1.0000
  C   C7194     1.0  0.78931  0.71129  0.16781  1.0000
  C   C7195     1.0  0.94911  0.86131  0.08816  1.0000
  H   H5763     1.0  0.79428  0.51633  0.21160  1.0000
  H   H5764     1.0  0.96264  0.86374  0.08124  1.0000
  C   C7196     1.0  0.90965  0.76307  0.06460  1.0000
  C   C7197     1.0  0.89341  0.77566  0.06852  1.0000
  C   C7198     1.0  0.87649  0.77032  0.07271  1.0000
  C   C7199     1.0  0.87579  0.75236  0.07297  1.0000
  C   C7200     1.0  0.89209  0.73964  0.06896  1.0000
  C   C7201     1.0  0.90904  0.74516  0.06467  1.0000
  P   P239      1.0  0.89154  0.71660  0.06841  1.0000
  C   C7202     1.0  0.90007  0.70038  0.08726  1.0000
  C   C7203     1.0  0.86818  0.71451  0.07025  1.0000
  C   C7204     1.0  0.85676  0.71103  0.08757  1.0000
  C   C7205     1.0  0.83223  0.71005  0.07364  1.0000
  C   C7206     1.0  0.84331  0.71395  0.05637  1.0000
  C   C7207     1.0  0.86118  0.71627  0.05463  1.0000
  C   C7208     1.0  0.89696  0.68251  0.09150  1.0000
  C   C7209     1.0  0.90292  0.66999  0.10639  1.0000
  C   C7210     1.0  0.91220  0.67513  0.11707  1.0000
  C   C7211     1.0  0.91529  0.69287  0.11301  1.0000
  C   C7212     1.0  0.90906  0.70553  0.09830  1.0000
  C   C7213     1.0  0.90511  0.71215  0.04663  1.0000
  C   C7214     1.0  0.91682  0.69523  0.04512  1.0000
  C   C7215     1.0  0.92688  0.69201  0.02802  1.0000
  C   C7216     1.0  0.92536  0.70563  0.01238  1.0000
  C   C7217     1.0  0.91382  0.72250  0.01381  1.0000
  C   C7218     1.0  0.90384  0.72580  0.03087  1.0000
  H   H5765     1.0  0.92270  0.76735  0.06097  1.0000
  H   H5766     1.0  0.89395  0.78969  0.06763  1.0000
  H   H5767     1.0  0.86387  0.78025  0.07508  1.0000
  H   H5768     1.0  0.86250  0.74869  0.07577  1.0000
  H   H5769     1.0  0.92179  0.73576  0.06103  1.0000
  H   H5770     1.0  0.86167  0.71003  0.09982  1.0000
  H   H5771     1.0  0.83802  0.71529  0.04425  1.0000
  H   H5772     1.0  0.86931  0.71945  0.04105  1.0000
  H   H5773     1.0  0.88972  0.67833  0.08339  1.0000
  H   H5774     1.0  0.90030  0.65629  0.10974  1.0000
  H   H5775     1.0  0.91690  0.66537  0.12858  1.0000
  H   H5776     1.0  0.92243  0.69681  0.12138  1.0000
  H   H5777     1.0  0.91117  0.71930  0.09575  1.0000
  H   H5778     1.0  0.91820  0.68451  0.05701  1.0000
  H   H5779     1.0  0.93589  0.67897  0.02682  1.0000
  H   H5780     1.0  0.93319  0.70321  0.99914  1.0000
  H   H5781     1.0  0.91271  0.73312  0.00170  1.0000
  H   H5782     1.0  0.89500  0.73901  0.03173  1.0000
  H   H5783     1.0  0.77160  0.87952  0.98236  1.0000
  C   C7219     1.0  0.92204  0.85026  0.08865  1.0000
  C   C7220     1.0  0.91425  0.85457  0.10593  1.0000
  P   P240      1.0  0.91030  0.83987  0.07775  1.0000
  C   C7221     1.0  0.88584  0.84274  0.08672  1.0000
  C   C7222     1.0  0.91278  0.84995  0.05371  1.0000
  C   C7223     1.0  0.91806  0.86690  0.04666  1.0000
  C   C7224     1.0  0.92076  0.87402  0.02790  1.0000
  C   C7225     1.0  0.91786  0.86449  0.01609  1.0000
  C   C7226     1.0  0.91215  0.84787  0.02304  1.0000
  C   C7227     1.0  0.90958  0.84062  0.04177  1.0000
  C   C7228     1.0  0.87638  0.82915  0.08738  1.0000
  C   C7229     1.0  0.85740  0.83153  0.09406  1.0000
  C   C7230     1.0  0.84768  0.84762  0.09985  1.0000
  C   C7231     1.0  0.85690  0.86144  0.09866  1.0000
  C   C7232     1.0  0.87586  0.85910  0.09194  1.0000
  C   C7233     1.0  0.92167  0.81624  0.08057  1.0000
  C   C7234     1.0  0.93701  0.81065  0.06747  1.0000
  C   C7235     1.0  0.94634  0.79254  0.06974  1.0000
  C   C7236     1.0  0.94046  0.77981  0.08512  1.0000
  C   C7237     1.0  0.92542  0.78533  0.09847  1.0000
  C   C7238     1.0  0.91617  0.80355  0.09634  1.0000
  C   C7239     1.0  0.98072  0.93157  0.14326  1.0000
  H   H5784     1.0  0.90105  0.85156  0.11334  1.0000
  H   H5785     1.0  0.92040  0.87457  0.05548  1.0000
  H   H5786     1.0  0.92562  0.88670  0.02245  1.0000
  H   H5787     1.0  0.92073  0.86961  0.00146  1.0000
  H   H5788     1.0  0.91054  0.84023  0.01375  1.0000
  H   H5789     1.0  0.90556  0.82751  0.04686  1.0000
  H   H5790     1.0  0.88359  0.81679  0.08258  1.0000
  H   H5791     1.0  0.85016  0.82099  0.09460  1.0000
  H   H5792     1.0  0.83295  0.84955  0.10491  1.0000
  H   H5793     1.0  0.84928  0.87409  0.10273  1.0000
  H   H5794     1.0  0.88268  0.87011  0.09074  1.0000
  H   H5795     1.0  0.94186  0.82028  0.05549  1.0000
  H   H5796     1.0  0.95811  0.78840  0.05945  1.0000
  H   H5797     1.0  0.94770  0.76572  0.08663  1.0000
  H   H5798     1.0  0.92101  0.77550  0.11052  1.0000
  H   H5799     1.0  0.90482  0.80774  0.10698  1.0000
  P   P241      1.0  0.81955  0.48526  0.14135  1.0000
  C   C7240     1.0  0.77444  0.48022  0.06068  1.0000
  C   C7241     1.0  0.76880  0.93278  0.20840  1.0000
  C   C7242     1.0  0.84412  0.94780  0.06227  1.0000
  C   C7243     1.0  0.84493  0.93393  0.05321  1.0000
  C   C7244     1.0  0.83212  0.93626  0.04225  1.0000
  P   P242      1.0  0.86310  0.91400  0.05447  1.0000
  C   C7245     1.0  0.88107  0.91925  0.03498  1.0000
  C   C7246     1.0  0.87101  0.90988  0.07555  1.0000
  C   C7247     1.0  0.88986  0.90522  0.07583  1.0000
  C   C7248     1.0  0.89577  0.90294  0.09209  1.0000
  C   C7249     1.0  0.88296  0.90507  0.10820  1.0000
  C   C7250     1.0  0.86418  0.90912  0.10816  1.0000
  C   C7251     1.0  0.85820  0.91139  0.09193  1.0000
  C   C7252     1.0  0.88369  0.91236  0.01915  1.0000
  C   C7253     1.0  0.89781  0.91651  0.00427  1.0000
  C   C7254     1.0  0.90916  0.92779  0.00497  1.0000
  C   C7255     1.0  0.90617  0.93524  0.02041  1.0000
  C   C7256     1.0  0.89202  0.93121  0.03524  1.0000
  C   C7257     1.0  0.85483  0.89388  0.05510  1.0000
  C   C7258     1.0  0.83627  0.89293  0.06208  1.0000
  C   C7259     1.0  0.82993  0.87735  0.06255  1.0000
  C   C7260     1.0  0.84217  0.86239  0.05650  1.0000
  C   C7261     1.0  0.86079  0.86295  0.05021  1.0000
  C   C7262     1.0  0.86710  0.87861  0.04953  1.0000
  H   H5800     1.0  0.96162  0.86766  0.99161  1.0000
  C   C7263     1.0  0.74173  0.70549  0.14000  1.0000
  H   H5801     1.0  0.77968  0.48489  0.14961  1.0000
  H   H5802     1.0  0.85432  0.94679  0.07012  1.0000
  H   H5803     1.0  0.83288  0.92605  0.03460  1.0000
  H   H5804     1.0  0.90008  0.90363  0.06354  1.0000
  H   H5805     1.0  0.91035  0.90004  0.09208  1.0000
  H   H5806     1.0  0.88761  0.90394  0.12064  1.0000
  H   H5807     1.0  0.85422  0.91101  0.12061  1.0000
  H   H5808     1.0  0.84360  0.91479  0.09209  1.0000
  H   H5809     1.0  0.87482  0.90392  0.01817  1.0000
  H   H5810     1.0  0.89996  0.91101  0.99214  1.0000
  S   S978      1.0  0.74014  0.64548  0.20377  1.0000
  C   C7264     1.0  0.86277  0.54013  0.20914  1.0000
  H   H5811     1.0  0.88966  0.93737  0.04699  1.0000
  H   H5812     1.0  0.82659  0.90413  0.06728  1.0000
  H   H5813     1.0  0.81551  0.87691  0.06783  1.0000
  H   H5814     1.0  0.83732  0.85026  0.05696  1.0000
  H   H5815     1.0  0.87035  0.85118  0.04596  1.0000
  H   H5816     1.0  0.88154  0.87877  0.04476  1.0000
  C   C7265     1.0  0.82365  0.65783  0.03419  1.0000
  C   C7266     1.0  0.83050  0.54381  0.18066  1.0000
  H   H5817     1.0  0.77006  0.76136  0.11822  1.0000
  H   H5818     1.0  0.83652  0.93408  0.20426  1.0000
  H   H5819     1.0  0.98247  0.67209  0.16600  1.0000
  C   C7267     1.0  0.74268  0.96156  0.06957  1.0000
  C   C7268     1.0  0.73932  0.56556  0.15402  1.0000
  C   C7269     1.0  0.96121  0.66173  0.07700  1.0000
  C   C7270     1.0  0.95063  0.65617  0.06781  1.0000
  C   C7271     1.0  0.93965  0.64339  0.07717  1.0000
  C   C7272     1.0  0.93921  0.63607  0.09573  1.0000
  C   C7273     1.0  0.94948  0.64176  0.10502  1.0000
  H   H5820     1.0  0.73964  0.84684  0.06738  1.0000
  C   C7274     1.0  0.78745  0.47131  0.14865  1.0000
  C   C7275     1.0  0.73526  0.62940  0.01968  1.0000
  C   C7276     1.0  0.75556  0.48649  0.06175  1.0000
  C   C7277     1.0  0.85289  0.49196  0.11889  1.0000
  C   C7278     1.0  0.73613  0.71153  0.98005  1.0000
  H   H5821     1.0  0.76928  0.89104  0.16563  1.0000
  C   C7279     1.0  0.87969  0.48815  0.20464  1.0000
  C   C7280     1.0  0.96766  0.71540  0.01880  1.0000
  C   C7281     1.0  0.76046  0.96550  0.19763  1.0000
  C   C7282     1.0  0.78642  0.93295  0.19745  1.0000
  C   C7283     1.0  0.75523  0.47749  0.11221  1.0000
  H   H5822     1.0  0.81785  0.71075  0.16636  1.0000
  H   H5823     1.0  0.91734  0.86682  0.12690  1.0000
  H   H5824     1.0  0.95090  0.66151  0.05346  1.0000
  H   H5825     1.0  0.93162  0.63901  0.07002  1.0000
  H   H5826     1.0  0.93091  0.62600  0.10298  1.0000
  H   H5827     1.0  0.94914  0.63611  0.11943  1.0000
  C   C7284     1.0  0.73650  0.54895  0.15206  1.0000
  H   H5828     1.0  0.94665  0.84895  0.06731  1.0000
  C   C7285     1.0  0.92356  0.86298  0.11384  1.0000
  H   H5829     1.0  0.74948  0.50053  0.06264  1.0000
  C   C7286     1.0  0.97634  0.68580  0.01069  1.0000
  H   H5830     1.0  0.96440  0.73011  0.01481  1.0000
  H   H5831     1.0  0.80213  0.49019  0.17850  1.0000
  H   H5832     1.0  0.76919  0.94657  0.07456  1.0000
  C   C7287     1.0  0.74350  0.83224  0.06888  1.0000
  Fe  Fe489     1.0  0.81980  0.96280  0.13138  1.0000
  C   C7288     1.0  0.98086  0.52246  0.17893  1.0000
  C   C7289     1.0  0.77363  0.66552  0.11251  1.0000
  H   H5833     1.0  0.75239  0.77819  0.99419  1.0000
  C   C7290     1.0  0.74093  0.66157  0.06496  1.0000
  H   H5834     1.0  0.94049  0.56202  0.16394  1.0000
  C   C7291     1.0  0.76954  0.59278  0.10340  1.0000
  H   H5835     1.0  0.97966  0.67757  0.00041  1.0000
  H   H5836     1.0  0.83000  0.70612  0.10255  1.0000
  H   H5837     1.0  0.76351  0.58722  0.11729  1.0000
  C   C7292     1.0  0.96499  0.85721  0.00318  1.0000
  H   H5838     1.0  0.96429  0.64790  0.17235  1.0000
  H   H5839     1.0  0.97753  0.81964  0.04435  1.0000
  H   H5840     1.0  0.79532  0.50100  0.11555  1.0000
  H   H5841     1.0  0.79297  0.80853  0.10266  1.0000
  C   C7293     1.0  0.85120  0.55737  0.20885  1.0000
  H   H5842     1.0  0.97840  0.92546  0.10183  1.0000
  H   H5843     1.0  0.77204  0.61509  0.97820  1.0000
  H   H5844     1.0  0.93977  0.72758  0.09557  1.0000
  H   H5845     1.0  0.79451  0.84102  0.09028  1.0000
  H   H5846     1.0  0.96832  0.65872  0.10320  1.0000
  C   C7294     1.0  0.79303  0.66625  0.05162  1.0000
  C   C7295     1.0  0.82606  0.64102  0.04635  1.0000
  C   C7296     1.0  0.81183  0.63670  0.06115  1.0000
  C   C7297     1.0  0.79531  0.64944  0.06368  1.0000
  P   P243      1.0  0.81454  0.61539  0.07738  1.0000
  C   C7298     1.0  0.79348  0.60708  0.08208  1.0000
  C   C7299     1.0  0.83361  0.59893  0.06819  1.0000
  C   C7300     1.0  0.85164  0.60006  0.06800  1.0000
  C   C7301     1.0  0.86654  0.58712  0.06147  1.0000
  C   C7302     1.0  0.86356  0.57294  0.05512  1.0000
  C   C7303     1.0  0.84568  0.57169  0.05528  1.0000
  C   C7304     1.0  0.83074  0.58460  0.06180  1.0000
  C   C7305     1.0  0.78555  0.59961  0.09994  1.0000
  C   C7306     1.0  0.76892  0.60100  0.07121  1.0000
  C   C7307     1.0  0.78490  0.60797  0.06772  1.0000
  C   C7308     1.0  0.81941  0.61858  0.09796  1.0000
  C   C7309     1.0  0.81657  0.63606  0.10162  1.0000
  H   H5847     1.0  0.80118  0.85258  0.05694  1.0000
  C   C7310     1.0  0.82755  0.62304  0.12982  1.0000
  C   C7311     1.0  0.83053  0.60563  0.12622  1.0000
  C   C7312     1.0  0.82648  0.60337  0.11037  1.0000
  H   H5848     1.0  0.83898  0.63152  0.04409  1.0000
  H   H5849     1.0  0.78428  0.64642  0.07517  1.0000
  H   H5850     1.0  0.85416  0.61089  0.07302  1.0000
  H   H5851     1.0  0.88040  0.58801  0.06146  1.0000
  H   H5852     1.0  0.87511  0.56285  0.05017  1.0000
  H   H5853     1.0  0.84337  0.56060  0.05049  1.0000
  H   H5854     1.0  0.81704  0.58316  0.06200  1.0000
  H   H5855     1.0  0.79154  0.59920  0.11128  1.0000
  H   H5856     1.0  0.74890  0.58788  0.09185  1.0000
  H   H5857     1.0  0.79065  0.61392  0.05384  1.0000
  H   H5858     1.0  0.76239  0.60165  0.06012  1.0000
  H   H5859     1.0  0.83572  0.59386  0.13592  1.0000
  H   H5860     1.0  0.82866  0.58975  0.10792  1.0000
  C   C7313     1.0  0.79258  0.81087  0.01554  1.0000
  S   S979      1.0  0.92203  0.55372  0.20193  1.0000
  C   C7314     1.0  0.76793  0.89963  0.19048  1.0000
  H   H5861     1.0  0.97792  0.94194  0.15128  1.0000
  C   C7315     1.0  0.80830  0.81783  0.01378  1.0000
  C   C7316     1.0  0.82484  0.81079  0.00276  1.0000
  P   P244      1.0  0.80661  0.83552  0.02591  1.0000
  C   C7317     1.0  0.82724  0.84485  0.01953  1.0000
  C   C7318     1.0  0.78706  0.85273  0.02000  1.0000
  C   C7319     1.0  0.78682  0.86054  0.00155  1.0000
  C   C7320     1.0  0.77164  0.87350  0.99661  1.0000
  C   C7321     1.0  0.75648  0.87858  0.01003  1.0000
  C   C7322     1.0  0.97701  0.50074  0.20774  1.0000
  C   C7323     1.0  0.77163  0.85770  0.03337  1.0000
  C   C7324     1.0  0.84403  0.83348  0.02256  1.0000
  C   C7325     1.0  0.86023  0.84030  0.01692  1.0000
  C   C7326     1.0  0.85973  0.85867  0.00881  1.0000
  C   C7327     1.0  0.84295  0.87028  0.00655  1.0000
  C   C7328     1.0  0.82675  0.86344  0.01191  1.0000
  C   C7329     1.0  0.80338  0.82653  0.05017  1.0000
  C   C7330     1.0  0.80294  0.80802  0.05731  1.0000
  C   C7331     1.0  0.79951  0.80151  0.07618  1.0000
  C   C7332     1.0  0.79650  0.81340  0.08804  1.0000
  C   C7333     1.0  0.79735  0.83173  0.08104  1.0000
  C   C7334     1.0  0.80098  0.83825  0.06217  1.0000
  H   H5862     1.0  0.97091  0.71129  0.99158  1.0000
  S   S980      1.0  0.94902  0.59164  0.20069  1.0000
  H   H5863     1.0  0.74895  0.73647  0.00377  1.0000
  C   C7335     1.0  0.97785  0.51858  0.19799  1.0000
  H   H5864     1.0  0.83722  0.81580  0.00089  1.0000
  H   H5865     1.0  0.79839  0.85652  0.99100  1.0000
  Fe  Fe490     1.0  0.92514  0.58295  0.19595  1.0000
  C   C7336     1.0  0.80445  0.52397  0.20300  1.0000
  C   C7337     1.0  0.75644  0.87062  0.02838  1.0000
  H   H5866     1.0  0.80779  0.95318  0.03335  1.0000
  H   H5867     1.0  0.84472  0.81919  0.02884  1.0000
  H   H5868     1.0  0.87323  0.83126  0.01873  1.0000
  H   H5869     1.0  0.87233  0.86388  0.00442  1.0000
  H   H5870     1.0  0.74471  0.88863  0.00627  1.0000
  H   H5871     1.0  0.81395  0.87273  0.01007  1.0000
  H   H5872     1.0  0.80491  0.79857  0.04845  1.0000
  H   H5873     1.0  0.79857  0.78735  0.08159  1.0000
  H   H5874     1.0  0.83855  0.79088  0.98608  1.0000
  C   C7338     1.0  0.97325  0.68816  0.04220  1.0000
  Fe  Fe491     1.0  0.94376  0.61477  0.17683  1.0000
  C   C7339     1.0  0.93873  0.54804  0.16729  1.0000
  C   C7340     1.0  0.98085  0.92233  0.11555  1.0000
  C   C7341     1.0  0.91019  0.94870  0.06944  1.0000
  H   H5875     1.0  0.74458  0.87440  0.03877  1.0000
  C   C7342     1.0  0.77391  0.69460  0.09131  1.0000
  H   H5876     1.0  0.81843  0.70815  0.07499  1.0000
  S   S981      1.0  0.92119  0.60455  0.17105  1.0000
  C   C7343     1.0  0.76622  0.62781  0.00140  1.0000
  H   H5877     1.0  0.98177  0.66289  0.03238  1.0000
  C   C7344     1.0  0.92984  0.92884  0.08968  1.0000
  S   S982      1.0  0.95027  0.91336  0.09370  1.0000
  C   C7345     1.0  0.92687  0.93669  0.07201  1.0000
  C   C7346     1.0  0.78191  0.68243  0.16858  1.0000
  C   C7347     1.0  0.74729  0.72467  0.99977  1.0000
  C   C7348     1.0  0.96581  0.82633  0.02037  1.0000
  H   H5878     1.0  0.98071  0.53638  0.17151  1.0000
  H   H5879     1.0  0.96308  0.81291  0.02219  1.0000
  C   C7349     1.0  0.82262  0.51911  0.20554  1.0000
  C   C7350     1.0  0.93022  0.54070  0.18491  1.0000
  H   H5880     1.0  0.94799  0.87346  0.11069  1.0000
  S   S983      1.0  0.95848  0.75451  0.96429  1.0000
  S   S984      1.0  0.74839  0.83137  0.10344  1.0000
  C   C7351     1.0  0.75109  0.70829  0.20694  1.0000
  C   C7352     1.0  0.82063  0.63824  0.11751  1.0000
  C   C7353     1.0  0.96317  0.95950  0.08105  1.0000
  C   C7354     1.0  0.74278  0.69408  0.98938  1.0000
  H   H5881     1.0  0.93738  0.93349  0.06036  1.0000
  C   C7355     1.0  0.78046  0.67187  0.12439  1.0000
  S   S985      1.0  0.78535  0.59771  0.14979  1.0000
  H   H5882     1.0  0.80518  0.68351  0.02748  1.0000
  H   H5883     1.0  0.80480  0.65973  0.16727  1.0000
  C   C7356     1.0  0.87252  0.51411  0.16399  1.0000
  H   H5884     1.0  0.81555  0.62819  0.18221  1.0000
  H   H5885     1.0  0.96321  0.78741  0.10930  1.0000
  C   C7357     1.0  0.78131  0.54132  0.12965  1.0000
  C   C7358     1.0  0.77626  0.70120  0.16829  1.0000
  C   C7359     1.0  0.82564  0.79674  0.99404  1.0000
  H   H5886     1.0  0.83459  0.66118  0.02275  1.0000
  H   H5887     1.0  0.88453  0.50434  0.13896  1.0000
  S   S986      1.0  0.74872  0.79456  0.03853  1.0000
  C   C7360     1.0  0.93988  0.85298  0.08022  1.0000
  Fe  Fe492     1.0  0.79421  0.60367  0.17277  1.0000
  Fe  Fe493     1.0  0.94438  0.47757  0.14977  1.0000
  H   H5888     1.0  0.86254  0.50537  0.16834  1.0000
  H   H5889     1.0  0.86183  0.58425  0.17532  1.0000
  C   C7361     1.0  0.98205  0.70411  0.10221  1.0000
  C   C7362     1.0  0.80782  0.70287  0.16692  1.0000
  S   S987      1.0  0.97259  0.90587  0.04278  1.0000
  C   C7363     1.0  0.86739  0.49000  0.10390  1.0000
  H   H5890     1.0  0.81235  0.51878  0.15623  1.0000
  Fe  Fe494     1.0  0.90249  0.62186  0.19025  1.0000
  Fe  Fe495     1.0  0.76012  0.59178  0.17023  1.0000
  S   S988      1.0  0.82338  0.59130  0.17597  1.0000
  P   P245      1.0  0.85918  0.52386  0.19786  1.0000
  C   C7364     1.0  0.85605  0.59786  0.17785  1.0000
  H   H5891     1.0  0.79084  0.54830  0.15033  1.0000
  C   C7365     1.0  0.94088  0.86659  0.10481  1.0000
  C   C7366     1.0  0.97764  0.63845  0.14744  1.0000
  Fe  Fe496     1.0  0.77046  0.62682  0.14589  1.0000
  Fe  Fe497     1.0  0.74266  0.86202  0.10021  1.0000
  H   H5892     1.0  0.97595  0.52960  0.20495  1.0000
  S   S989      1.0  0.75559  0.74139  0.05875  1.0000
  C   C7367     1.0  0.74098  0.71071  0.19338  1.0000
  C   C7368     1.0  0.83729  0.60501  0.17855  1.0000
  C   C7369     1.0  0.87376  0.52510  0.17543  1.0000
  C   C7370     1.0  0.86739  0.60808  0.18074  1.0000
  H   H5893     1.0  0.88177  0.60226  0.18049  1.0000
  H   H5894     1.0  0.77114  0.70331  0.07860  1.0000
  C   C7371     1.0  0.89803  0.52454  0.14160  1.0000
  S   S990      1.0  0.76231  0.70415  0.02916  1.0000
  H   H5895     1.0  0.92146  0.51686  0.20286  1.0000
  C   C7372     1.0  0.79090  0.94920  0.18649  1.0000
  S   S991      1.0  0.78160  0.63335  0.16706  1.0000
  H   H5896     1.0  0.81079  0.77849  0.98973  1.0000
  Fe  Fe498     1.0  0.75652  0.62498  0.18648  1.0000
  C   C7373     1.0  0.82999  0.62266  0.18167  1.0000
  H   H5897     1.0  0.77250  0.91209  0.18309  1.0000
  C   C7374     1.0  0.83578  0.52913  0.19448  1.0000
  C   C7375     1.0  0.80400  0.52107  0.14619  1.0000
  H   H5898     1.0  0.90891  0.54468  0.14806  1.0000
  H   H5899     1.0  0.77181  0.55421  0.12728  1.0000
  S   S992      1.0  0.87436  0.63868  0.18730  1.0000
  C   C7376     1.0  0.75503  0.86768  0.20843  1.0000
  H   H5900     1.0  0.78512  0.54289  0.18770  1.0000
  S   S993      1.0  0.74437  0.62055  0.16468  1.0000
  C   C7377     1.0  0.82997  0.96316  0.06138  1.0000
  C   C7378     1.0  0.81340  0.68429  0.16667  1.0000
  H   H5901     1.0  0.81381  0.48236  0.20707  1.0000
  C   C7379     1.0  0.82313  0.47990  0.19447  1.0000
  H   H5902     1.0  0.84032  0.55190  0.17204  1.0000
  C   C7380     1.0  0.80044  0.67410  0.16753  1.0000
  H   H5903     1.0  0.78523  0.72567  0.16809  1.0000
  H   H5904     1.0  0.77210  0.67421  0.16938  1.0000
  C   C7381     1.0  0.80495  0.50743  0.13675  1.0000
  H   H5905     1.0  0.88813  0.54499  0.17791  1.0000
  H   H5906     1.0  0.91480  0.94421  0.02089  1.0000
  C   C7382     1.0  0.86535  0.50145  0.21167  1.0000
  C   C7383     1.0  0.74437  0.61502  0.99334  1.0000
  H   H5907     1.0  0.83568  0.64661  0.18692  1.0000
  S   S994      1.0  0.75144  0.56571  0.17065  1.0000
  C   C7384     1.0  0.81795  0.95166  0.04141  1.0000
  H   H5908     1.0  0.75655  0.64031  0.02471  1.0000
  C   C7385     1.0  0.97451  0.64977  0.15989  1.0000
  H   H5909     1.0  0.76498  0.67235  0.08680  1.0000
  H   H5910     1.0  0.74105  0.68225  0.98547  1.0000
  H   H5911     1.0  0.77968  0.81601  0.02402  1.0000
  C   C7386     1.0  0.97743  0.93614  0.12542  1.0000
  C   C7387     1.0  0.76190  0.61884  0.98992  1.0000
  C   C7388     1.0  0.76607  0.88772  0.18042  1.0000
  H   H5912     1.0  0.77107  0.85151  0.04762  1.0000
  C   C7389     1.0  0.96860  0.70720  0.03693  1.0000
  S   S995      1.0  0.77006  0.59554  0.19391  1.0000
  P   P246      1.0  0.97644  0.67728  0.06517  1.0000
  H   H5913     1.0  0.97981  0.47284  0.20535  1.0000
  C   C7390     1.0  0.97291  0.86117  0.01594  1.0000
  H   H5914     1.0  0.97567  0.87461  0.01419  1.0000
  H   H5915     1.0  0.87965  0.49511  0.10267  1.0000
  C   C7391     1.0  0.89641  0.95286  0.08449  1.0000
  S   S996      1.0  0.76929  0.64334  0.11754  1.0000
  S   S997      1.0  0.86196  0.96511  0.17115  1.0000
  C   C7392     1.0  0.84681  0.47222  0.16223  1.0000
  C   C7393     1.0  0.75990  0.95971  0.07352  1.0000
  H   H5916     1.0  0.77974  0.63102  0.99857  1.0000
  H   H5917     1.0  0.75795  0.79433  0.09909  1.0000
  C   C7394     1.0  0.97752  0.84756  0.03076  1.0000
  H   H5918     1.0  0.76583  0.70714  0.20347  1.0000
  C   C7395     1.0  0.94295  0.96328  0.12275  1.0000
  H   H5919     1.0  0.96889  0.75455  0.12399  1.0000
  C   C7396     1.0  0.83752  0.48426  0.12119  1.0000
  C   C7397     1.0  0.91526  0.95583  0.14394  1.0000
  C   C7398     1.0  0.76333  0.89563  0.20967  1.0000
  C   C7399     1.0  0.98412  0.74346  0.04715  1.0000
  C   C7400     1.0  0.74336  0.82393  0.05467  1.0000
  H   H5920     1.0  0.78816  0.64418  0.20045  1.0000
  C   C7401     1.0  0.81655  0.48434  0.17825  1.0000
  C   C7402     1.0  0.77796  0.96547  0.18661  1.0000
  C   C7403     1.0  0.73970  0.65018  0.08223  1.0000
  S   S998      1.0  0.87535  0.96750  0.08097  1.0000
  H   H5921     1.0  0.73487  0.59454  0.14383  1.0000
  H   H5922     1.0  0.74141  0.53644  0.16102  1.0000
  H   H5923     1.0  0.74461  0.65321  0.09286  1.0000
  C   C7404     1.0  0.74197  0.70022  0.15873  1.0000
  C   C7405     1.0  0.96827  0.96193  0.06205  1.0000
  C   C7406     1.0  0.98013  0.48674  0.19810  1.0000
  H   H5924     1.0  0.73928  0.83222  0.04227  1.0000
  C   C7407     1.0  0.73985  0.78396  0.97084  1.0000
  H   H5925     1.0  0.74711  0.71718  0.13163  1.0000
  H   H5926     1.0  0.95970  0.95897  0.05441  1.0000
  C   C7408     1.0  0.84163  0.47204  0.19447  1.0000
  C   C7409     1.0  0.74028  0.77822  0.98939  1.0000
  C   C7410     1.0  0.98339  0.50856  0.16948  1.0000
  H   H5927     1.0  0.73568  0.69888  0.11699  1.0000
  H   H5928     1.0  0.88716  0.66536  0.21304  1.0000
  C   C7411     1.0  0.73520  0.69509  0.13155  1.0000
  H   H5929     1.0  0.73517  0.66671  0.03821  1.0000
  C   C7412     1.0  0.73828  0.74964  0.16551  1.0000
  C   C7413     1.0  0.73519  0.68466  0.16884  1.0000
  C   C7414     1.0  0.73431  0.65760  0.05144  1.0000
  H   H5930     1.0  0.73534  0.68025  0.18323  1.0000
  C   C7415     1.0  0.81536  0.96775  0.30477  1.0000
  S   S999      1.0  0.95643  0.62898  0.33106  1.0000
  C   C7416     1.0  0.88792  0.66638  0.22657  1.0000
  H   H5931     1.0  0.97894  0.55251  0.41161  1.0000
  S   S1000     1.0  0.96937  0.65485  0.35196  1.0000
  C   C7417     1.0  0.98144  0.95693  0.27196  1.0000
  H   H5932     1.0  0.89562  0.90880  0.37019  1.0000
  S   S1001     1.0  0.73674  0.82806  0.26036  1.0000
  Fe  Fe499     1.0  0.94926  0.65824  0.33413  1.0000
  S   S1002     1.0  0.92205  0.67827  0.33554  1.0000
  H   H5933     1.0  0.95133  0.94272  0.31128  1.0000
  S   S1003     1.0  0.96894  0.66740  0.30862  1.0000
  P   P247      1.0  0.96144  0.90233  0.37031  1.0000
  C   C7418     1.0  0.77729  0.59937  0.31687  1.0000
  C   C7419     1.0  0.96821  0.84338  0.44612  1.0000
  H   H5934     1.0  0.78884  0.74780  0.45155  1.0000
  Fe  Fe500     1.0  0.86834  0.84235  0.45681  1.0000
  C   C7420     1.0  0.89800  0.49584  0.42555  1.0000
  C   C7421     1.0  0.90054  0.48641  0.44298  1.0000
  H   H5935     1.0  0.86520  0.62613  0.22613  1.0000
  S   S1004     1.0  0.92431  0.61062  0.24760  1.0000
  C   C7422     1.0  0.91279  0.50157  0.41252  1.0000
  H   H5936     1.0  0.76198  0.64194  0.29645  1.0000
  C   C7423     1.0  0.93009  0.49796  0.41692  1.0000
  H   H5937     1.0  0.75243  0.87653  0.23327  1.0000
  H   H5938     1.0  0.78110  0.66237  0.34333  1.0000
  Fe  Fe501     1.0  0.82840  0.69223  0.39962  1.0000
  S   S1005     1.0  0.82529  0.71615  0.37644  1.0000
  S   S1006     1.0  0.85107  0.66737  0.39700  1.0000
  Fe  Fe502     1.0  0.79549  0.70916  0.42535  1.0000
  S   S1007     1.0  0.79003  0.73455  0.40406  1.0000
  S   S1008     1.0  0.77612  0.71006  0.45276  1.0000
  Fe  Fe503     1.0  0.79518  0.71580  0.38469  1.0000
  S   S1009     1.0  0.77904  0.72361  0.36206  1.0000
  Fe  Fe504     1.0  0.82045  0.73294  0.39762  1.0000
  S   S1010     1.0  0.83225  0.75861  0.38958  1.0000
  S   S1011     1.0  0.79845  0.69033  0.40640  1.0000
  S   S1012     1.0  0.82569  0.70902  0.42041  1.0000
  S   S1013     1.0  0.80737  0.94760  0.30740  1.0000
  H   H5939     1.0  0.81545  0.81208  0.42777  1.0000
  Fe  Fe505     1.0  0.76922  0.92266  0.36788  1.0000
  S   S1014     1.0  0.77504  0.90266  0.39346  1.0000
  H   H5940     1.0  0.74756  0.93646  0.28563  1.0000
  H   H5941     1.0  0.75135  0.77655  0.32297  1.0000
  S   S1015     1.0  0.77625  0.91544  0.34028  1.0000
  C   C7424     1.0  0.75918  0.86210  0.34242  1.0000
  Fe  Fe506     1.0  0.90220  0.82836  0.43030  1.0000
  S   S1016     1.0  0.88465  0.85620  0.43090  1.0000
  S   S1017     1.0  0.93268  0.82330  0.41912  1.0000
  Fe  Fe507     1.0  0.86961  0.80953  0.44120  1.0000
  S   S1018     1.0  0.84912  0.83569  0.44283  1.0000
  C   C7425     1.0  0.75987  0.79224  0.36593  1.0000
  Fe  Fe508     1.0  0.86696  0.84750  0.41693  1.0000
  S   S1019     1.0  0.85868  0.86534  0.39118  1.0000
  H   H5942     1.0  0.73832  0.78792  0.38984  1.0000
  S   S1020     1.0  0.88588  0.82071  0.41413  1.0000
  C   C7426     1.0  0.96378  0.89490  0.42400  1.0000
  C   C7427     1.0  0.94997  0.84243  0.45472  1.0000
  C   C7428     1.0  0.76436  0.64676  0.33816  1.0000
  C   C7429     1.0  0.80203  0.60874  0.29255  1.0000
  H   H5943     1.0  0.75007  0.76027  0.36613  1.0000
  H   H5944     1.0  0.76493  0.66495  0.24949  1.0000
  H   H5945     1.0  0.81382  0.61519  0.28807  1.0000
  C   C7430     1.0  0.79843  0.89313  0.39301  1.0000
  C   C7431     1.0  0.81159  0.89634  0.37700  1.0000
  C   C7432     1.0  0.83013  0.88811  0.37675  1.0000
  C   C7433     1.0  0.83560  0.87672  0.39248  1.0000
  C   C7434     1.0  0.82248  0.87381  0.40858  1.0000
  C   C7435     1.0  0.80390  0.88188  0.40880  1.0000
  H   H5946     1.0  0.80748  0.90505  0.36478  1.0000
  H   H5947     1.0  0.84025  0.89049  0.36431  1.0000
  H   H5948     1.0  0.82657  0.86517  0.42080  1.0000
  H   H5949     1.0  0.79376  0.87942  0.42121  1.0000
  H   H5950     1.0  0.86206  0.95449  0.23629  1.0000
  C   C7436     1.0  0.78833  0.57091  0.23541  1.0000
  S   S1021     1.0  0.98367  0.63202  0.27828  1.0000
  H   H5951     1.0  0.91078  0.50916  0.39908  1.0000
  C   C7437     1.0  0.90815  0.89952  0.37315  1.0000
  H   H5952     1.0  0.74980  0.68281  0.41401  1.0000
  C   C7438     1.0  0.75390  0.89881  0.30645  1.0000
  C   C7439     1.0  0.75954  0.88693  0.29410  1.0000
  H   H5953     1.0  0.88452  0.49892  0.42220  1.0000
  C   C7440     1.0  0.94316  0.48111  0.23032  1.0000
  H   H5954     1.0  0.76383  0.90480  0.30942  1.0000
  H   H5955     1.0  0.77384  0.88381  0.28757  1.0000
  C   C7441     1.0  0.93875  0.83683  0.44625  1.0000
  H   H5956     1.0  0.88709  0.52271  0.21804  1.0000
  C   C7442     1.0  0.79071  0.78439  0.37198  1.0000
  Fe  Fe509     1.0  0.78294  0.94338  0.33010  1.0000
  C   C7443     1.0  0.83402  0.67023  0.35223  1.0000
  C   C7444     1.0  0.74415  0.62542  0.23814  1.0000
  C   C7445     1.0  0.84175  0.76434  0.40539  1.0000
  C   C7446     1.0  0.84437  0.75228  0.42178  1.0000
  C   C7447     1.0  0.85118  0.75756  0.43451  1.0000
  C   C7448     1.0  0.85509  0.77501  0.43107  1.0000
  C   C7449     1.0  0.85305  0.78683  0.41444  1.0000
  C   C7450     1.0  0.84646  0.78148  0.40161  1.0000
  H   H5957     1.0  0.84093  0.73900  0.42477  1.0000
  C   C7451     1.0  0.73761  0.64222  0.22759  1.0000
  H   H5958     1.0  0.85628  0.80021  0.41157  1.0000
  H   H5959     1.0  0.84459  0.79085  0.38891  1.0000
  C   C7452     1.0  0.76426  0.70977  0.36131  1.0000
  C   C7453     1.0  0.76287  0.69350  0.37399  1.0000
  C   C7454     1.0  0.74151  0.67781  0.42705  1.0000
  C   C7455     1.0  0.97523  0.83872  0.42900  1.0000
  S   S1022     1.0  0.98206  0.84998  0.45725  1.0000
  C   C7456     1.0  0.75424  0.71483  0.34732  1.0000
  H   H5960     1.0  0.77078  0.68933  0.38460  1.0000
  H   H5961     1.0  0.78542  0.66089  0.28684  1.0000
  H   H5962     1.0  0.75509  0.72750  0.33760  1.0000
  H   H5963     1.0  0.95445  0.95419  0.27126  1.0000
  C   C7457     1.0  0.95541  0.48125  0.24104  1.0000
  H   H5964     1.0  0.82426  0.82177  0.29632  1.0000
  H   H5965     1.0  0.93325  0.81329  0.38183  1.0000
  H   H5966     1.0  0.75935  0.77754  0.41154  1.0000
  H   H5967     1.0  0.96974  0.82881  0.40764  1.0000
  C   C7458     1.0  0.88493  0.47125  0.21574  1.0000
  H   H5968     1.0  0.82713  0.80473  0.36200  1.0000
  C   C7459     1.0  0.75648  0.80155  0.32680  1.0000
  H   H5969     1.0  0.80948  0.68585  0.36599  1.0000
  H   H5970     1.0  0.96342  0.92072  0.27305  1.0000
  C   C7460     1.0  0.95766  0.94037  0.32292  1.0000
  H   H5971     1.0  0.77367  0.59138  0.27688  1.0000
  H   H5972     1.0  0.79853  0.95486  0.27153  1.0000
  H   H5973     1.0  0.93135  0.55522  0.23619  1.0000
  H   H5974     1.0  0.84634  0.50802  0.23610  1.0000
  H   H5975     1.0  0.77746  0.93601  0.29270  1.0000
  H   H5976     1.0  0.94618  0.55238  0.42580  1.0000
  C   C7461     1.0  0.98188  0.88568  0.36446  1.0000
  C   C7462     1.0  0.90298  0.67481  0.35328  1.0000
  C   C7463     1.0  0.88904  0.68989  0.35660  1.0000
  C   C7464     1.0  0.87324  0.68774  0.37016  1.0000
  C   C7465     1.0  0.87109  0.67042  0.38026  1.0000
  C   C7466     1.0  0.88507  0.65529  0.37696  1.0000
  C   C7467     1.0  0.90108  0.65748  0.36358  1.0000
  H   H5977     1.0  0.89050  0.70331  0.34869  1.0000
  H   H5978     1.0  0.86284  0.69951  0.37286  1.0000
  H   H5979     1.0  0.88353  0.64185  0.38479  1.0000
  H   H5980     1.0  0.91178  0.64577  0.36103  1.0000
  C   C7468     1.0  0.94084  0.61681  0.25585  1.0000
  C   C7469     1.0  0.95735  0.62047  0.24446  1.0000
  C   C7470     1.0  0.97038  0.62505  0.25156  1.0000
  C   C7471     1.0  0.96693  0.62618  0.27001  1.0000
  C   C7472     1.0  0.95030  0.62274  0.28135  1.0000
  C   C7473     1.0  0.93734  0.61800  0.27429  1.0000
  H   H5981     1.0  0.96018  0.61959  0.23024  1.0000
  H   H5982     1.0  0.84155  0.66832  0.36291  1.0000
  H   H5983     1.0  0.94754  0.62356  0.29556  1.0000
  H   H5984     1.0  0.92459  0.61518  0.28319  1.0000
  Fe  Fe510     1.0  0.74744  0.92962  0.33823  1.0000
  C   C7474     1.0  0.82573  0.83056  0.40364  1.0000
  H   H5985     1.0  0.96934  0.87199  0.35106  1.0000
  H   H5986     1.0  0.92599  0.79378  0.36461  1.0000
  H   H5987     1.0  0.75017  0.66998  0.38277  1.0000
  H   H5988     1.0  0.94120  0.50317  0.40684  1.0000
  C   C7475     1.0  0.96412  0.83284  0.42066  1.0000
  H   H5989     1.0  0.83763  0.78148  0.34324  1.0000
  C   C7476     1.0  0.92449  0.90589  0.36954  1.0000
  C   C7477     1.0  0.93286  0.48833  0.43436  1.0000
  H   H5990     1.0  0.96777  0.88359  0.43470  1.0000
  C   C7478     1.0  0.77030  0.59401  0.30448  1.0000
  C   C7479     1.0  0.96035  0.90654  0.39251  1.0000
  H   H5991     1.0  0.76094  0.67861  0.44243  1.0000
  C   C7480     1.0  0.73656  0.76461  0.36276  1.0000
  H   H5992     1.0  0.94830  0.91539  0.33571  1.0000
  C   C7481     1.0  0.77601  0.65656  0.22373  1.0000
  C   C7482     1.0  0.97029  0.77834  0.38483  1.0000
  C   C7483     1.0  0.80180  0.55502  0.23682  1.0000
  C   C7484     1.0  0.94189  0.54482  0.24197  1.0000
  C   C7485     1.0  0.95749  0.91245  0.42758  1.0000
  C   C7486     1.0  0.89114  0.65057  0.23978  1.0000
  H   H5993     1.0  0.73730  0.88227  0.35363  1.0000
  C   C7487     1.0  0.94885  0.52879  0.23518  1.0000
  C   C7488     1.0  0.95591  0.53959  0.42528  1.0000
  H   H5994     1.0  0.92471  0.83606  0.45298  1.0000
  H   H5995     1.0  0.77675  0.83215  0.29257  1.0000
  H   H5996     1.0  0.89501  0.87637  0.38411  1.0000
  H   H5997     1.0  0.91930  0.47565  0.46109  1.0000
  C   C7489     1.0  0.98218  0.78974  0.44878  1.0000
  C   C7490     1.0  0.95049  0.77320  0.36730  1.0000
  H   H5998     1.0  0.83291  0.62520  0.22852  1.0000
  H   H5999     1.0  0.82167  0.64427  0.29594  1.0000
  C   C7491     1.0  0.74665  0.87935  0.28999  1.0000
  C   C7492     1.0  0.77177  0.81974  0.29941  1.0000
  P   P248      1.0  0.97240  0.49541  0.23237  1.0000
  H   H6000     1.0  0.89318  0.63738  0.23632  1.0000
  H   H6001     1.0  0.88440  0.69559  0.22022  1.0000
  C   C7493     1.0  0.94251  0.80055  0.37970  1.0000
  C   C7494     1.0  0.74099  0.91568  0.23714  1.0000
  H   H6002     1.0  0.73928  0.95523  0.25656  1.0000
  H   H6003     1.0  0.95970  0.66561  0.25427  1.0000
  P   P249      1.0  0.95504  0.48506  0.44016  1.0000
  C   C7495     1.0  0.94589  0.83183  0.42930  1.0000
  C   C7496     1.0  0.78097  0.90332  0.23688  1.0000
  C   C7497     1.0  0.79556  0.62547  0.24356  1.0000
  C   C7498     1.0  0.77891  0.79065  0.35959  1.0000
  C   C7499     1.0  0.96702  0.78795  0.44298  1.0000
  C   C7500     1.0  0.96763  0.95279  0.32395  1.0000
  C   C7501     1.0  0.77765  0.65759  0.33289  1.0000
  C   C7502     1.0  0.77227  0.80685  0.28940  1.0000
  C   C7503     1.0  0.76516  0.79119  0.29807  1.0000
  C   C7504     1.0  0.75737  0.78847  0.31672  1.0000
  C   C7505     1.0  0.79552  0.60265  0.28016  1.0000
  H   H6004     1.0  0.80617  0.91929  0.25782  1.0000
  S   S1023     1.0  0.77852  0.94939  0.35798  1.0000
  C   C7506     1.0  0.97595  0.94973  0.33886  1.0000
  C   C7507     1.0  0.97405  0.93443  0.35290  1.0000
  C   C7508     1.0  0.95004  0.52303  0.43250  1.0000
  H   H6005     1.0  0.78474  0.79379  0.34516  1.0000
  C   C7509     1.0  0.76658  0.64611  0.30660  1.0000
  H   H6006     1.0  0.92430  0.92026  0.36414  1.0000
  C   C7510     1.0  0.82471  0.81810  0.31071  1.0000
  H   H6007     1.0  0.77767  0.80928  0.27482  1.0000
  H   H6008     1.0  0.76495  0.78152  0.29019  1.0000
  C   C7511     1.0  0.73711  0.66903  0.45998  1.0000
  H   H6009     1.0  0.82729  0.54178  0.24545  1.0000
  C   C7512     1.0  0.94009  0.87561  0.38178  1.0000
  H   H6010     1.0  0.81429  0.76314  0.44940  1.0000
  H   H6011     1.0  0.83602  0.78971  0.31036  1.0000
  C   C7513     1.0  0.96264  0.50646  0.43160  1.0000
  C   C7514     1.0  0.76394  0.81709  0.31804  1.0000
  C   C7515     1.0  0.96348  0.92225  0.35231  1.0000
  C   C7516     1.0  0.75690  0.94457  0.27608  1.0000
  H   H6012     1.0  0.74966  0.85547  0.21536  1.0000
  H   H6013     1.0  0.94752  0.76483  0.35952  1.0000
  H   H6014     1.0  0.96164  0.80404  0.39389  1.0000
  C   C7517     1.0  0.95345  0.92405  0.39636  1.0000
  C   C7518     1.0  0.74288  0.70371  0.34598  1.0000
  C   C7519     1.0  0.78000  0.65675  0.30126  1.0000
  H   H6015     1.0  0.83535  0.83388  0.40981  1.0000
  H   H6016     1.0  0.85290  0.74826  0.44726  1.0000
  C   C7520     1.0  0.78364  0.78012  0.39068  1.0000
  H   H6017     1.0  0.83028  0.56811  0.25597  1.0000
  H   H6018     1.0  0.98341  0.70405  0.34814  1.0000
  H   H6019     1.0  0.94732  0.94061  0.41656  1.0000
  C   C7521     1.0  0.83225  0.79541  0.33708  1.0000
  S   S1024     1.0  0.75361  0.86518  0.27391  1.0000
  C   C7522     1.0  0.81680  0.55408  0.24438  1.0000
  C   C7523     1.0  0.78073  0.96634  0.25202  1.0000
  H   H6020     1.0  0.80542  0.78240  0.36718  1.0000
  H   H6021     1.0  0.84585  0.58343  0.21645  1.0000
  C   C7524     1.0  0.85455  0.56997  0.21718  1.0000
  C   C7525     1.0  0.88633  0.68336  0.23065  1.0000
  H   H6022     1.0  0.77658  0.57158  0.22972  1.0000
  C   C7526     1.0  0.82886  0.89162  0.32743  1.0000
  C   C7527     1.0  0.84777  0.88661  0.32671  1.0000
  C   C7528     1.0  0.85555  0.86871  0.33397  1.0000
  C   C7529     1.0  0.84441  0.85583  0.34203  1.0000
  C   C7530     1.0  0.82532  0.86088  0.34329  1.0000
  C   C7531     1.0  0.81770  0.87879  0.33556  1.0000
  P   P250      1.0  0.81105  0.84412  0.35369  1.0000
  C   C7532     1.0  0.81250  0.83428  0.37722  1.0000
  C   C7533     1.0  0.78722  0.85503  0.35421  1.0000
  C   C7534     1.0  0.77874  0.86706  0.36616  1.0000
  C   C7535     1.0  0.76072  0.87663  0.36612  1.0000
  C   C7536     1.0  0.85108  0.94283  0.21983  1.0000
  C   C7537     1.0  0.77717  0.85235  0.34255  1.0000
  C   C7538     1.0  0.82476  0.83853  0.38548  1.0000
  C   C7539     1.0  0.81442  0.81839  0.41377  1.0000
  C   C7540     1.0  0.80204  0.81420  0.40571  1.0000
  C   C7541     1.0  0.80098  0.82221  0.38754  1.0000
  C   C7542     1.0  0.81884  0.82676  0.34009  1.0000
  C   C7543     1.0  0.81871  0.83146  0.32135  1.0000
  H   H6023     1.0  0.82279  0.90556  0.32191  1.0000
  H   H6024     1.0  0.85632  0.89669  0.32073  1.0000
  H   H6025     1.0  0.87018  0.86491  0.33365  1.0000
  H   H6026     1.0  0.85064  0.84203  0.34765  1.0000
  H   H6027     1.0  0.80315  0.88298  0.33583  1.0000
  H   H6028     1.0  0.78625  0.86946  0.37520  1.0000
  C   C7544     1.0  0.86208  0.48075  0.24126  1.0000
  C   C7545     1.0  0.96215  0.53411  0.26351  1.0000
  H   H6029     1.0  0.83350  0.84807  0.37813  1.0000
  H   H6030     1.0  0.79335  0.80467  0.41351  1.0000
  H   H6031     1.0  0.79126  0.81894  0.38147  1.0000
  H   H6032     1.0  0.81388  0.84546  0.31500  1.0000
  C   C7546     1.0  0.78768  0.88460  0.24224  1.0000
  H   H6033     1.0  0.93571  0.52316  0.43872  1.0000
  H   H6034     1.0  0.74769  0.63360  0.32901  1.0000
  C   C7547     1.0  0.88154  0.62300  0.31608  1.0000
  C   C7548     1.0  0.89507  0.61725  0.32662  1.0000
  C   C7549     1.0  0.90851  0.62749  0.32380  1.0000
  C   C7550     1.0  0.90860  0.64339  0.31033  1.0000
  C   C7551     1.0  0.89528  0.64906  0.29942  1.0000
  C   C7552     1.0  0.88152  0.63896  0.30265  1.0000
  P   P251      1.0  0.89412  0.67047  0.28327  1.0000
  C   C7553     1.0  0.87567  0.68598  0.29467  1.0000
  C   C7554     1.0  0.91605  0.67724  0.27812  1.0000
  C   C7555     1.0  0.91876  0.69084  0.28569  1.0000
  C   C7556     1.0  0.93609  0.69531  0.28187  1.0000
  C   C7557     1.0  0.95077  0.68638  0.27038  1.0000
  C   C7558     1.0  0.94818  0.67290  0.26277  1.0000
  C   C7559     1.0  0.93093  0.66832  0.26663  1.0000
  C   C7560     1.0  0.86017  0.69495  0.28708  1.0000
  C   C7561     1.0  0.84571  0.70632  0.29645  1.0000
  C   C7562     1.0  0.84640  0.70853  0.31364  1.0000
  C   C7563     1.0  0.86155  0.69937  0.32146  1.0000
  C   C7564     1.0  0.87604  0.68801  0.31214  1.0000
  C   C7565     1.0  0.89066  0.66870  0.26150  1.0000
  C   C7566     1.0  0.89269  0.65166  0.25711  1.0000
  H   H6035     1.0  0.77007  0.59833  0.33097  1.0000
  H   H6036     1.0  0.98084  0.93210  0.36422  1.0000
  H   H6037     1.0  0.83536  0.96309  0.28044  1.0000
  C   C7567     1.0  0.88791  0.68451  0.24795  1.0000
  H   H6038     1.0  0.87105  0.61512  0.31840  1.0000
  H   H6039     1.0  0.89512  0.60492  0.33706  1.0000
  H   H6040     1.0  0.91885  0.62318  0.33213  1.0000
  H   H6041     1.0  0.91900  0.65125  0.30865  1.0000
  H   H6042     1.0  0.87080  0.64345  0.29479  1.0000
  H   H6043     1.0  0.90779  0.69782  0.29482  1.0000
  H   H6044     1.0  0.93826  0.70533  0.28826  1.0000
  H   H6045     1.0  0.95210  0.86628  0.38594  1.0000
  S   S1025     1.0  0.73968  0.93479  0.36670  1.0000
  H   H6046     1.0  0.92934  0.65755  0.26085  1.0000
  H   H6047     1.0  0.85896  0.69299  0.27413  1.0000
  H   H6048     1.0  0.83387  0.71325  0.29048  1.0000
  H   H6049     1.0  0.83506  0.71704  0.32111  1.0000
  H   H6050     1.0  0.86189  0.70076  0.33496  1.0000
  H   H6051     1.0  0.88749  0.68069  0.31866  1.0000
  H   H6052     1.0  0.89631  0.63912  0.26664  1.0000
  H   H6053     1.0  0.89250  0.54486  0.23303  1.0000
  H   H6054     1.0  0.96297  0.47648  0.40350  1.0000
  C   C7568     1.0  0.85683  0.49770  0.23018  1.0000
  H   H6055     1.0  0.88740  0.69771  0.25068  1.0000
  C   C7569     1.0  0.83664  0.65152  0.26857  1.0000
  C   C7570     1.0  0.84062  0.66569  0.25388  1.0000
  C   C7571     1.0  0.83275  0.68376  0.25532  1.0000
  C   C7572     1.0  0.82078  0.68769  0.27143  1.0000
  C   C7573     1.0  0.81656  0.67350  0.28616  1.0000
  C   C7574     1.0  0.82464  0.65539  0.28464  1.0000
  P   P252      1.0  0.80133  0.67823  0.30716  1.0000
  C   C7575     1.0  0.81442  0.67523  0.32457  1.0000
  C   C7576     1.0  0.78743  0.70101  0.30323  1.0000
  C   C7577     1.0  0.77165  0.70426  0.29588  1.0000
  C   C7578     1.0  0.76061  0.72167  0.29320  1.0000
  C   C7579     1.0  0.76524  0.73607  0.29772  1.0000
  C   C7580     1.0  0.78106  0.73309  0.30477  1.0000
  C   C7581     1.0  0.79214  0.71566  0.30748  1.0000
  C   C7582     1.0  0.84235  0.66285  0.33671  1.0000
  C   C7583     1.0  0.83265  0.66539  0.32288  1.0000
  H   H6056     1.0  0.84283  0.63754  0.26748  1.0000
  H   H6057     1.0  0.84977  0.66264  0.24135  1.0000
  H   H6058     1.0  0.83587  0.69471  0.24389  1.0000
  H   H6059     1.0  0.81476  0.70175  0.27228  1.0000
  H   H6060     1.0  0.76756  0.69336  0.29246  1.0000
  H   H6061     1.0  0.74822  0.72393  0.28792  1.0000
  H   H6062     1.0  0.75633  0.74944  0.29608  1.0000
  H   H6063     1.0  0.78437  0.74416  0.30874  1.0000
  H   H6064     1.0  0.80405  0.71364  0.31333  1.0000
  H   H6065     1.0  0.85643  0.65536  0.33538  1.0000
  H   H6066     1.0  0.83952  0.65974  0.31096  1.0000
  C   C7584     1.0  0.75104  0.87435  0.35408  1.0000
  C   C7585     1.0  0.85933  0.59477  0.26568  1.0000
  C   C7586     1.0  0.86796  0.60654  0.25109  1.0000
  C   C7587     1.0  0.85834  0.61736  0.23773  1.0000
  C   C7588     1.0  0.83996  0.61675  0.23914  1.0000
  C   C7589     1.0  0.83099  0.60537  0.25410  1.0000
  C   C7590     1.0  0.84099  0.59407  0.26713  1.0000
  P   P253      1.0  0.80706  0.60476  0.25646  1.0000
  C   C7591     1.0  0.80521  0.58533  0.24854  1.0000
  C   C7592     1.0  0.78997  0.58598  0.24128  1.0000
  H   H6067     1.0  0.96285  0.47104  0.26752  1.0000
  H   H6068     1.0  0.80568  0.86397  0.25755  1.0000
  H   H6069     1.0  0.73691  0.82218  0.37841  1.0000
  C   C7593     1.0  0.81849  0.56915  0.25027  1.0000
  H   H6070     1.0  0.97548  0.72073  0.37334  1.0000
  C   C7594     1.0  0.96309  0.51565  0.24193  1.0000
  H   H6071     1.0  0.86698  0.58610  0.27579  1.0000
  H   H6072     1.0  0.88221  0.60704  0.25000  1.0000
  C   C7595     1.0  0.77371  0.94431  0.28010  1.0000
  H   H6073     1.0  0.83457  0.58474  0.27847  1.0000
  H   H6074     1.0  0.88902  0.48219  0.45319  1.0000
  H   H6075     1.0  0.74673  0.61046  0.26530  1.0000
  C   C7596     1.0  0.81872  0.95381  0.21955  1.0000
  C   C7597     1.0  0.88071  0.54821  0.22663  1.0000
  Fe  Fe511     1.0  0.97847  0.62619  0.34677  1.0000
  C   C7598     1.0  0.87760  0.53568  0.21807  1.0000
  C   C7599     1.0  0.74192  0.62351  0.25713  1.0000
  C   C7600     1.0  0.86933  0.56543  0.22600  1.0000
  C   C7601     1.0  0.81599  0.68010  0.35397  1.0000
  C   C7602     1.0  0.78556  0.66272  0.31437  1.0000
  H   H6076     1.0  0.81771  0.88617  0.26734  1.0000
  H   H6077     1.0  0.79357  0.67175  0.45421  1.0000
  C   C7603     1.0  0.96648  0.76770  0.37448  1.0000
  C   C7604     1.0  0.82609  0.80870  0.34778  1.0000
  S   S1026     1.0  0.90449  0.59941  0.21461  1.0000
  C   C7605     1.0  0.91788  0.48263  0.44738  1.0000
  H   H6078     1.0  0.95326  0.79216  0.45051  1.0000
  C   C7606     1.0  0.98181  0.87257  0.35481  1.0000
  C   C7607     1.0  0.86604  0.74333  0.35226  1.0000
  C   C7608     1.0  0.87451  0.75100  0.33476  1.0000
  C   C7609     1.0  0.89313  0.75169  0.33108  1.0000
  C   C7610     1.0  0.90332  0.74455  0.34484  1.0000
  C   C7611     1.0  0.89503  0.73630  0.36234  1.0000
  C   C7612     1.0  0.87619  0.73612  0.36603  1.0000
  P   P254      1.0  0.90818  0.72715  0.38016  1.0000
  C   C7613     1.0  0.89934  0.70787  0.39516  1.0000
  C   C7614     1.0  0.93212  0.71994  0.37009  1.0000
  C   C7615     1.0  0.93685  0.71050  0.35571  1.0000
  C   C7616     1.0  0.95527  0.70487  0.34781  1.0000
  H   H6079     1.0  0.87225  0.57539  0.23194  1.0000
  C   C7617     1.0  0.96461  0.71800  0.36844  1.0000
  C   C7618     1.0  0.94618  0.72369  0.37638  1.0000
  C   C7619     1.0  0.88362  0.71077  0.40892  1.0000
  C   C7620     1.0  0.87611  0.69606  0.42006  1.0000
  C   C7621     1.0  0.88428  0.67833  0.41763  1.0000
  C   C7622     1.0  0.90012  0.67529  0.40424  1.0000
  C   C7623     1.0  0.90760  0.68997  0.39298  1.0000
  C   C7624     1.0  0.90573  0.74416  0.39333  1.0000
  C   C7625     1.0  0.89964  0.76270  0.38634  1.0000
  C   C7626     1.0  0.89798  0.77571  0.39666  1.0000
  C   C7627     1.0  0.90234  0.77031  0.41398  1.0000
  C   C7628     1.0  0.90829  0.75189  0.42106  1.0000
  C   C7629     1.0  0.90998  0.73883  0.41079  1.0000
  H   H6080     1.0  0.85153  0.74304  0.35530  1.0000
  H   H6081     1.0  0.86662  0.75648  0.32411  1.0000
  H   H6082     1.0  0.89970  0.75774  0.31754  1.0000
  H   H6083     1.0  0.91767  0.74540  0.34176  1.0000
  H   H6084     1.0  0.86920  0.73042  0.37948  1.0000
  H   H6085     1.0  0.92630  0.70730  0.35071  1.0000
  H   H6086     1.0  0.95883  0.69742  0.33683  1.0000
  C   C7630     1.0  0.75861  0.64127  0.32501  1.0000
  C   C7631     1.0  0.84991  0.95415  0.23177  1.0000
  H   H6087     1.0  0.94306  0.73093  0.38739  1.0000
  H   H6088     1.0  0.87685  0.72445  0.41074  1.0000
  H   H6089     1.0  0.86370  0.69840  0.43029  1.0000
  H   H6090     1.0  0.87806  0.66698  0.42576  1.0000
  H   H6091     1.0  0.90623  0.66158  0.40211  1.0000
  H   H6092     1.0  0.91949  0.68718  0.38236  1.0000
  H   H6093     1.0  0.89598  0.76716  0.37307  1.0000
  H   H6094     1.0  0.89296  0.78999  0.39142  1.0000
  H   H6095     1.0  0.90075  0.78038  0.42209  1.0000
  H   H6096     1.0  0.91139  0.74777  0.43459  1.0000
  H   H6097     1.0  0.91460  0.72458  0.41646  1.0000
  C   C7632     1.0  0.74778  0.67545  0.44310  1.0000
  H   H6098     1.0  0.94347  0.56019  0.26100  1.0000
  C   C7633     1.0  0.83138  0.80005  0.31859  1.0000
  H   H6099     1.0  0.79225  0.69006  0.34187  1.0000
  C   C7634     1.0  0.80624  0.68253  0.34025  1.0000
  H   H6100     1.0  0.78216  0.63793  0.26695  1.0000
  C   C7635     1.0  0.90777  0.88123  0.38103  1.0000
  C   C7636     1.0  0.95577  0.92503  0.33693  1.0000
  H   H6101     1.0  0.80056  0.54346  0.23207  1.0000
  Fe  Fe512     1.0  0.92794  0.60996  0.21769  1.0000
  H   H6102     1.0  0.79292  0.77514  0.40016  1.0000
  C   C7637     1.0  0.75291  0.78733  0.38474  1.0000
  H   H6103     1.0  0.96431  0.68950  0.26778  1.0000
  H   H6104     1.0  0.78313  0.84304  0.33338  1.0000
  C   C7638     1.0  0.94868  0.54759  0.25598  1.0000
  S   S1027     1.0  0.86175  0.78190  0.44809  1.0000
  H   H6105     1.0  0.86419  0.93457  0.21490  1.0000
  C   C7639     1.0  0.78562  0.95505  0.26808  1.0000
  H   H6106     1.0  0.96992  0.87816  0.40414  1.0000
  C   C7640     1.0  0.78412  0.63928  0.25237  1.0000
  C   C7641     1.0  0.77439  0.65476  0.24248  1.0000
  P   P255      1.0  0.76365  0.91168  0.22300  1.0000
  H   H6107     1.0  0.85549  0.47796  0.25553  1.0000
  C   C7642     1.0  0.95854  0.79514  0.38675  1.0000
  Fe  Fe513     1.0  0.97758  0.63810  0.30662  1.0000
  H   H6108     1.0  0.77927  0.59809  0.24022  1.0000
  C   C7643     1.0  0.77943  0.59551  0.28624  1.0000
  C   C7644     1.0  0.79732  0.62755  0.22465  1.0000
  H   H6109     1.0  0.75030  0.91615  0.26120  1.0000
  H   H6110     1.0  0.75784  0.64337  0.35242  1.0000
  H   H6111     1.0  0.78273  0.93027  0.23882  1.0000
  H   H6112     1.0  0.75161  0.86049  0.33302  1.0000
  Fe  Fe514     1.0  0.74946  0.96096  0.35441  1.0000
  H   H6113     1.0  0.97179  0.74034  0.40668  1.0000
  C   C7645     1.0  0.78776  0.91577  0.24260  1.0000
  C   C7646     1.0  0.80104  0.90960  0.25343  1.0000
  C   C7647     1.0  0.80758  0.89094  0.25876  1.0000
  C   C7648     1.0  0.80089  0.87846  0.25318  1.0000
  H   H6114     1.0  0.75757  0.58900  0.30892  1.0000
  C   C7649     1.0  0.96844  0.94711  0.27205  1.0000
  C   C7650     1.0  0.97353  0.92829  0.27303  1.0000
  H   H6115     1.0  0.76778  0.66809  0.21622  1.0000
  H   H6116     1.0  0.75062  0.61392  0.23167  1.0000
  H   H6117     1.0  0.80588  0.61698  0.21758  1.0000
  C   C7651     1.0  0.75130  0.68251  0.37284  1.0000
  H   H6118     1.0  0.94900  0.93544  0.38596  1.0000
  H   H6119     1.0  0.79815  0.61149  0.32043  1.0000
  H   H6120     1.0  0.95675  0.91472  0.44102  1.0000
  C   C7652     1.0  0.92371  0.86932  0.38541  1.0000
  C   C7653     1.0  0.75222  0.95524  0.25977  1.0000
  C   C7654     1.0  0.79315  0.60674  0.31091  1.0000
  C   C7655     1.0  0.95223  0.92701  0.41379  1.0000
  H   H6121     1.0  0.92325  0.85528  0.39202  1.0000
  H   H6122     1.0  0.75451  0.88627  0.37505  1.0000
  H   H6123     1.0  0.76302  0.82752  0.32544  1.0000
  C   C7656     1.0  0.93842  0.78954  0.37006  1.0000
  C   C7657     1.0  0.96513  0.89191  0.40658  1.0000
  C   C7658     1.0  0.76475  0.78149  0.39707  1.0000
  H   H6124     1.0  0.95748  0.78058  0.42265  1.0000
  C   C7659     1.0  0.94072  0.89388  0.37341  1.0000
  H   H6125     1.0  0.78258  0.87464  0.23837  1.0000
  C   C7660     1.0  0.96920  0.51808  0.25667  1.0000
  S   S1028     1.0  0.75459  0.95704  0.32562  1.0000
  P   P256      1.0  0.74430  0.79957  0.35026  1.0000
  C   C7661     1.0  0.96914  0.70859  0.35419  1.0000
  H   H6126     1.0  0.94339  0.52678  0.22437  1.0000
  C   C7662     1.0  0.96949  0.78159  0.42695  1.0000
  C   C7663     1.0  0.95382  0.47082  0.25887  1.0000
  C   C7664     1.0  0.81760  0.96568  0.23101  1.0000
  C   C7665     1.0  0.76417  0.96593  0.24765  1.0000
  S   S1029     1.0  0.88744  0.81501  0.45748  1.0000
  H   H6127     1.0  0.82625  0.50759  0.21609  1.0000
  C   C7666     1.0  0.78747  0.64299  0.21484  1.0000
  H   H6128     1.0  0.97590  0.75526  0.37179  1.0000
  C   C7667     1.0  0.83324  0.96556  0.23735  1.0000
  C   C7668     1.0  0.73860  0.91751  0.25523  1.0000
  C   C7669     1.0  0.74128  0.68757  0.35885  1.0000
  C   C7670     1.0  0.73534  0.90305  0.31472  1.0000
  H   H6129     1.0  0.98019  0.79539  0.46078  1.0000
  H   H6130     1.0  0.98381  0.95931  0.33950  1.0000
  C   C7671     1.0  0.74218  0.70725  0.22525  1.0000
  H   H6131     1.0  0.97941  0.50772  0.26289  1.0000
  H   H6132     1.0  0.96720  0.53615  0.27459  1.0000
  H   H6133     1.0  0.74222  0.94952  0.21691  1.0000
  H   H6134     1.0  0.73518  0.70775  0.33517  1.0000
  H   H6135     1.0  0.80677  0.95366  0.21464  1.0000
  C   C7672     1.0  0.75672  0.87961  0.21853  1.0000
  H   H6136     1.0  0.98320  0.62773  0.24271  1.0000
  H   H6137     1.0  0.92924  0.88623  0.46138  1.0000
  C   C7673     1.0  0.97438  0.53970  0.41731  1.0000
  H   H6138     1.0  0.96892  0.96481  0.31321  1.0000
  C   C7674     1.0  0.98112  0.50673  0.42378  1.0000
  H   H6139     1.0  0.74997  0.70533  0.23572  1.0000
  C   C7675     1.0  0.80902  0.75473  0.46221  1.0000
  H   H6140     1.0  0.94374  0.48937  0.21670  1.0000
  H   H6141     1.0  0.98322  0.70704  0.40975  1.0000
  C   C7676     1.0  0.79450  0.74636  0.46347  1.0000
  C   C7677     1.0  0.76660  0.71367  0.60485  1.0000
  Fe  Fe515     1.0  0.88598  0.88371  0.59688  1.0000
  S   S1030     1.0  0.88727  0.89812  0.56765  1.0000
  S   S1031     1.0  0.90677  0.88239  0.61365  1.0000
  Fe  Fe516     1.0  0.85168  0.86934  0.59877  1.0000
  S   S1032     1.0  0.85025  0.88276  0.56971  1.0000
  S   S1033     1.0  0.82887  0.85531  0.61698  1.0000
  Fe  Fe517     1.0  0.88075  0.87284  0.56361  1.0000
  S   S1034     1.0  0.89692  0.85975  0.53974  1.0000
  Fe  Fe518     1.0  0.85663  0.90683  0.57615  1.0000
  S   S1035     1.0  0.84181  0.93527  0.56577  1.0000
  S   S1036     1.0  0.88185  0.85750  0.59234  1.0000
  S   S1037     1.0  0.85586  0.89434  0.60574  1.0000
  S   S1038     1.0  0.85450  0.85594  0.48081  1.0000
  Fe  Fe519     1.0  0.81007  0.50790  0.61023  1.0000
  S   S1039     1.0  0.82917  0.50919  0.62738  1.0000
  S   S1040     1.0  0.80421  0.52992  0.58603  1.0000
  C   C7678     1.0  0.75304  0.71179  0.59652  1.0000
  H   H6142     1.0  0.93870  0.47499  0.59375  1.0000
  Fe  Fe520     1.0  0.80823  0.49837  0.65094  1.0000
  S   S1041     1.0  0.79844  0.50564  0.67876  1.0000
  H   H6143     1.0  0.77623  0.72930  0.48073  1.0000
  C   C7679     1.0  0.93420  0.92675  0.53378  1.0000
  S   S1042     1.0  0.78801  0.49957  0.63394  1.0000
  C   C7680     1.0  0.93756  0.47431  0.60817  1.0000
  H   H6144     1.0  0.87231  0.61397  0.62197  1.0000
  Fe  Fe521     1.0  0.81241  0.75614  0.63328  1.0000
  S   S1043     1.0  0.81948  0.72565  0.64213  1.0000
  S   S1044     1.0  0.83456  0.77192  0.61733  1.0000
  Fe  Fe522     1.0  0.77178  0.75723  0.64673  1.0000
  S   S1045     1.0  0.77508  0.72696  0.65660  1.0000
  Fe  Fe523     1.0  0.79856  0.72960  0.66762  1.0000
  S   S1046     1.0  0.80137  0.71125  0.69501  1.0000
  Fe  Fe524     1.0  0.79572  0.72503  0.63047  1.0000
  S   S1047     1.0  0.80064  0.70285  0.61446  1.0000
  S   S1048     1.0  0.79353  0.76019  0.65992  1.0000
  S   S1049     1.0  0.79038  0.75514  0.61942  1.0000
  H   H6145     1.0  0.78929  0.89204  0.62739  1.0000
  H   H6146     1.0  0.82445  0.92545  0.63003  1.0000
  H   H6147     1.0  0.82275  0.73912  0.69040  1.0000
  S   S1050     1.0  0.76505  0.64633  0.56553  1.0000
  H   H6148     1.0  0.85418  0.70263  0.51014  1.0000
  C   C7681     1.0  0.73916  0.60096  0.50404  1.0000
  S   S1051     1.0  0.76951  0.63983  0.51576  1.0000
  C   C7682     1.0  0.78792  0.55178  0.52941  1.0000
  S   S1052     1.0  0.75739  0.60432  0.60652  1.0000
  H   H6149     1.0  0.76266  0.90802  0.64730  1.0000
  H   H6150     1.0  0.80756  0.85717  0.59055  1.0000
  C   C7683     1.0  0.88413  0.48241  0.65932  1.0000
  H   H6151     1.0  0.76734  0.91785  0.67359  1.0000
  C   C7684     1.0  0.97637  0.88218  0.50914  1.0000
  H   H6152     1.0  0.80444  0.91333  0.56399  1.0000
  C   C7685     1.0  0.75132  0.49212  0.59517  1.0000
  H   H6153     1.0  0.82869  0.55777  0.63279  1.0000
  S   S1053     1.0  0.92947  0.95463  0.61688  1.0000
  C   C7686     1.0  0.84736  0.84241  0.65581  1.0000
  H   H6154     1.0  0.82836  0.92736  0.71074  1.0000
  Fe  Fe525     1.0  0.75227  0.64374  0.54339  1.0000
  C   C7687     1.0  0.82822  0.55995  0.60466  1.0000
  C   C7688     1.0  0.78586  0.68612  0.59600  1.0000
  C   C7689     1.0  0.78309  0.70083  0.60455  1.0000
  H   H6155     1.0  0.75443  0.70512  0.48894  1.0000
  H   H6156     1.0  0.80485  0.88921  0.59206  1.0000
  H   H6157     1.0  0.74107  0.55333  0.52434  1.0000
  H   H6158     1.0  0.79859  0.67617  0.59569  1.0000
  H   H6159     1.0  0.79099  0.56398  0.56396  1.0000
  H   H6160     1.0  0.89915  0.90081  0.47787  1.0000
  P   P257      1.0  0.98139  0.92704  0.56090  1.0000
  H   H6161     1.0  0.81190  0.47944  0.54430  1.0000
  C   C7690     1.0  0.90188  0.60545  0.69104  1.0000
  C   C7691     1.0  0.74896  0.87342  0.64933  1.0000
  H   H6162     1.0  0.94165  0.84278  0.50693  1.0000
  H   H6163     1.0  0.81501  0.96850  0.56069  1.0000
  C   C7692     1.0  0.80218  0.69026  0.50073  1.0000
  H   H6164     1.0  0.91256  0.49409  0.61026  1.0000
  C   C7693     1.0  0.75912  0.57703  0.54476  1.0000
  H   H6165     1.0  0.75850  0.75295  0.50480  1.0000
  C   C7694     1.0  0.79230  0.64904  0.63644  1.0000
  C   C7695     1.0  0.79056  0.55031  0.59189  1.0000
  C   C7696     1.0  0.78451  0.55198  0.61014  1.0000
  C   C7697     1.0  0.77420  0.56861  0.61447  1.0000
  C   C7698     1.0  0.76993  0.58361  0.60060  1.0000
  C   C7699     1.0  0.77574  0.58187  0.58237  1.0000
  C   C7700     1.0  0.78609  0.56523  0.57804  1.0000
  H   H6166     1.0  0.78798  0.54056  0.62091  1.0000
  H   H6167     1.0  0.76946  0.56990  0.62857  1.0000
  C   C7701     1.0  0.83412  0.89671  0.68382  1.0000
  C   C7702     1.0  0.80510  0.88579  0.57922  1.0000
  C   C7703     1.0  0.81198  0.51714  0.68541  1.0000
  H   H6168     1.0  0.87359  0.88202  0.64354  1.0000
  H   H6169     1.0  0.77173  0.53172  0.54398  1.0000
  C   C7704     1.0  0.83301  0.53581  0.69650  1.0000
  C   C7705     1.0  0.83594  0.53470  0.67812  1.0000
  C   C7706     1.0  0.82546  0.52538  0.67260  1.0000
  C   C7707     1.0  0.81618  0.58983  0.58835  1.0000
  H   H6170     1.0  0.82901  0.92620  0.67895  1.0000
  H   H6171     1.0  0.84637  0.54101  0.66813  1.0000
  H   H6172     1.0  0.82769  0.52475  0.65840  1.0000
  C   C7708     1.0  0.77898  0.91093  0.66492  1.0000
  C   C7709     1.0  0.83102  0.83187  0.61786  1.0000
  C   C7710     1.0  0.84606  0.82230  0.60731  1.0000
  C   C7711     1.0  0.84713  0.80382  0.60764  1.0000
  C   C7712     1.0  0.83326  0.79472  0.61859  1.0000
  C   C7713     1.0  0.81846  0.80414  0.62962  1.0000
  C   C7714     1.0  0.81728  0.82271  0.62913  1.0000
  H   H6173     1.0  0.85680  0.82918  0.59875  1.0000
  H   H6174     1.0  0.85871  0.79658  0.59924  1.0000
  H   H6175     1.0  0.80781  0.79720  0.63829  1.0000
  H   H6176     1.0  0.80567  0.83000  0.63744  1.0000
  C   C7715     1.0  0.91305  0.90255  0.61433  1.0000
  C   C7716     1.0  0.90696  0.91916  0.60323  1.0000
  C   C7717     1.0  0.91224  0.93501  0.60406  1.0000
  C   C7718     1.0  0.92349  0.93436  0.61608  1.0000
  C   C7719     1.0  0.92955  0.91777  0.62719  1.0000
  C   C7720     1.0  0.92440  0.90188  0.62624  1.0000
  H   H6177     1.0  0.89809  0.91979  0.59412  1.0000
  H   H6178     1.0  0.90748  0.94784  0.59546  1.0000
  H   H6179     1.0  0.93819  0.91718  0.63651  1.0000
  H   H6180     1.0  0.92914  0.88905  0.63485  1.0000
  C   C7721     1.0  0.88544  0.85997  0.52255  1.0000
  C   C7722     1.0  0.89502  0.85182  0.50766  1.0000
  C   C7723     1.0  0.88589  0.85109  0.49427  1.0000
  C   C7724     1.0  0.86710  0.85844  0.49583  1.0000
  C   C7725     1.0  0.85767  0.86700  0.51045  1.0000
  C   C7726     1.0  0.86681  0.86781  0.52372  1.0000
  H   H6181     1.0  0.90948  0.84589  0.50656  1.0000
  H   H6182     1.0  0.89328  0.84453  0.48298  1.0000
  H   H6183     1.0  0.84319  0.87288  0.51161  1.0000
  H   H6184     1.0  0.85935  0.87437  0.53490  1.0000
  C   C7727     1.0  0.82047  0.94285  0.57933  1.0000
  C   C7728     1.0  0.81008  0.96015  0.57365  1.0000
  C   C7729     1.0  0.79248  0.95828  0.65320  1.0000
  C   C7730     1.0  0.78719  0.95607  0.60167  1.0000
  C   C7731     1.0  0.79749  0.93877  0.60720  1.0000
  C   C7732     1.0  0.81391  0.93202  0.59596  1.0000
  C   C7733     1.0  0.78966  0.95541  0.67219  1.0000
  C   C7734     1.0  0.79019  0.72606  0.53622  1.0000
  H   H6185     1.0  0.79271  0.93063  0.62026  1.0000
  H   H6186     1.0  0.82164  0.91856  0.60030  1.0000
  C   C7735     1.0  0.76070  0.67650  0.50083  1.0000
  C   C7736     1.0  0.77085  0.65934  0.49814  1.0000
  C   C7737     1.0  0.78252  0.65767  0.48119  1.0000
  C   C7738     1.0  0.83104  0.91360  0.68891  1.0000
  S   S1054     1.0  0.73750  0.62171  0.56103  1.0000
  C   C7739     1.0  0.79338  0.96673  0.58476  1.0000
  C   C7740     1.0  0.90856  0.89678  0.50288  1.0000
  H   H6187     1.0  0.87604  0.96351  0.65168  1.0000
  H   H6188     1.0  0.88415  0.93170  0.63888  1.0000
  C   C7741     1.0  0.83739  0.92665  0.63223  1.0000
  H   H6189     1.0  0.84125  0.61357  0.61855  1.0000
  C   C7742     1.0  0.93412  0.47174  0.64554  1.0000
  C   C7743     1.0  0.83815  0.85928  0.66012  1.0000
  H   H6190     1.0  0.82343  0.71463  0.56160  1.0000
  C   C7744     1.0  0.80134  0.66532  0.53398  1.0000
  H   H6191     1.0  0.74812  0.58697  0.55056  1.0000
  C   C7745     1.0  0.84246  0.58342  0.65906  1.0000
  C   C7746     1.0  0.82513  0.56686  0.62047  1.0000
  C   C7747     1.0  0.76283  0.83370  0.59960  1.0000
  C   C7748     1.0  0.86286  0.94235  0.62321  1.0000
  C   C7749     1.0  0.97922  0.94877  0.56679  1.0000
  H   H6192     1.0  0.76136  0.49088  0.66896  1.0000
  H   H6193     1.0  0.96989  0.87445  0.62685  1.0000
  C   C7750     1.0  0.84631  0.60534  0.63054  1.0000
  C   C7751     1.0  0.80495  0.89935  0.56340  1.0000
  P   P258      1.0  0.80986  0.83923  0.56113  1.0000
  C   C7752     1.0  0.83323  0.82703  0.56109  1.0000
  C   C7753     1.0  0.79366  0.83029  0.58079  1.0000
  C   C7754     1.0  0.79868  0.81360  0.59246  1.0000
  C   C7755     1.0  0.78579  0.80695  0.60738  1.0000
  H   H6194     1.0  0.97090  0.89596  0.48235  1.0000
  H   H6195     1.0  0.78256  0.94480  0.68063  1.0000
  C   C7756     1.0  0.77566  0.84038  0.58459  1.0000
  C   C7757     1.0  0.83795  0.80860  0.55992  1.0000
  C   C7758     1.0  0.85605  0.79901  0.55943  1.0000
  C   C7759     1.0  0.86970  0.80798  0.55953  1.0000
  C   C7760     1.0  0.86519  0.82643  0.56032  1.0000
  C   C7761     1.0  0.84704  0.83595  0.56112  1.0000
  C   C7762     1.0  0.80446  0.83691  0.54047  1.0000
  C   C7763     1.0  0.81698  0.84002  0.52383  1.0000
  C   C7764     1.0  0.81304  0.83833  0.50772  1.0000
  C   C7765     1.0  0.79667  0.83337  0.50807  1.0000
  C   C7766     1.0  0.78432  0.82981  0.52461  1.0000
  C   C7767     1.0  0.78818  0.83153  0.54077  1.0000
  H   H6196     1.0  0.81252  0.80574  0.59042  1.0000
  H   H6197     1.0  0.78979  0.79411  0.61639  1.0000
  C   C7768     1.0  0.92094  0.48421  0.63643  1.0000
  C   C7769     1.0  0.77426  0.69029  0.46990  1.0000
  H   H6198     1.0  0.77154  0.85339  0.57588  1.0000
  H   H6199     1.0  0.82754  0.80165  0.55955  1.0000
  H   H6200     1.0  0.85949  0.78467  0.55896  1.0000
  H   H6201     1.0  0.88376  0.80064  0.55908  1.0000
  H   H6202     1.0  0.87576  0.83336  0.56050  1.0000
  H   H6203     1.0  0.84393  0.85020  0.56170  1.0000
  H   H6204     1.0  0.79358  0.83238  0.49548  1.0000
  H   H6205     1.0  0.77168  0.82584  0.52487  1.0000
  H   H6206     1.0  0.77841  0.82863  0.55337  1.0000
  H   H6207     1.0  0.83912  0.86741  0.69347  1.0000
  H   H6208     1.0  0.87533  0.70008  0.69954  1.0000
  C   C7770     1.0  0.76034  0.72485  0.51927  1.0000
  C   C7771     1.0  0.93360  0.84686  0.56653  1.0000
  C   C7772     1.0  0.78899  0.57272  0.69316  1.0000
  C   C7773     1.0  0.79431  0.69643  0.51713  1.0000
  P   P259      1.0  0.90078  0.49691  0.64923  1.0000
  C   C7774     1.0  0.93101  0.92612  0.55251  1.0000
  C   C7775     1.0  0.90607  0.50484  0.66707  1.0000
  H   H6209     1.0  0.81494  0.80667  0.47098  1.0000
  H   H6210     1.0  0.76084  0.92400  0.60293  1.0000
  C   C7776     1.0  0.95448  0.49063  0.47475  1.0000
  C   C7777     1.0  0.92776  0.51360  0.67980  1.0000
  C   C7778     1.0  0.92403  0.50663  0.66636  1.0000
  H   H6211     1.0  0.80090  0.65560  0.54682  1.0000
  H   H6212     1.0  0.77998  0.77789  0.51560  1.0000
  H   H6213     1.0  0.84000  0.83143  0.65857  1.0000
  H   H6214     1.0  0.75170  0.67796  0.51378  1.0000
  C   C7779     1.0  0.87416  0.62141  0.70827  1.0000
  C   C7780     1.0  0.89035  0.51677  0.63439  1.0000
  C   C7781     1.0  0.89186  0.53439  0.63484  1.0000
  C   C7782     1.0  0.88342  0.54962  0.62353  1.0000
  C   C7783     1.0  0.87370  0.54738  0.61148  1.0000
  C   C7784     1.0  0.87219  0.52992  0.61092  1.0000
  C   C7785     1.0  0.88027  0.51473  0.62248  1.0000
  H   H6215     1.0  0.94137  0.83970  0.54034  1.0000
  C   C7786     1.0  0.73755  0.61545  0.51242  1.0000
  C   C7787     1.0  0.93289  0.85970  0.57665  1.0000
  C   C7788     1.0  0.78072  0.74092  0.56227  1.0000
  H   H6216     1.0  0.81509  0.66704  0.48831  1.0000
  H   H6217     1.0  0.77618  0.49910  0.59704  1.0000
  H   H6218     1.0  0.74282  0.76352  0.70757  1.0000
  C   C7789     1.0  0.96354  0.82090  0.49952  1.0000
  H   H6219     1.0  0.94166  0.51473  0.67934  1.0000
  H   H6220     1.0  0.93515  0.50297  0.65533  1.0000
  H   H6221     1.0  0.86087  0.50479  0.66191  1.0000
  H   H6222     1.0  0.94263  0.92547  0.57519  1.0000
  P   P260      1.0  0.81285  0.59400  0.64102  1.0000
  C   C7790     1.0  0.75126  0.95227  0.56368  1.0000
  H   H6223     1.0  0.80874  0.87338  0.53268  1.0000
  H   H6224     1.0  0.89948  0.53648  0.64390  1.0000
  H   H6225     1.0  0.88450  0.56316  0.62404  1.0000
  H   H6226     1.0  0.86737  0.55916  0.60255  1.0000
  H   H6227     1.0  0.86481  0.52804  0.60151  1.0000
  H   H6228     1.0  0.87881  0.50133  0.62197  1.0000
  H   H6229     1.0  0.83986  0.94952  0.60977  1.0000
  C   C7791     1.0  0.77462  0.58280  0.53300  1.0000
  C   C7792     1.0  0.87521  0.85420  0.64310  1.0000
  C   C7793     1.0  0.80896  0.65928  0.51761  1.0000
  H   H6230     1.0  0.79669  0.66110  0.63711  1.0000
  H   H6231     1.0  0.77556  0.94290  0.57514  1.0000
  H   H6232     1.0  0.76437  0.72509  0.61136  1.0000
  Fe  Fe526     1.0  0.94622  0.95570  0.63681  1.0000
  H   H6233     1.0  0.74897  0.84148  0.60246  1.0000
  C   C7794     1.0  0.86585  0.83991  0.64718  1.0000
  C   C7795     1.0  0.75793  0.55858  0.54903  1.0000
  C   C7796     1.0  0.82489  0.72899  0.70258  1.0000
  H   H6234     1.0  0.89528  0.90262  0.51026  1.0000
  H   H6235     1.0  0.75645  0.63682  0.62730  1.0000
  C   C7797     1.0  0.76019  0.47672  0.67366  1.0000
  H   H6236     1.0  0.80654  0.90520  0.53436  1.0000
  H   H6237     1.0  0.77621  0.60644  0.63335  1.0000
  C   C7798     1.0  0.80774  0.86289  0.56166  1.0000
  C   C7799     1.0  0.81690  0.58523  0.62048  1.0000
  H   H6238     1.0  0.86978  0.95285  0.61412  1.0000
  H   H6239     1.0  0.80110  0.57465  0.51639  1.0000
  H   H6240     1.0  0.81406  0.64488  0.51774  1.0000
  H   H6241     1.0  0.78768  0.68814  0.54661  1.0000
  C   C7800     1.0  0.78146  0.55900  0.69083  1.0000
  C   C7801     1.0  0.87096  0.93043  0.63717  1.0000
  H   H6242     1.0  0.77252  0.59340  0.57161  1.0000
  H   H6243     1.0  0.77739  0.54533  0.67154  1.0000
  S   S1055     1.0  0.82304  0.47938  0.60612  1.0000
  H   H6244     1.0  0.88700  0.63191  0.68054  1.0000
  C   C7802     1.0  0.81276  0.59676  0.60418  1.0000
  H   H6245     1.0  0.81233  0.59861  0.57601  1.0000
  H   H6246     1.0  0.80664  0.61103  0.60360  1.0000
  C   C7803     1.0  0.76788  0.81693  0.61095  1.0000
  C   C7804     1.0  0.80049  0.58022  0.66041  1.0000
  H   H6247     1.0  0.77555  0.59706  0.52997  1.0000
  C   C7805     1.0  0.84565  0.91431  0.64599  1.0000
  H   H6248     1.0  0.79355  0.56410  0.64482  1.0000
  H   H6249     1.0  0.77160  0.49605  0.71253  1.0000
  H   H6250     1.0  0.79845  0.91229  0.67986  1.0000
  Fe  Fe527     1.0  0.96070  0.94321  0.67228  1.0000
  C   C7806     1.0  0.78902  0.57017  0.52534  1.0000
  C   C7807     1.0  0.77629  0.90526  0.65017  1.0000
  H   H6251     1.0  0.95336  0.89034  0.54317  1.0000
  H   H6252     1.0  0.88439  0.59486  0.64910  1.0000
  C   C7808     1.0  0.94162  0.84954  0.54795  1.0000
  Fe  Fe528     1.0  0.84046  0.47998  0.62518  1.0000
  H   H6253     1.0  0.95430  0.92762  0.50864  1.0000
  H   H6254     1.0  0.92091  0.88973  0.52627  1.0000
  C   C7809     1.0  0.86604  0.87113  0.64731  1.0000
  C   C7810     1.0  0.74297  0.52804  0.57565  1.0000
  H   H6255     1.0  0.98149  0.88746  0.68789  1.0000
  C   C7811     1.0  0.86545  0.49016  0.66419  1.0000
  C   C7812     1.0  0.95176  0.92746  0.52312  1.0000
  H   H6256     1.0  0.87974  0.73983  0.46538  1.0000
  H   H6257     1.0  0.76664  0.66425  0.62916  1.0000
  C   C7813     1.0  0.91352  0.51939  0.69368  1.0000
  H   H6258     1.0  0.87283  0.82697  0.64341  1.0000
  C   C7814     1.0  0.80760  0.87658  0.54579  1.0000
  C   C7815     1.0  0.78306  0.55611  0.67333  1.0000
  C   C7816     1.0  0.77239  0.54599  0.54111  1.0000
  H   H6259     1.0  0.93889  0.88552  0.57604  1.0000
  C   C7817     1.0  0.75570  0.69689  0.58822  1.0000
  H   H6260     1.0  0.82849  0.75819  0.47616  1.0000
  C   C7818     1.0  0.81948  0.52767  0.70932  1.0000
  C   C7819     1.0  0.77530  0.65086  0.63198  1.0000
  C   C7820     1.0  0.80673  0.86763  0.57830  1.0000
  S   S1056     1.0  0.84605  0.54802  0.70282  1.0000
  H   H6261     1.0  0.77029  0.74924  0.57073  1.0000
  C   C7821     1.0  0.78081  0.61825  0.63433  1.0000
  H   H6262     1.0  0.75445  0.47832  0.60286  1.0000
  H   H6263     1.0  0.79038  0.64443  0.47900  1.0000
  H   H6264     1.0  0.82265  0.84101  0.49488  1.0000
  C   C7822     1.0  0.80897  0.51838  0.70378  1.0000
  H   H6265     1.0  0.92745  0.83506  0.57296  1.0000
  C   C7823     1.0  0.83059  0.91432  0.70691  1.0000
  P   P261      1.0  0.95842  0.86910  0.51502  1.0000
  C   C7824     1.0  0.90319  0.59112  0.70615  1.0000
  H   H6266     1.0  0.75799  0.81164  0.62258  1.0000
  C   C7825     1.0  0.79813  0.61632  0.63829  1.0000
  H   H6267     1.0  0.75461  0.78387  0.67932  1.0000
  C   C7826     1.0  0.96301  0.92725  0.54996  1.0000
  H   H6268     1.0  0.92644  0.85764  0.59098  1.0000
  C   C7827     1.0  0.76954  0.63546  0.63098  1.0000
  C   C7828     1.0  0.83529  0.59453  0.64403  1.0000
  C   C7829     1.0  0.82252  0.76326  0.57344  1.0000
  C   C7830     1.0  0.83399  0.74830  0.58197  1.0000
  C   C7831     1.0  0.84868  0.73829  0.57146  1.0000
  C   C7832     1.0  0.85190  0.74322  0.55240  1.0000
  C   C7833     1.0  0.84007  0.75789  0.54370  1.0000
  C   C7834     1.0  0.82557  0.76810  0.55439  1.0000
  P   P262      1.0  0.84554  0.76552  0.51926  1.0000
  C   C7835     1.0  0.86136  0.78045  0.51532  1.0000
  C   C7836     1.0  0.85543  0.74704  0.50726  1.0000
  C   C7837     1.0  0.86584  0.75050  0.48949  1.0000
  C   C7838     1.0  0.87203  0.73683  0.47926  1.0000
  C   C7839     1.0  0.86786  0.71957  0.48670  1.0000
  C   C7840     1.0  0.85753  0.71598  0.50444  1.0000
  C   C7841     1.0  0.85128  0.72968  0.51467  1.0000
  C   C7842     1.0  0.88035  0.77352  0.51288  1.0000
  C   C7843     1.0  0.89251  0.78509  0.51055  1.0000
  C   C7844     1.0  0.88575  0.80353  0.51096  1.0000
  C   C7845     1.0  0.86685  0.81041  0.51368  1.0000
  C   C7846     1.0  0.85468  0.79894  0.51587  1.0000
  C   C7847     1.0  0.82568  0.77731  0.50957  1.0000
  C   C7848     1.0  0.82791  0.78948  0.49265  1.0000
  C   C7849     1.0  0.81295  0.79751  0.48418  1.0000
  C   C7850     1.0  0.79564  0.79348  0.49252  1.0000
  C   C7851     1.0  0.79331  0.78131  0.50932  1.0000
  C   C7852     1.0  0.80831  0.77309  0.51773  1.0000
  H   H6269     1.0  0.81151  0.77132  0.58170  1.0000
  H   H6270     1.0  0.83175  0.74469  0.59676  1.0000
  H   H6271     1.0  0.85780  0.72697  0.57818  1.0000
  H   H6272     1.0  0.86382  0.73579  0.54451  1.0000
  H   H6273     1.0  0.81689  0.78010  0.54807  1.0000
  H   H6274     1.0  0.86886  0.76392  0.48333  1.0000
  H   H6275     1.0  0.92311  0.92642  0.52760  1.0000
  H   H6276     1.0  0.83357  0.54560  0.60488  1.0000
  C   C7853     1.0  0.82387  0.57143  0.58860  1.0000
  H   H6277     1.0  0.84293  0.72683  0.52817  1.0000
  H   H6278     1.0  0.88580  0.75921  0.51282  1.0000
  H   H6279     1.0  0.91410  0.57916  0.70531  1.0000
  H   H6280     1.0  0.89513  0.81251  0.50924  1.0000
  H   H6281     1.0  0.86161  0.82463  0.51426  1.0000
  H   H6282     1.0  0.84008  0.80449  0.51820  1.0000
  H   H6283     1.0  0.84131  0.79245  0.48571  1.0000
  H   H6284     1.0  0.80238  0.69950  0.48764  1.0000
  H   H6285     1.0  0.95719  0.50405  0.46811  1.0000
  H   H6286     1.0  0.88442  0.52345  0.70441  1.0000
  H   H6287     1.0  0.80642  0.76307  0.53031  1.0000
  H   H6288     1.0  0.80000  0.73467  0.58003  1.0000
  C   C7854     1.0  0.76351  0.50382  0.59195  1.0000
  C   C7855     1.0  0.79666  0.90785  0.66836  1.0000
  C   C7856     1.0  0.97277  0.88419  0.61422  1.0000
  H   H6289     1.0  0.81669  0.63071  0.64323  1.0000
  H   H6290     1.0  0.82046  0.88723  0.63290  1.0000
  H   H6291     1.0  0.95406  0.49469  0.50146  1.0000
  H   H6292     1.0  0.79336  0.96433  0.69503  1.0000
  S   S1057     1.0  0.97271  0.93801  0.64383  1.0000
  H   H6293     1.0  0.88954  0.85231  0.63627  1.0000
  H   H6294     1.0  0.94447  0.84605  0.46794  1.0000
  C   C7857     1.0  0.85246  0.47908  0.67172  1.0000
  C   C7858     1.0  0.78228  0.78726  0.70592  1.0000
  C   C7859     1.0  0.83666  0.88060  0.69702  1.0000
  H   H6295     1.0  0.86348  0.67778  0.69033  1.0000
  H   H6296     1.0  0.74551  0.55067  0.59922  1.0000
  H   H6297     1.0  0.80322  0.47864  0.71241  1.0000
  C   C7860     1.0  0.92271  0.48522  0.61766  1.0000
  C   C7861     1.0  0.92761  0.88740  0.47541  1.0000
  S   S1058     1.0  0.93332  0.95849  0.66569  1.0000
  C   C7862     1.0  0.73909  0.89673  0.62413  1.0000
  H   H6298     1.0  0.74237  0.66698  0.47227  1.0000
  H   H6299     1.0  0.94948  0.95394  0.57470  1.0000
  H   H6300     1.0  0.86535  0.57503  0.67264  1.0000
  C   C7863     1.0  0.89182  0.51099  0.68093  1.0000
  C   C7864     1.0  0.84615  0.64947  0.68948  1.0000
  C   C7865     1.0  0.84909  0.63848  0.67663  1.0000
  C   C7866     1.0  0.84147  0.64511  0.66101  1.0000
  C   C7867     1.0  0.83044  0.66253  0.65832  1.0000
  C   C7868     1.0  0.82674  0.67317  0.67146  1.0000
  C   C7869     1.0  0.83436  0.66661  0.68707  1.0000
  H   H6301     1.0  0.91634  0.52494  0.70405  1.0000
  C   C7870     1.0  0.97514  0.89325  0.58150  1.0000
  C   C7871     1.0  0.75101  0.74229  0.51217  1.0000
  H   H6302     1.0  0.97424  0.89025  0.56884  1.0000
  C   C7872     1.0  0.78436  0.67312  0.46715  1.0000
  C   C7873     1.0  0.80984  0.74141  0.49400  1.0000
  H   H6303     1.0  0.76884  0.53064  0.58009  1.0000
  P   P263      1.0  0.78498  0.72033  0.51704  1.0000
  H   H6304     1.0  0.83219  0.48061  0.56418  1.0000
  H   H6305     1.0  0.74705  0.58770  0.50891  1.0000
  C   C7874     1.0  0.79478  0.73354  0.49556  1.0000
  C   C7875     1.0  0.86392  0.60553  0.63240  1.0000
  C   C7876     1.0  0.79250  0.56668  0.65817  1.0000
  H   H6306     1.0  0.78013  0.79877  0.67789  1.0000
  H   H6307     1.0  0.73824  0.47940  0.65991  1.0000
  H   H6308     1.0  0.85707  0.62474  0.67869  1.0000
  H   H6309     1.0  0.84408  0.63672  0.65100  1.0000
  H   H6310     1.0  0.82461  0.66782  0.64617  1.0000
  H   H6311     1.0  0.81792  0.68656  0.66956  1.0000
  H   H6312     1.0  0.83105  0.67500  0.69722  1.0000
  Fe  Fe529     1.0  0.74816  0.62630  0.58357  1.0000
  C   C7877     1.0  0.73502  0.49826  0.58859  1.0000
  H   H6313     1.0  0.74036  0.72180  0.59669  1.0000
  H   H6314     1.0  0.82374  0.86099  0.66652  1.0000
  C   C7878     1.0  0.86240  0.91649  0.64854  1.0000
  H   H6315     1.0  0.77616  0.86538  0.60896  1.0000
  P   P264      1.0  0.83491  0.89594  0.66049  1.0000
  C   C7879     1.0  0.81182  0.89928  0.65688  1.0000
  Fe  Fe530     1.0  0.73970  0.66750  0.57164  1.0000
  C   C7880     1.0  0.79125  0.89638  0.63892  1.0000
  C   C7881     1.0  0.80896  0.89364  0.64209  1.0000
  C   C7882     1.0  0.84603  0.94051  0.62079  1.0000
  C   C7883     1.0  0.75295  0.93114  0.59253  1.0000
  S   S1059     1.0  0.96212  0.92250  0.69867  1.0000
  H   H6316     1.0  0.97755  0.90360  0.62729  1.0000
  C   C7884     1.0  0.87075  0.59477  0.64764  1.0000
  C   C7885     1.0  0.86004  0.58366  0.66091  1.0000
  C   C7886     1.0  0.97188  0.88048  0.59773  1.0000
  C   C7887     1.0  0.76232  0.69190  0.48673  1.0000
  C   C7888     1.0  0.77478  0.79010  0.69050  1.0000
  H   H6317     1.0  0.83472  0.57433  0.66934  1.0000
  C   C7889     1.0  0.97988  0.92191  0.70968  1.0000
  C   C7890     1.0  0.95632  0.83753  0.50512  1.0000
  H   H6318     1.0  0.82590  0.56590  0.57651  1.0000
  C   C7891     1.0  0.94188  0.97059  0.71107  1.0000
  H   H6319     1.0  0.82976  0.84393  0.52324  1.0000
  C   C7892     1.0  0.78739  0.73583  0.48007  1.0000
  H   H6320     1.0  0.91747  0.92527  0.56085  1.0000
  C   C7893     1.0  0.91071  0.89566  0.48467  1.0000
  P   P265      1.0  0.85581  0.64116  0.70981  1.0000
  H   H6321     1.0  0.86903  0.90721  0.65911  1.0000
  C   C7894     1.0  0.94225  0.88001  0.48445  1.0000
  C   C7895     1.0  0.84735  0.87390  0.65567  1.0000
  C   C7896     1.0  0.92321  0.88940  0.51195  1.0000
  C   C7897     1.0  0.80951  0.67177  0.50102  1.0000
  H   H6322     1.0  0.79919  0.54196  0.52361  1.0000
  C   C7898     1.0  0.94910  0.86509  0.53932  1.0000
  C   C7899     1.0  0.77215  0.68403  0.58804  1.0000
  C   C7900     1.0  0.94013  0.88075  0.50286  1.0000
  C   C7901     1.0  0.77704  0.73760  0.54671  1.0000
  C   C7902     1.0  0.80624  0.89473  0.54669  1.0000
  H   H6323     1.0  0.79339  0.79383  0.70531  1.0000
  C   C7903     1.0  0.76047  0.78162  0.69127  1.0000
  H   H6324     1.0  0.77438  0.67254  0.58168  1.0000
  C   C7904     1.0  0.87441  0.68693  0.70846  1.0000
  C   C7905     1.0  0.73442  0.93014  0.59499  1.0000
  C   C7906     1.0  0.94004  0.87535  0.56818  1.0000
  S   S1060     1.0  0.74553  0.77829  0.64699  1.0000
  H   H6325     1.0  0.87771  0.51063  0.68143  1.0000
  C   C7907     1.0  0.86734  0.67432  0.70347  1.0000
  C   C7908     1.0  0.76135  0.94201  0.57685  1.0000
  H   H6326     1.0  0.74731  0.86776  0.66384  1.0000
  H   H6327     1.0  0.83806  0.48518  0.67535  1.0000
  C   C7909     1.0  0.79821  0.58350  0.67799  1.0000
  C   C7910     1.0  0.94814  0.87805  0.54958  1.0000
  S   S1061     1.0  0.97187  0.96837  0.66786  1.0000
  C   C7911     1.0  0.80367  0.63181  0.63971  1.0000
  H   H6328     1.0  0.96832  0.86782  0.59759  1.0000
  Fe  Fe531     1.0  0.80262  0.47111  0.63139  1.0000
  S   S1062     1.0  0.73838  0.69485  0.57798  1.0000
  H   H6329     1.0  0.76370  0.74358  0.54333  1.0000
  H   H6330     1.0  0.80393  0.59412  0.68000  1.0000
  C   C7912     1.0  0.75015  0.71158  0.52938  1.0000
  C   C7913     1.0  0.97907  0.90996  0.58169  1.0000
  C   C7914     1.0  0.81068  0.72135  0.55712  1.0000
  H   H6331     1.0  0.76355  0.70375  0.70919  1.0000
  C   C7915     1.0  0.75389  0.76999  0.70731  1.0000
  H   H6332     1.0  0.86196  0.47617  0.58697  1.0000
  H   H6333     1.0  0.95452  0.81361  0.49680  1.0000
  C   C7916     1.0  0.79566  0.96647  0.68030  1.0000
  C   C7917     1.0  0.96797  0.84749  0.50799  1.0000
  C   C7918     1.0  0.76314  0.86490  0.63708  1.0000
  C   C7919     1.0  0.97947  0.89402  0.49210  1.0000
  H   H6334     1.0  0.74434  0.61356  0.52361  1.0000
  H   H6335     1.0  0.75489  0.89312  0.59729  1.0000
  C   C7920     1.0  0.79392  0.68378  0.53378  1.0000
  C   C7921     1.0  0.88761  0.62071  0.69220  1.0000
  C   C7922     1.0  0.81690  0.75203  0.47737  1.0000
  C   C7923     1.0  0.81617  0.71410  0.70769  1.0000
  H   H6336     1.0  0.81607  0.73945  0.50557  1.0000
  C   C7924     1.0  0.96613  0.92768  0.53114  1.0000
  H   H6337     1.0  0.77256  0.85271  0.64204  1.0000
  C   C7925     1.0  0.76520  0.87210  0.61837  1.0000
  C   C7926     1.0  0.94533  0.92632  0.56057  1.0000
  H   H6338     1.0  0.81730  0.70886  0.53381  1.0000
  H   H6339     1.0  0.90718  0.77979  0.50847  1.0000
  C   C7927     1.0  0.95277  0.48538  0.49370  1.0000
  H   H6340     1.0  0.75685  0.69821  0.53555  1.0000
  H   H6341     1.0  0.91200  0.60476  0.67849  1.0000
  C   C7928     1.0  0.79749  0.73272  0.56752  1.0000
  H   H6342     1.0  0.97959  0.92787  0.52259  1.0000
  H   H6343     1.0  0.75757  0.96123  0.55186  1.0000
  C   C7929     1.0  0.80711  0.71807  0.54148  1.0000
  C   C7930     1.0  0.75934  0.52170  0.58227  1.0000
  H   H6344     1.0  0.78793  0.57481  0.70675  1.0000
  H   H6345     1.0  0.73943  0.74791  0.67761  1.0000
  H   H6346     1.0  0.95510  0.87324  0.47723  1.0000
  C   C7931     1.0  0.75318  0.88789  0.61187  1.0000
  C   C7932     1.0  0.89555  0.51832  0.69406  1.0000
  H   H6347     1.0  0.77464  0.55039  0.70258  1.0000
  H   H6348     1.0  0.87250  0.70904  0.47866  1.0000
  C   C7933     1.0  0.96189  0.95865  0.57361  1.0000
  H   H6349     1.0  0.78411  0.79958  0.48581  1.0000
  S   S1063     1.0  0.76679  0.96383  0.61639  1.0000
  H   H6350     1.0  0.78762  0.94989  0.64685  1.0000
  C   C7934     1.0  0.98246  0.81402  0.49684  1.0000
  H   H6351     1.0  0.73754  0.94560  0.62314  1.0000
  C   C7935     1.0  0.98018  0.91351  0.59830  1.0000
  Fe  Fe532     1.0  0.98204  0.96451  0.63902  1.0000
  C   C7936     1.0  0.97706  0.90063  0.61448  1.0000
  H   H6352     1.0  0.98309  0.92630  0.59893  1.0000
  C   C7937     1.0  0.73692  0.88924  0.64290  1.0000
  P   P266      1.0  0.73751  0.55140  0.56365  1.0000
  H   H6353     1.0  0.84289  0.74248  0.70954  1.0000
  C   C7938     1.0  0.73485  0.56240  0.59618  1.0000
  H   H6354     1.0  0.79840  0.51228  0.71374  1.0000
  C   C7939     1.0  0.83631  0.73085  0.71341  1.0000
  C   C7940     1.0  0.95304  0.47849  0.46464  1.0000
  C   C7941     1.0  0.93308  0.59049  0.73533  1.0000
  S   S1064     1.0  0.95303  0.73380  0.85845  1.0000
  C   C7942     1.0  0.82763  0.64659  0.74007  1.0000
  H   H6355     1.0  0.86987  0.64065  0.74153  1.0000
  S   S1065     1.0  0.95538  0.77564  0.83602  1.0000
  C   C7943     1.0  0.87113  0.65349  0.73210  1.0000
  Fe  Fe533     1.0  0.95363  0.76021  0.86508  1.0000
  S   S1066     1.0  0.93376  0.77201  0.88826  1.0000
  Fe  Fe534     1.0  0.95738  0.74851  0.82922  1.0000
  S   S1067     1.0  0.94302  0.74734  0.80738  1.0000
  H   H6356     1.0  0.73873  0.68873  0.72980  1.0000
  H   H6357     1.0  0.83297  0.89877  0.73389  1.0000
  C   C7944     1.0  0.89051  0.74688  0.91101  1.0000
  C   C7945     1.0  0.79882  0.58762  0.85115  1.0000
  C   C7946     1.0  0.93718  0.48183  0.79030  1.0000
  C   C7947     1.0  0.75963  0.47825  0.73639  1.0000
  C   C7948     1.0  0.77107  0.59923  0.91129  1.0000
  C   C7949     1.0  0.88747  0.75172  0.94162  1.0000
  H   H6358     1.0  0.96429  0.89493  0.78884  1.0000
  C   C7950     1.0  0.84863  0.69783  0.91973  1.0000
  C   C7951     1.0  0.90552  0.75415  0.86304  1.0000
  C   C7952     1.0  0.76533  0.62317  0.82355  1.0000
  H   H6359     1.0  0.94854  0.94228  0.75133  1.0000
  C   C7953     1.0  0.73519  0.70604  0.80444  1.0000
  C   C7954     1.0  0.90747  0.47695  0.80833  1.0000
  C   C7955     1.0  0.77860  0.47155  0.87860  1.0000
  S   S1068     1.0  0.96442  0.52062  0.79636  1.0000
  H   H6360     1.0  0.88280  0.66274  0.74980  1.0000
  S   S1069     1.0  0.85535  0.66842  0.81722  1.0000
  Fe  Fe535     1.0  0.85406  0.70184  0.77064  1.0000
  S   S1070     1.0  0.88029  0.68356  0.77742  1.0000
  S   S1071     1.0  0.85288  0.72088  0.74311  1.0000
  Fe  Fe536     1.0  0.86302  0.66224  0.78916  1.0000
  S   S1072     1.0  0.87631  0.63458  0.78240  1.0000
  Fe  Fe537     1.0  0.87100  0.69114  0.80497  1.0000
  S   S1073     1.0  0.88914  0.69220  0.82367  1.0000
  S   S1074     1.0  0.83742  0.67998  0.78080  1.0000
  S   S1075     1.0  0.84643  0.71183  0.79707  1.0000
  Fe  Fe538     1.0  0.84836  0.54278  0.73234  1.0000
  S   S1076     1.0  0.86833  0.51845  0.74329  1.0000
  Fe  Fe539     1.0  0.84199  0.55918  0.76600  1.0000
  S   S1077     1.0  0.86194  0.53634  0.77921  1.0000
  S   S1078     1.0  0.82585  0.58228  0.78001  1.0000
  Fe  Fe540     1.0  0.88002  0.53840  0.75126  1.0000
  S   S1079     1.0  0.91055  0.53737  0.74144  1.0000
  Fe  Fe541     1.0  0.84831  0.51866  0.76998  1.0000
  S   S1080     1.0  0.84224  0.49286  0.78947  1.0000
  S   S1081     1.0  0.86110  0.56284  0.73878  1.0000
  S   S1082     1.0  0.82713  0.54142  0.75848  1.0000
  H   H6361     1.0  0.88341  0.77961  0.94413  1.0000
  C   C7956     1.0  0.86693  0.68917  0.91983  1.0000
  H   H6362     1.0  0.96959  0.96237  0.74896  1.0000
  C   C7957     1.0  0.81054  0.49487  0.77759  1.0000
  C   C7958     1.0  0.79478  0.48844  0.77807  1.0000
  C   C7959     1.0  0.77553  0.77586  0.72211  1.0000
  H   H6363     1.0  0.80563  0.47888  0.83621  1.0000
  C   C7960     1.0  0.96850  0.80423  0.94019  1.0000
  H   H6364     1.0  0.81363  0.50696  0.76786  1.0000
  H   H6365     1.0  0.78578  0.49564  0.76869  1.0000
  H   H6366     1.0  0.74669  0.58720  0.85008  1.0000
  C   C7961     1.0  0.74574  0.65749  0.83629  1.0000
  C   C7962     1.0  0.83914  0.71780  0.72928  1.0000
  C   C7963     1.0  0.83060  0.70281  0.73411  1.0000
  H   H6367     1.0  0.87025  0.67470  0.92537  1.0000
  C   C7964     1.0  0.98364  0.95258  0.84775  1.0000
  H   H6368     1.0  0.75400  0.70570  0.82109  1.0000
  C   C7965     1.0  0.76477  0.61873  0.93325  1.0000
  H   H6369     1.0  0.83299  0.69245  0.74591  1.0000
  H   H6370     1.0  0.97589  0.57311  0.83613  1.0000
  H   H6371     1.0  0.82768  0.63431  0.85823  1.0000
  C   C7966     1.0  0.86207  0.62045  0.78137  1.0000
  C   C7967     1.0  0.87001  0.60416  0.77517  1.0000
  C   C7968     1.0  0.85895  0.59238  0.77475  1.0000
  C   C7969     1.0  0.83991  0.59681  0.78062  1.0000
  C   C7970     1.0  0.83201  0.61304  0.78694  1.0000
  C   C7971     1.0  0.84304  0.62500  0.78704  1.0000
  H   H6372     1.0  0.88474  0.60058  0.77069  1.0000
  H   H6373     1.0  0.86521  0.57983  0.76996  1.0000
  H   H6374     1.0  0.81735  0.61648  0.79153  1.0000
  H   H6375     1.0  0.83693  0.63769  0.79153  1.0000
  C   C7972     1.0  0.94952  0.52479  0.78112  1.0000
  C   C7973     1.0  0.93046  0.52781  0.78772  1.0000
  C   C7974     1.0  0.91830  0.53154  0.77574  1.0000
  C   C7975     1.0  0.92521  0.53208  0.75710  1.0000
  C   C7976     1.0  0.94428  0.52867  0.75058  1.0000
  C   C7977     1.0  0.95642  0.52513  0.76253  1.0000
  H   H6376     1.0  0.92508  0.52722  0.80212  1.0000
  H   H6377     1.0  0.90363  0.53410  0.78091  1.0000
  H   H6378     1.0  0.94971  0.52900  0.73618  1.0000
  H   H6379     1.0  0.97110  0.52271  0.75732  1.0000
  C   C7978     1.0  0.78607  0.64260  0.83496  1.0000
  H   H6380     1.0  0.76855  0.69943  0.84880  1.0000
  C   C7979     1.0  0.91705  0.71697  0.89535  1.0000
  C   C7980     1.0  0.92969  0.72015  0.90398  1.0000
  H   H6381     1.0  0.74027  0.53177  0.85710  1.0000
  H   H6382     1.0  0.89214  0.72540  0.93502  1.0000
  C   C7981     1.0  0.77971  0.56229  0.87610  1.0000
  H   H6383     1.0  0.88506  0.69273  0.72918  1.0000
  C   C7982     1.0  0.87671  0.71786  0.90530  1.0000
  C   C7983     1.0  0.74053  0.56655  0.92904  1.0000
  C   C7984     1.0  0.76867  0.51221  0.88729  1.0000
  C   C7985     1.0  0.92832  0.73173  0.81195  1.0000
  C   C7986     1.0  0.91879  0.73179  0.79860  1.0000
  C   C7987     1.0  0.90666  0.71981  0.80198  1.0000
  C   C7988     1.0  0.90402  0.70766  0.81874  1.0000
  C   C7989     1.0  0.91359  0.70754  0.83205  1.0000
  C   C7990     1.0  0.92569  0.71952  0.82869  1.0000
  H   H6384     1.0  0.92072  0.74123  0.78564  1.0000
  H   H6385     1.0  0.89934  0.72000  0.79164  1.0000
  H   H6386     1.0  0.91154  0.69824  0.84508  1.0000
  H   H6387     1.0  0.93281  0.71943  0.83911  1.0000
  C   C7991     1.0  0.94539  0.84218  0.87408  1.0000
  H   H6388     1.0  0.75171  0.78821  0.96122  1.0000
  C   C7992     1.0  0.79750  0.68816  0.84613  1.0000
  S   S1083     1.0  0.78395  0.66481  0.90717  1.0000
  H   H6389     1.0  0.76249  0.51571  0.91512  1.0000
  H   H6390     1.0  0.85472  0.74104  0.90032  1.0000
  H   H6391     1.0  0.97225  0.80756  0.83310  1.0000
  C   C7993     1.0  0.87845  0.66601  0.73689  1.0000
  C   C7994     1.0  0.74120  0.53150  0.90084  1.0000
  C   C7995     1.0  0.96177  0.96507  0.73838  1.0000
  C   C7996     1.0  0.94118  0.76766  0.90905  1.0000
  C   C7997     1.0  0.93123  0.77754  0.92259  1.0000
  C   C7998     1.0  0.96178  0.75044  0.92940  1.0000
  C   C7999     1.0  0.95657  0.75421  0.91245  1.0000
  H   H6392     1.0  0.91939  0.78804  0.91998  1.0000
  C   C8000     1.0  0.73997  0.71011  0.81902  1.0000
  H   H6393     1.0  0.96425  0.74644  0.90218  1.0000
  H   H6394     1.0  0.80655  0.64156  0.81003  1.0000
  C   C8001     1.0  0.78124  0.67299  0.79687  1.0000
  H   H6395     1.0  0.78125  0.77421  0.73400  1.0000
  H   H6396     1.0  0.74776  0.62537  0.89208  1.0000
  H   H6397     1.0  0.76572  0.57257  0.82461  1.0000
  H   H6398     1.0  0.96781  0.49995  0.87232  1.0000
  C   C8002     1.0  0.85826  0.72654  0.90568  1.0000
  H   H6399     1.0  0.91474  0.75722  0.86987  1.0000
  H   H6400     1.0  0.94890  0.56558  0.77319  1.0000
  H   H6401     1.0  0.75822  0.66701  0.76012  1.0000
  H   H6402     1.0  0.78758  0.67499  0.80699  1.0000
  C   C8003     1.0  0.83673  0.63524  0.72758  1.0000
  P   P267      1.0  0.76690  0.64588  0.82406  1.0000
  C   C8004     1.0  0.83320  0.89822  0.71996  1.0000
  H   H6403     1.0  0.96026  0.78487  0.78460  1.0000
  H   H6404     1.0  0.78757  0.62938  0.93477  1.0000
  C   C8005     1.0  0.97222  0.81833  0.87865  1.0000
  H   H6405     1.0  0.74444  0.60690  0.92847  1.0000
  H   H6406     1.0  0.86821  0.49407  0.71766  1.0000
  H   H6407     1.0  0.97018  0.58743  0.77132  1.0000
  C   C8006     1.0  0.97087  0.86755  0.75851  1.0000
  S   S1084     1.0  0.73791  0.70081  0.91657  1.0000
  H   H6408     1.0  0.78039  0.52605  0.93978  1.0000
  H   H6409     1.0  0.94543  0.48789  0.77771  1.0000
  C   C8007     1.0  0.97734  0.81373  0.94732  1.0000
  H   H6410     1.0  0.97643  0.88213  0.72120  1.0000
  H   H6411     1.0  0.78530  0.62190  0.79834  1.0000
  C   C8008     1.0  0.95350  0.87300  0.75384  1.0000
  C   C8009     1.0  0.94031  0.88667  0.76133  1.0000
  C   C8010     1.0  0.94425  0.89470  0.77381  1.0000
  C   C8011     1.0  0.96134  0.88899  0.77887  1.0000
  C   C8012     1.0  0.97460  0.87541  0.77133  1.0000
  C   C8013     1.0  0.96224  0.83606  0.87963  1.0000
  H   H6412     1.0  0.95259  0.68874  0.81861  1.0000
  C   C8014     1.0  0.87614  0.60738  0.72366  1.0000
  C   C8015     1.0  0.77417  0.48390  0.72293  1.0000
  H   H6413     1.0  0.75279  0.50029  0.79892  1.0000
  C   C8016     1.0  0.75878  0.60804  0.92473  1.0000
  C   C8017     1.0  0.73509  0.53614  0.88440  1.0000
  C   C8018     1.0  0.98374  0.87098  0.71448  1.0000
  C   C8019     1.0  0.95493  0.48490  0.84059  1.0000
  C   C8020     1.0  0.74216  0.59905  0.89262  1.0000
  C   C8021     1.0  0.80068  0.47218  0.85004  1.0000
  H   H6414     1.0  0.88748  0.74629  0.95598  1.0000
  C   C8022     1.0  0.93989  0.95632  0.72615  1.0000
  C   C8023     1.0  0.88309  0.74538  0.84449  1.0000
  H   H6415     1.0  0.95021  0.86677  0.74431  1.0000
  H   H6416     1.0  0.92704  0.89102  0.75746  1.0000
  H   H6417     1.0  0.93404  0.90521  0.77971  1.0000
  H   H6418     1.0  0.92519  0.83521  0.86349  1.0000
  C   C8024     1.0  0.97103  0.58408  0.78556  1.0000
  C   C8025     1.0  0.75160  0.53738  0.94739  1.0000
  C   C8026     1.0  0.74108  0.70099  0.73236  1.0000
  C   C8027     1.0  0.97685  0.83510  0.82590  1.0000
  C   C8028     1.0  0.95651  0.67455  0.81742  1.0000
  C   C8029     1.0  0.83620  0.88138  0.71501  1.0000
  C   C8030     1.0  0.96045  0.47390  0.87646  1.0000
  H   H6419     1.0  0.97329  0.81450  0.96163  1.0000
  C   C8031     1.0  0.96662  0.63794  0.81448  1.0000
  H   H6420     1.0  0.97262  0.80055  0.80165  1.0000
  C   C8032     1.0  0.79299  0.73011  0.78272  1.0000
  C   C8033     1.0  0.89373  0.74209  0.87248  1.0000
  C   C8034     1.0  0.75485  0.61305  0.83838  1.0000
  Fe  Fe542     1.0  0.98376  0.72862  0.85463  1.0000
  H   H6421     1.0  0.83720  0.61054  0.71899  1.0000
  S   S1085     1.0  0.98253  0.87002  0.81771  1.0000
  H   H6422     1.0  0.91525  0.77100  0.83732  1.0000
  C   C8035     1.0  0.76925  0.53732  0.93668  1.0000
  C   C8036     1.0  0.81258  0.64200  0.75352  1.0000
  H   H6423     1.0  0.91324  0.70101  0.87778  1.0000
  H   H6424     1.0  0.92944  0.66901  0.82964  1.0000
  C   C8037     1.0  0.90582  0.76203  0.84462  1.0000
  C   C8038     1.0  0.79099  0.55780  0.85992  1.0000
  C   C8039     1.0  0.76158  0.76678  0.72278  1.0000
  C   C8040     1.0  0.77253  0.55185  0.92210  1.0000
  H   H6425     1.0  0.79240  0.73975  0.73751  1.0000
  H   H6426     1.0  0.75905  0.67254  0.84731  1.0000
  H   H6427     1.0  0.82563  0.67630  0.84808  1.0000
  H   H6428     1.0  0.93862  0.63637  0.82768  1.0000
  C   C8041     1.0  0.75805  0.51967  0.90222  1.0000
  H   H6429     1.0  0.81828  0.66452  0.88150  1.0000
  H   H6430     1.0  0.96630  0.79619  0.91636  1.0000
  P   P268      1.0  0.75230  0.75240  0.74365  1.0000
  H   H6431     1.0  0.74557  0.69865  0.79513  1.0000
  H   H6432     1.0  0.73780  0.49465  0.86613  1.0000
  C   C8042     1.0  0.95523  0.58631  0.79933  1.0000
  C   C8043     1.0  0.95713  0.58275  0.81756  1.0000
  P   P269      1.0  0.93270  0.59469  0.79384  1.0000
  C   C8044     1.0  0.91679  0.58064  0.80790  1.0000
  C   C8045     1.0  0.92620  0.61827  0.79602  1.0000
  C   C8046     1.0  0.93557  0.63106  0.78332  1.0000
  C   C8047     1.0  0.93055  0.64948  0.78436  1.0000
  C   C8048     1.0  0.91627  0.65522  0.79819  1.0000
  C   C8049     1.0  0.90714  0.64254  0.81115  1.0000
  C   C8050     1.0  0.91219  0.62407  0.81021  1.0000
  C   C8051     1.0  0.92316  0.56267  0.81650  1.0000
  C   C8052     1.0  0.91069  0.55150  0.82633  1.0000
  C   C8053     1.0  0.89186  0.55797  0.82714  1.0000
  C   C8054     1.0  0.88547  0.57566  0.81818  1.0000
  C   C8055     1.0  0.89789  0.58692  0.80859  1.0000
  C   C8056     1.0  0.93278  0.59311  0.77093  1.0000
  C   C8057     1.0  0.94196  0.57714  0.76448  1.0000
  C   C8058     1.0  0.94239  0.57602  0.74662  1.0000
  C   C8059     1.0  0.74938  0.49955  0.81354  1.0000
  C   C8060     1.0  0.92306  0.60604  0.74197  1.0000
  C   C8061     1.0  0.92286  0.60735  0.75973  1.0000
  H   H6433     1.0  0.97039  0.62368  0.81358  1.0000
  H   H6434     1.0  0.87434  0.72740  0.86939  1.0000
  C   C8062     1.0  0.79065  0.47276  0.79069  1.0000
  H   H6435     1.0  0.94985  0.56384  0.74157  1.0000
  H   H6436     1.0  0.94514  0.58491  0.82832  1.0000
  H   H6437     1.0  0.94651  0.62681  0.77240  1.0000
  H   H6438     1.0  0.93759  0.65938  0.77438  1.0000
  H   H6439     1.0  0.91233  0.66952  0.79894  1.0000
  H   H6440     1.0  0.89607  0.64715  0.82184  1.0000
  H   H6441     1.0  0.90498  0.61451  0.82042  1.0000
  H   H6442     1.0  0.93774  0.55700  0.81518  1.0000
  H   H6443     1.0  0.91573  0.53761  0.83281  1.0000
  H   H6444     1.0  0.88226  0.54915  0.83435  1.0000
  H   H6445     1.0  0.87093  0.58060  0.81830  1.0000
  H   H6446     1.0  0.89279  0.60042  0.80137  1.0000
  H   H6447     1.0  0.80599  0.65051  0.76344  1.0000
  H   H6448     1.0  0.76933  0.73202  0.80446  1.0000
  H   H6449     1.0  0.97357  0.73984  0.93200  1.0000
  H   H6450     1.0  0.95307  0.48956  0.82665  1.0000
  H   H6451     1.0  0.91471  0.61936  0.76473  1.0000
  C   C8063     1.0  0.96047  0.49653  0.84842  1.0000
  H   H6452     1.0  0.91183  0.49229  0.78065  1.0000
  C   C8064     1.0  0.77644  0.61463  0.80944  1.0000
  C   C8065     1.0  0.77051  0.65965  0.80126  1.0000
  C   C8066     1.0  0.80062  0.57042  0.84747  1.0000
  C   C8067     1.0  0.75480  0.59494  0.83860  1.0000
  C   C8068     1.0  0.76819  0.74364  0.75900  1.0000
  C   C8069     1.0  0.77652  0.59647  0.80976  1.0000
  C   C8070     1.0  0.93650  0.77384  0.93954  1.0000
  H   H6453     1.0  0.89274  0.47895  0.80955  1.0000
  C   C8071     1.0  0.84430  0.71652  0.91274  1.0000
  H   H6454     1.0  0.97194  0.79272  0.87216  1.0000
  C   C8072     1.0  0.88511  0.77754  0.91644  1.0000
  C   C8073     1.0  0.74738  0.73273  0.73888  1.0000
  C   C8074     1.0  0.88768  0.76581  0.90450  1.0000
  H   H6455     1.0  0.79605  0.63698  0.87687  1.0000
  C   C8075     1.0  0.80644  0.62618  0.75445  1.0000
  C   C8076     1.0  0.97967  0.64915  0.80776  1.0000
  H   H6456     1.0  0.80972  0.61300  0.91202  1.0000
  H   H6457     1.0  0.78597  0.60551  0.86989  1.0000
  H   H6458     1.0  0.76975  0.64147  0.86247  1.0000
  H   H6459     1.0  0.96288  0.50971  0.84037  1.0000
  P   P270      1.0  0.89441  0.73119  0.89599  1.0000
  C   C8077     1.0  0.73862  0.61817  0.88942  1.0000
  C   C8078     1.0  0.88094  0.69915  0.91276  1.0000
  C   C8079     1.0  0.97785  0.91530  0.72859  1.0000
  H   H6460     1.0  0.92633  0.73137  0.91101  1.0000
  H   H6461     1.0  0.79511  0.62232  0.76511  1.0000
  C   C8080     1.0  0.95174  0.76017  0.94302  1.0000
  H   H6462     1.0  0.97826  0.62395  0.75189  1.0000
  H   H6463     1.0  0.77198  0.55254  0.88530  1.0000
  C   C8081     1.0  0.96481  0.80660  0.87265  1.0000
  H   H6464     1.0  0.88356  0.79209  0.91121  1.0000
  C   C8082     1.0  0.77516  0.68477  0.87470  1.0000
  C   C8083     1.0  0.76557  0.58667  0.82427  1.0000
  S   S1086     1.0  0.80189  0.69489  0.82225  1.0000
  C   C8084     1.0  0.74618  0.66961  0.84684  1.0000
  C   C8085     1.0  0.94731  0.70924  0.90292  1.0000
  C   C8086     1.0  0.95253  0.69529  0.89305  1.0000
  C   C8087     1.0  0.94016  0.69229  0.88412  1.0000
  C   C8088     1.0  0.92253  0.70316  0.88516  1.0000
  H   H6465     1.0  0.92865  0.78139  0.94994  1.0000
  H   H6466     1.0  0.89496  0.69220  0.91320  1.0000
  H   H6467     1.0  0.95718  0.71203  0.90918  1.0000
  H   H6468     1.0  0.96640  0.68726  0.89177  1.0000
  H   H6469     1.0  0.94445  0.68189  0.87596  1.0000
  C   C8089     1.0  0.97351  0.80343  0.92169  1.0000
  C   C8090     1.0  0.82230  0.48547  0.78960  1.0000
  H   H6470     1.0  0.81692  0.52878  0.72345  1.0000
  C   C8091     1.0  0.89062  0.59232  0.72257  1.0000
  C   C8092     1.0  0.74553  0.52847  0.86953  1.0000
  C   C8093     1.0  0.75503  0.70942  0.72074  1.0000
  P   P271      1.0  0.77418  0.50398  0.85283  1.0000
  C   C8094     1.0  0.75792  0.50078  0.84129  1.0000
  C   C8095     1.0  0.76210  0.51593  0.87108  1.0000
  H   H6471     1.0  0.93105  0.94708  0.72698  1.0000
  C   C8096     1.0  0.76225  0.50172  0.82236  1.0000
  C   C8097     1.0  0.81903  0.70106  0.72348  1.0000
  C   C8098     1.0  0.78916  0.67478  0.88393  1.0000
  P   P272      1.0  0.76273  0.58584  0.90029  1.0000
  C   C8099     1.0  0.94791  0.81277  0.86716  1.0000
  C   C8100     1.0  0.79001  0.51763  0.83767  1.0000
  C   C8101     1.0  0.80857  0.51366  0.83900  1.0000
  C   C8102     1.0  0.82088  0.52380  0.82667  1.0000
  C   C8103     1.0  0.81471  0.53819  0.81321  1.0000
  C   C8104     1.0  0.79618  0.54262  0.81216  1.0000
  C   C8105     1.0  0.78381  0.53251  0.82445  1.0000
  C   C8106     1.0  0.94864  0.64505  0.82251  1.0000
  C   C8107     1.0  0.81614  0.63614  0.85181  1.0000
  C   C8108     1.0  0.75828  0.72515  0.72407  1.0000
  H   H6472     1.0  0.93791  0.85596  0.87457  1.0000
  H   H6473     1.0  0.81594  0.48049  0.74468  1.0000
  H   H6474     1.0  0.78157  0.50287  0.88872  1.0000
  H   H6475     1.0  0.77563  0.50378  0.81440  1.0000
  Fe  Fe543     1.0  0.75390  0.67219  0.91949  1.0000
  H   H6476     1.0  0.74578  0.48608  0.73657  1.0000
  C   C8109     1.0  0.78336  0.64071  0.85396  1.0000
  H   H6477     1.0  0.87502  0.74138  0.83706  1.0000
  H   H6478     1.0  0.81367  0.50257  0.84932  1.0000
  H   H6479     1.0  0.83534  0.52021  0.82724  1.0000
  H   H6480     1.0  0.82432  0.54584  0.80349  1.0000
  H   H6481     1.0  0.79157  0.55367  0.80152  1.0000
  H   H6482     1.0  0.76951  0.53600  0.82336  1.0000
  H   H6483     1.0  0.83010  0.72324  0.91275  1.0000
  H   H6484     1.0  0.75334  0.64778  0.79115  1.0000
  C   C8110     1.0  0.80741  0.67209  0.87436  1.0000
  C   C8111     1.0  0.78390  0.68386  0.77935  1.0000
  C   C8112     1.0  0.96546  0.79721  0.77772  1.0000
  H   H6485     1.0  0.96294  0.84087  0.83188  1.0000
  H   H6486     1.0  0.83286  0.63639  0.82487  1.0000
  C   C8113     1.0  0.81902  0.63747  0.83299  1.0000
  C   C8114     1.0  0.76459  0.66869  0.77043  1.0000
  H   H6487     1.0  0.77776  0.69016  0.75251  1.0000
  H   H6488     1.0  0.74469  0.77690  0.76936  1.0000
  H   H6489     1.0  0.91532  0.61703  0.73343  1.0000
  C   C8115     1.0  0.81159  0.67875  0.85545  1.0000
  H   H6490     1.0  0.75509  0.62585  0.94327  1.0000
  H   H6491     1.0  0.86654  0.60802  0.73653  1.0000
  C   C8116     1.0  0.84156  0.48887  0.73204  1.0000
  C   C8117     1.0  0.76197  0.65774  0.78797  1.0000
  C   C8118     1.0  0.91821  0.48438  0.79198  1.0000
  C   C8119     1.0  0.97903  0.82198  0.77862  1.0000
  H   H6492     1.0  0.96759  0.84518  0.88456  1.0000
  C   C8120     1.0  0.75810  0.56642  0.91800  1.0000
  C   C8121     1.0  0.78708  0.73858  0.75206  1.0000
  C   C8122     1.0  0.85889  0.48474  0.72105  1.0000
  H   H6493     1.0  0.79213  0.54457  0.85696  1.0000
  H   H6494     1.0  0.80266  0.72528  0.79181  1.0000
  C   C8123     1.0  0.77415  0.73399  0.78980  1.0000
  S   S1087     1.0  0.74451  0.66551  0.94990  1.0000
  Fe  Fe544     1.0  0.83145  0.68868  0.80764  1.0000
  C   C8124     1.0  0.94350  0.66341  0.82374  1.0000
  C   C8125     1.0  0.79832  0.63770  0.86229  1.0000
  C   C8126     1.0  0.77825  0.57937  0.88012  1.0000
  H   H6495     1.0  0.88773  0.77162  0.89025  1.0000
  C   C8127     1.0  0.80407  0.64058  0.82461  1.0000
  C   C8128     1.0  0.97450  0.57609  0.82203  1.0000
  H   H6496     1.0  0.81402  0.72897  0.75856  1.0000
  C   C8129     1.0  0.88276  0.73747  0.86293  1.0000
  H   H6497     1.0  0.97629  0.64018  0.77624  1.0000
  C   C8130     1.0  0.89453  0.75773  0.83538  1.0000
  H   H6498     1.0  0.79249  0.69392  0.77608  1.0000
  C   C8131     1.0  0.96320  0.49106  0.86636  1.0000
  H   H6499     1.0  0.89529  0.76334  0.82093  1.0000
  H   H6500     1.0  0.97318  0.94737  0.84468  1.0000
  C   C8132     1.0  0.79554  0.61144  0.91562  1.0000
  H   H6501     1.0  0.79957  0.59335  0.89744  1.0000
  C   C8133     1.0  0.76173  0.74048  0.77802  1.0000
  H   H6502     1.0  0.83778  0.69008  0.92509  1.0000
  C   C8134     1.0  0.86528  0.65765  0.71546  1.0000
  C   C8135     1.0  0.78963  0.60058  0.90715  1.0000
  C   C8136     1.0  0.77558  0.68174  0.76611  1.0000
  C   C8137     1.0  0.79941  0.73221  0.76391  1.0000
  H   H6503     1.0  0.83214  0.65892  0.73956  1.0000
  H   H6504     1.0  0.78538  0.58991  0.79890  1.0000
  C   C8138     1.0  0.88508  0.77051  0.93496  1.0000
  C   C8139     1.0  0.81535  0.61492  0.74197  1.0000
  H   H6505     1.0  0.80600  0.59756  0.84135  1.0000
  H   H6506     1.0  0.81238  0.68949  0.72745  1.0000
  H   H6507     1.0  0.94231  0.80374  0.86237  1.0000
  H   H6508     1.0  0.89208  0.58146  0.73446  1.0000
  C   C8140     1.0  0.87991  0.68280  0.72518  1.0000
  C   C8141     1.0  0.78577  0.48121  0.86138  1.0000
  C   C8142     1.0  0.94977  0.95361  0.73984  1.0000
  H   H6509     1.0  0.83757  0.50128  0.73734  1.0000
  H   H6510     1.0  0.74696  0.61903  0.84989  1.0000
  C   C8143     1.0  0.77939  0.69165  0.85587  1.0000
  C   C8144     1.0  0.78309  0.62058  0.92857  1.0000
  H   H6511     1.0  0.95929  0.79769  0.75196  1.0000
  C   C8145     1.0  0.78757  0.59209  0.86734  1.0000
  H   H6512     1.0  0.80925  0.56701  0.83485  1.0000
  H   H6513     1.0  0.76107  0.68705  0.88204  1.0000
  C   C8146     1.0  0.93823  0.83053  0.86783  1.0000
  C   C8147     1.0  0.89012  0.73995  0.92971  1.0000
  H   H6514     1.0  0.78636  0.55183  0.91418  1.0000
  H   H6515     1.0  0.96525  0.91108  0.73631  1.0000
  C   C8148     1.0  0.74108  0.49639  0.85139  1.0000
  H   H6516     1.0  0.95771  0.79748  0.94899  1.0000
  H   H6517     1.0  0.96860  0.95545  0.87485  1.0000
  C   C8149     1.0  0.96501  0.80439  0.75931  1.0000
  C   C8150     1.0  0.97239  0.80606  0.78736  1.0000
  C   C8151     1.0  0.97461  0.66741  0.80972  1.0000
  C   C8152     1.0  0.98098  0.95733  0.86476  1.0000
  H   H6518     1.0  0.83831  0.86889  0.72511  1.0000
  C   C8153     1.0  0.97936  0.82888  0.75995  1.0000
  C   C8154     1.0  0.97178  0.82025  0.75046  1.0000
  H   H6519     1.0  0.74717  0.74315  0.78379  1.0000
  C   C8155     1.0  0.83038  0.61946  0.72851  1.0000
  C   C8156     1.0  0.73733  0.55208  0.94366  1.0000
  H   H6520     1.0  0.81095  0.60236  0.74306  1.0000
  H   H6521     1.0  0.93347  0.58951  0.72153  1.0000
  S   S1088     1.0  0.98393  0.75407  0.86334  1.0000
  H   H6522     1.0  0.76633  0.47776  0.88701  1.0000
  C   C8157     1.0  0.98211  0.81622  0.82670  1.0000
  H   H6523     1.0  0.98093  0.88078  0.87181  1.0000
  H   H6524     1.0  0.97087  0.82579  0.73634  1.0000
  H   H6525     1.0  0.74899  0.52613  0.95869  1.0000
  C   C8158     1.0  0.82935  0.47702  0.73623  1.0000
  H   H6526     1.0  0.98399  0.82889  0.78642  1.0000
  C   C8159     1.0  0.79210  0.47399  0.72291  1.0000
  C   C8160     1.0  0.94542  0.47196  0.80497  1.0000
  H   H6527     1.0  0.98381  0.91300  0.85945  1.0000
  H   H6528     1.0  0.76942  0.73129  0.71513  1.0000
