data_image0
_chemical_formula_structural       CS2FeS2FeSFeS2CFeS2FeS2FeSFeS3FeS2FeH2FeSHS2C2HC2HC6H5C3H2C6H4C6H3C3H3CHC5HC2FeH3C2HC2H3CH2C7H2CH2CHC6PC13HC3H15CHC2HC4PC18H4C2H13C2H2FeCHSHC2PC19H2CH8C2H6CHC3HCHC2PCHC4H2C2H3C2HCHCH3CHCH3CSC2H3CHC2HCHCHCHCH2C2PCHCHCH3C3HCSHCHCFeS2FeS2FeSFeS3FeSHFeS2FeHFeS3HC7H4C6H3C7H4C6H4C7H2C2HSPHCHCHC7PC3HSPHC11H7CH12CHC6HC2HSH2CHCHC2H2CHCHC11H2C2HCHC3HC2PHC3SH2CH3C7H2C5HCHCHCH4C2H3C2H2C3H2CHCHC4H2CH2C2HCHC2HC3HC2H2CH3C2HCHCHPC6H2SH7C2H5SC3H5C2PSCFeS2HFeSC2FeS2FeCHFeH2CS2FeS2FeS2FeSFeHS2HC8H3C7H4C3HCH3CSC2HC2H2CH2SH2C2H3C4HCHCH2CH2PCH2SCHCPC7HCHCH2C2HCHC6H5SCHCHC5HCH3C2HCHCH4CH2CHCHCHCHCH2FeCFeC5H3CH6C2HCHC2HPC10HC3HC6HCH6C4HCH7CHC10HCH2C2H2SCHSHCH6SC3HPCPC2HPH3C5H3CFeC8HC2H4C4HC5H2CHC2HCHC4PHCFeSHFeS2FeSFeS3FeS2FeS2FeSFeS3FeS2HC2FeSHSH3CH2C7H6C2HC7H4C6H4C3HC3HCH2C3PC8H2C3FeC2H3CH10CHC3H3C2H2SC2FeC5H2C5H3C3HCHC2H3C9PC17H15CPHCHC2HCHCHC4PC14HC3H13CH6CH3C4H2C4H4C3H2CH3CH3SHCSHCH2C2H3C2HPHCH3CFeS2FeS2FeSFeS3FeCSFeS2FeHFeS3H2C6H4C6H4C6H4C6H4C6H4C4HC2H2CH2C4PC16HC2HCHCH4CH7C2H3CH3C7PC18H20C4HC3HPCHCHCHC12HCH2CHCH13CSH4C2H2C2HSH2C2HCH2C5H3CHCHC3H2CHCHCH4C2HC2SCHC2HCHCH3CHPCSCHCH5C2HC2PCHC2HC6H4C2HCFeHFeS2Fe2SHSFeS2FeS2FeHFeS3FeS2FeS2FeSFeHS2C2PC6H4C6H4C6H3C2HC2HCH3CH3CHC2H3C6HC2H2C2H3CHCH3C2HC3HC3H3CH2CHC3H2C2SCHC2HCH4CHC5SC2HCHC3H2CHC2H2C7H2C2PH3C4H3C4HCSCHSHCHCH6C2HPH4C6PC2HC7HC8H4C2H5C2H6C3H2C2PHCH2CHC3H2SH2C3H2C2H4CHCHC4H2CH2C2HC2HCSFeS2FeSFeSHFeS2FeS2FeSFeCS2FeS2FeS2FeSFeS3C4HC6H4C6H3CHC5HC2HC4HC3H9C6PC2H3C4HC5HCH5CHCH3CHCH4PH2CH2CHCHP2C9HC10H2CH9CH6CHC2H2C2HC2HCHCH2C2HC2H4C2H2C4HCHC2HC4HC7HCHC2HC2HC2HCH2CHC2HCH3CSHCPH2C4H3C4H2C2H2SCH4CHC4HC6HCHC2HCSC2H4FeH2C3HC2H3C2FeS2FeS2FeSFeS3CHFeS2FeS2FeSFeSHSCHC2HC6H4C6H6PC8H4C6H4C6H3CH4CH2CH2C2HC5H3CPC6PC8HC9H18CH3C2H2CH3CHC7PC14H3CH14CHCH2C2HCH2CHCSCH2C2HC2HCHCHC2HCH2C2H2C4H2C5H2PCHC2HCHCHCHC3HC6HCH2C2HC3HC2H3CH6C3H4C3SHC5HC2HC2PHSCH3C2HCHFeS3FeSCSFeSHFeS2FeHFeS3FeS2FeS2FeSFeCS2CH2SCH2C6H4C7H4FeC3H2C6H4CHCHC7PC18HCH18C2H2PC3HC5HC2H3CHC2H5SHCH2C2HC3PC3H2C11SCH2CHCH10CHCHC2SC5H3FeC2H2CHC2HC2H2CHC2HCH3CPH2C2HCH5C2H2C3HCH2CH2C5SC4HC3HCH3C3HC2HCH4CH2C5H2CFeS2FeSHSHFeS2FeS2FeSFeHS2FeS2FeS2FeSFeS3HC10H4C6H5C4H3FeC2H2CH2CPH2CHC2HCHC3H2C6PC3HC4PCHC2HC2H4CHCH4CFeC2H2CHC2HCHC6HCHCHC3H2CHCHC2H5C2HCHC2HCH4CH2CH2C9H4C4H2C4HC3H2C5H2C7H4C2HCH5CH2SH2C3H11CPCH3CHC2HC6PC18H2C2HC2HCHCHC3H3SHC3SHCH6C2HCPC3H6C2H3CHFeS2FeS2FeSFeS3C2FeS2FeSCFeSFeS3HCHC8H3C8HCHC3HSC6H4C6H4C6H3CH2C3HCHC2H4CHSC2H2CHCH2CHC2HC3HC2HCHC2H2CHPC2HC2PC3PC2H2C2H5C2H3C2HC4H2CH3C3H5CH3CHCH3C2HCHCHC2HCH2CH5CHCHCHCPHC2H3C2H2C2HC3H3C2H2C4H2C3HCHC3H2C2HC2HCH3CHCH2C2H2C3HCHC3HCHCHCHCH2C5SCH2CHCH4FeS2CFeSCSFeSPFeS2FeCFeS3FeS2FeS2FeSFeS3C2H2FeH2C6H4C6H3CHCH3CHC6H4CHCHSH3CHPC11H6CHCH8SCH8C2H3CHCHCH4C9H3PC3H2C2H2C2HC2H2CH2CHSCHC2HC3HFeHC4HC6HC2H2CH2CHC3HC2HSCH2C3HC9HCHC3HC2H2C3HPC3H2C2H2C2H2C2H2C10H4CH2C6PHCHCPCH4CHC2H2CSC3H4CHC3H2C2HS
_chemical_formula_sum              "C1920 S256 Fe128 H1536 P64"
_cell_length_a       38.2443
_cell_length_b       40.121
_cell_length_c       69.3076
_cell_angle_alpha    89.7848
_cell_angle_beta     89.8534
_cell_angle_gamma    89.88

_space_group_name_H-M_alt    "P 1"
_space_group_IT_number       1

loop_
  _space_group_symop_operation_xyz
  'x, y, z'

loop_
  _atom_site_type_symbol
  _atom_site_label
  _atom_site_symmetry_multiplicity
  _atom_site_fract_x
  _atom_site_fract_y
  _atom_site_fract_z
  _atom_site_occupancy
  C   C1        1.0  0.29670  0.27899  0.01959  1.0000
  S   S1        1.0  0.38982  0.44345  0.08390  1.0000
  S   S2        1.0  0.34699  0.02479  0.08459  1.0000
  Fe  Fe1       1.0  0.31749  0.44256  0.04423  1.0000
  S   S3        1.0  0.36765  0.41375  0.04140  1.0000
  S   S4        1.0  0.27281  0.44557  0.02240  1.0000
  Fe  Fe2       1.0  0.35936  0.39954  0.07275  1.0000
  S   S5        1.0  0.36381  0.34389  0.08012  1.0000
  Fe  Fe3       1.0  0.39400  0.46000  0.05265  1.0000
  S   S6        1.0  0.44723  0.48030  0.04285  1.0000
  S   S7        1.0  0.30765  0.42587  0.07472  1.0000
  C   C2        1.0  0.09314  0.00746  0.30244  1.0000
  Fe  Fe4       1.0  0.36634  0.21658  0.17552  1.0000
  S   S8        1.0  0.31912  0.18267  0.17614  1.0000
  S   S9        1.0  0.37075  0.26807  0.16135  1.0000
  Fe  Fe5       1.0  0.40296  0.17860  0.20876  1.0000
  S   S10       1.0  0.35834  0.14323  0.21162  1.0000
  S   S11       1.0  0.45140  0.17989  0.22821  1.0000
  Fe  Fe6       1.0  0.35855  0.14100  0.17915  1.0000
  S   S12       1.0  0.35353  0.08697  0.16918  1.0000
  Fe  Fe7       1.0  0.32220  0.18718  0.20848  1.0000
  S   S13       1.0  0.27337  0.18856  0.22768  1.0000
  S   S14       1.0  0.40585  0.17449  0.17634  1.0000
  S   S15       1.0  0.36685  0.22311  0.20783  1.0000
  Fe  Fe8       1.0  0.16194  0.31671  0.28970  1.0000
  S   S16       1.0  0.12368  0.27500  0.29266  1.0000
  S   S17       1.0  0.20602  0.31743  0.26724  1.0000
  Fe  Fe9       1.0  0.12610  0.35654  0.32241  1.0000
  H   H1        1.0  0.29565  0.34840  0.05841  1.0000
  H   H2        1.0  0.47674  0.07925  0.30862  1.0000
  Fe  Fe10      1.0  0.08178  0.31452  0.29524  1.0000
  S   S18       1.0  0.02819  0.30971  0.28067  1.0000
  H   H3        1.0  0.01475  0.42270  0.25277  1.0000
  S   S19       1.0  0.11967  0.35605  0.29002  1.0000
  S   S20       1.0  0.34432  0.49008  0.05341  1.0000
  C   C3        1.0  0.31238  0.13718  0.31431  1.0000
  C   C4        1.0  0.45147  0.08814  0.30369  1.0000
  H   H4        1.0  0.04562  0.37937  0.27201  1.0000
  C   C5        1.0  0.02135  0.37339  0.26484  1.0000
  C   C6        1.0  0.27652  0.43639  0.14642  1.0000
  H   H5        1.0  0.20789  0.09244  0.27354  1.0000
  C   C7        1.0  0.25555  0.22477  0.23869  1.0000
  C   C8        1.0  0.22836  0.22117  0.25225  1.0000
  C   C9        1.0  0.21318  0.24915  0.26125  1.0000
  C   C10       1.0  0.22485  0.28125  0.25665  1.0000
  C   C11       1.0  0.25212  0.28484  0.24312  1.0000
  C   C12       1.0  0.26746  0.25681  0.23420  1.0000
  H   H6        1.0  0.21883  0.19658  0.25573  1.0000
  H   H7        1.0  0.19239  0.24591  0.27170  1.0000
  H   H8        1.0  0.26147  0.30944  0.23953  1.0000
  H   H9        1.0  0.28831  0.25998  0.22379  1.0000
  H   H10       1.0  0.01800  0.18889  0.18612  1.0000
  C   C13       1.0  0.18888  0.15369  0.30571  1.0000
  C   C14       1.0  0.38519  0.37606  0.18940  1.0000
  C   C15       1.0  0.37462  0.21431  0.25618  1.0000
  H   H11       1.0  0.29514  0.17989  0.28467  1.0000
  H   H12       1.0  0.31109  0.05916  0.20906  1.0000
  C   C16       1.0  0.36792  0.28823  0.13851  1.0000
  C   C17       1.0  0.36664  0.27068  0.12112  1.0000
  C   C18       1.0  0.36509  0.28816  0.10341  1.0000
  C   C19       1.0  0.36456  0.32327  0.10288  1.0000
  C   C20       1.0  0.36519  0.34076  0.12028  1.0000
  C   C21       1.0  0.36704  0.32330  0.13795  1.0000
  H   H13       1.0  0.36717  0.24373  0.12131  1.0000
  H   H14       1.0  0.36439  0.27440  0.09003  1.0000
  H   H15       1.0  0.36482  0.36773  0.12013  1.0000
  H   H16       1.0  0.36807  0.33711  0.15130  1.0000
  C   C22       1.0  0.34635  0.04126  0.10835  1.0000
  C   C23       1.0  0.34670  0.07610  0.11067  1.0000
  C   C24       1.0  0.34888  0.09057  0.12914  1.0000
  C   C25       1.0  0.35034  0.07027  0.14555  1.0000
  C   C26       1.0  0.34943  0.03543  0.14326  1.0000
  C   C27       1.0  0.34739  0.02095  0.12478  1.0000
  H   H17       1.0  0.34556  0.09199  0.09806  1.0000
  H   H18       1.0  0.34938  0.11737  0.13068  1.0000
  H   H19       1.0  0.35054  0.01951  0.15588  1.0000
  C   C28       1.0  0.47114  0.03975  0.12042  1.0000
  C   C29       1.0  0.45805  0.11563  0.24368  1.0000
  C   C30       1.0  0.47169  0.14792  0.24225  1.0000
  H   H20       1.0  0.41114  0.15987  0.29048  1.0000
  H   H21       1.0  0.43416  0.10955  0.23616  1.0000
  H   H22       1.0  0.24562  0.26583  0.02991  1.0000
  C   C31       1.0  0.42424  0.05227  0.05326  1.0000
  H   H23       1.0  0.40229  0.18239  0.12586  1.0000
  C   C32       1.0  0.40906  0.12738  0.08876  1.0000
  C   C33       1.0  0.32481  0.32507  0.03569  1.0000
  C   C34       1.0  0.46042  0.39574  0.02850  1.0000
  C   C35       1.0  0.03137  0.39271  0.33442  1.0000
  C   C36       1.0  0.44986  0.08628  0.16174  1.0000
  H   H24       1.0  0.26892  0.09801  0.22446  1.0000
  C   C37       1.0  0.31720  0.07043  0.22285  1.0000
  C   C38       1.0  0.37457  0.32180  0.20355  1.0000
  Fe  Fe11      1.0  0.13126  0.28020  0.32474  1.0000
  H   H25       1.0  0.38437  0.29922  0.21026  1.0000
  H   H26       1.0  0.37152  0.05909  0.29079  1.0000
  H   H27       1.0  0.29336  0.07153  0.28504  1.0000
  C   C39       1.0  0.39223  0.07690  0.29334  1.0000
  C   C40       1.0  0.33465  0.10233  0.25753  1.0000
  H   H28       1.0  0.44244  0.08429  0.08834  1.0000
  C   C41       1.0  0.44306  0.36239  0.05608  1.0000
  C   C42       1.0  0.01138  0.36970  0.32420  1.0000
  H   H29       1.0  0.29704  0.25961  0.00875  1.0000
  H   H30       1.0  0.19723  0.40440  0.24545  1.0000
  H   H31       1.0  0.42591  0.09046  0.18979  1.0000
  C   C43       1.0  0.17949  0.08524  0.30018  1.0000
  H   H32       1.0  0.28397  0.12607  0.25493  1.0000
  H   H33       1.0  0.39708  0.05604  0.05729  1.0000
  C   C44       1.0  0.45825  0.39122  0.04848  1.0000
  C   C45       1.0  0.26826  0.08186  0.31209  1.0000
  C   C46       1.0  0.32540  0.30018  0.02167  1.0000
  C   C47       1.0  0.28209  0.38709  0.12670  1.0000
  C   C48       1.0  0.41114  0.16097  0.11765  1.0000
  C   C49       1.0  0.31390  0.11647  0.29804  1.0000
  C   C50       1.0  0.31799  0.18923  0.27722  1.0000
  H   H34       1.0  0.29702  0.23910  0.27545  1.0000
  H   H35       1.0  0.32169  0.30451  0.20315  1.0000
  C   C51       1.0  0.42989  0.33807  0.04371  1.0000
  H   H36       1.0  0.01612  0.34826  0.06318  1.0000
  H   H37       1.0  0.21609  0.15307  0.27847  1.0000
  C   C52       1.0  0.29196  0.08848  0.29714  1.0000
  H   H38       1.0  0.28328  0.34049  0.14151  1.0000
  C   C53       1.0  0.09994  0.19575  0.30268  1.0000
  C   C54       1.0  0.07010  0.21062  0.31051  1.0000
  C   C55       1.0  0.04484  0.22440  0.29832  1.0000
  C   C56       1.0  0.04960  0.22360  0.27832  1.0000
  C   C57       1.0  0.07976  0.20912  0.27031  1.0000
  C   C58       1.0  0.10509  0.19533  0.28268  1.0000
  P   P1        1.0  0.08691  0.21241  0.24459  1.0000
  C   C59       1.0  0.08863  0.25665  0.23954  1.0000
  C   C60       1.0  0.12561  0.19016  0.23682  1.0000
  C   C61       1.0  0.13034  0.15674  0.24239  1.0000
  C   C62       1.0  0.16007  0.13909  0.23651  1.0000
  C   C63       1.0  0.18490  0.15443  0.22463  1.0000
  C   C64       1.0  0.17967  0.18717  0.21836  1.0000
  C   C65       1.0  0.15006  0.20496  0.22429  1.0000
  C   C66       1.0  0.05849  0.27375  0.23340  1.0000
  C   C67       1.0  0.05906  0.30836  0.23094  1.0000
  C   C68       1.0  0.08948  0.32626  0.23487  1.0000
  C   C69       1.0  0.11945  0.30954  0.24115  1.0000
  C   C70       1.0  0.11897  0.27493  0.24364  1.0000
  C   C71       1.0  0.05140  0.19329  0.23165  1.0000
  H   H39       1.0  0.46786  0.13931  0.30182  1.0000
  C   C72       1.0  0.47606  0.20232  0.04675  1.0000
  C   C73       1.0  0.11001  0.03652  0.30852  1.0000
  C   C74       1.0  0.47443  0.01583  0.05072  1.0000
  H   H40       1.0  0.06742  0.21279  0.32603  1.0000
  H   H41       1.0  0.29879  0.37895  0.01395  1.0000
  H   H42       1.0  0.03045  0.23573  0.26916  1.0000
  H   H43       1.0  0.12962  0.18592  0.27717  1.0000
  H   H44       1.0  0.11109  0.14442  0.25141  1.0000
  H   H45       1.0  0.16387  0.11353  0.24112  1.0000
  H   H46       1.0  0.20834  0.14114  0.22029  1.0000
  H   H47       1.0  0.19915  0.19894  0.20924  1.0000
  H   H48       1.0  0.14652  0.23013  0.21903  1.0000
  H   H49       1.0  0.03410  0.26072  0.23120  1.0000
  H   H50       1.0  0.43977  0.09417  0.00707  1.0000
  H   H51       1.0  0.08945  0.35319  0.23360  1.0000
  H   H52       1.0  0.14279  0.32352  0.24466  1.0000
  H   H53       1.0  0.14201  0.26266  0.24930  1.0000
  H   H54       1.0  0.44595  0.14438  0.13983  1.0000
  C   C75       1.0  0.46008  0.49844  0.02046  1.0000
  H   H55       1.0  0.06612  0.21526  0.20425  1.0000
  C   C76       1.0  0.48204  0.09487  0.19133  1.0000
  C   C77       1.0  0.31883  0.22289  0.27191  1.0000
  H   H56       1.0  0.39649  0.22380  0.24784  1.0000
  C   C78       1.0  0.27991  0.42171  0.12829  1.0000
  C   C79       1.0  0.49288  0.14159  0.06433  1.0000
  C   C80       1.0  0.27715  0.38152  0.16161  1.0000
  C   C81       1.0  0.27529  0.41646  0.16302  1.0000
  P   P2        1.0  0.28057  0.35649  0.18338  1.0000
  C   C82       1.0  0.26383  0.31466  0.18018  1.0000
  C   C83       1.0  0.32627  0.35336  0.18979  1.0000
  C   C84       1.0  0.34962  0.37915  0.18507  1.0000
  C   C85       1.0  0.16572  0.10048  0.31676  1.0000
  C   C86       1.0  0.47587  0.19957  0.06687  1.0000
  C   C87       1.0  0.33898  0.32483  0.19932  1.0000
  C   C88       1.0  0.01734  0.25213  0.00489  1.0000
  C   C89       1.0  0.28211  0.29219  0.16843  1.0000
  C   C90       1.0  0.27166  0.25896  0.16714  1.0000
  C   C91       1.0  0.24314  0.24758  0.17790  1.0000
  C   C92       1.0  0.22473  0.26967  0.18973  1.0000
  C   C93       1.0  0.23493  0.30307  0.19087  1.0000
  C   C94       1.0  0.25620  0.37549  0.20280  1.0000
  C   C95       1.0  0.26799  0.37270  0.22191  1.0000
  C   C96       1.0  0.44374  0.07838  0.04528  1.0000
  C   C97       1.0  0.21392  0.39710  0.23351  1.0000
  C   C98       1.0  0.20224  0.40055  0.21451  1.0000
  C   C99       1.0  0.22320  0.38963  0.19920  1.0000
  H   H57       1.0  0.38458  0.07699  0.25435  1.0000
  H   H58       1.0  0.27403  0.42844  0.17698  1.0000
  H   H59       1.0  0.34070  0.40145  0.17778  1.0000
  H   H60       1.0  0.40318  0.39575  0.18539  1.0000
  C   C100      1.0  0.30212  0.10822  0.24879  1.0000
  C   C101      1.0  0.29343  0.09228  0.23154  1.0000
  H   H61       1.0  0.11133  0.05766  0.29881  1.0000
  H   H62       1.0  0.30540  0.30004  0.16086  1.0000
  H   H63       1.0  0.28663  0.24189  0.15830  1.0000
  H   H64       1.0  0.23590  0.22149  0.17745  1.0000
  H   H65       1.0  0.20320  0.26075  0.19850  1.0000
  H   H66       1.0  0.41669  0.31651  0.04975  1.0000
  H   H67       1.0  0.29288  0.36109  0.22515  1.0000
  H   H68       1.0  0.01450  0.30088  0.08635  1.0000
  H   H69       1.0  0.44022  0.35947  0.07158  1.0000
  H   H70       1.0  0.43136  0.10242  0.04326  1.0000
  H   H71       1.0  0.21318  0.39118  0.18461  1.0000
  H   H72       1.0  0.34751  0.26141  0.25708  1.0000
  H   H73       1.0  0.00694  0.37318  0.30887  1.0000
  C   C102      1.0  0.28824  0.13082  0.32906  1.0000
  C   C103      1.0  0.39769  0.34730  0.19852  1.0000
  H   H74       1.0  0.42434  0.00078  0.06203  1.0000
  H   H75       1.0  0.39448  0.16431  0.25633  1.0000
  Fe  Fe12      1.0  0.33848  0.47108  0.08385  1.0000
  C   C104      1.0  0.00733  0.34135  0.26666  1.0000
  H   H76       1.0  0.42849  0.03930  0.30325  1.0000
  S   S21       1.0  0.17178  0.32090  0.32162  1.0000
  H   H77       1.0  0.19275  0.18020  0.30802  1.0000
  C   C105      1.0  0.26615  0.30853  0.04519  1.0000
  C   C106      1.0  0.29535  0.32924  0.04745  1.0000
  P   P3        1.0  0.22958  0.31155  0.06158  1.0000
  C   C107      1.0  0.18912  0.30211  0.04934  1.0000
  C   C108      1.0  0.24037  0.28370  0.08121  1.0000
  C   C109      1.0  0.26518  0.29346  0.09500  1.0000
  C   C110      1.0  0.27413  0.27203  0.11016  1.0000
  C   C111      1.0  0.25933  0.24027  0.11131  1.0000
  C   C112      1.0  0.23565  0.22989  0.09722  1.0000
  C   C113      1.0  0.22637  0.25141  0.08213  1.0000
  C   C114      1.0  0.16003  0.29035  0.05971  1.0000
  C   C115      1.0  0.12853  0.28381  0.05018  1.0000
  C   C116      1.0  0.12564  0.28968  0.03035  1.0000
  C   C117      1.0  0.15410  0.30249  0.02008  1.0000
  C   C118      1.0  0.18559  0.30895  0.02953  1.0000
  C   C119      1.0  0.22390  0.35373  0.06998  1.0000
  C   C120      1.0  0.21558  0.36035  0.08935  1.0000
  C   C121      1.0  0.21073  0.39320  0.09554  1.0000
  C   C122      1.0  0.21340  0.41954  0.08237  1.0000
  C   C123      1.0  0.22043  0.41300  0.06296  1.0000
  C   C124      1.0  0.22563  0.38023  0.05678  1.0000
  C   C125      1.0  0.34597  0.16801  0.27241  1.0000
  H   H78       1.0  0.39832  0.12256  0.07460  1.0000
  H   H79       1.0  0.10126  0.28457  0.02293  1.0000
  C   C126      1.0  0.27317  0.38147  0.00757  1.0000
  H   H80       1.0  0.34723  0.34118  0.03759  1.0000
  H   H81       1.0  0.27791  0.31753  0.09394  1.0000
  H   H82       1.0  0.29301  0.27988  0.12085  1.0000
  H   H83       1.0  0.26670  0.22352  0.12292  1.0000
  H   H84       1.0  0.22477  0.20498  0.09789  1.0000
  H   H85       1.0  0.20877  0.24257  0.07107  1.0000
  H   H86       1.0  0.16157  0.28639  0.07514  1.0000
  H   H87       1.0  0.10621  0.27429  0.05812  1.0000
  C   C127      1.0  0.43569  0.13906  0.12563  1.0000
  C   C128      1.0  0.43798  0.02904  0.11458  1.0000
  H   H88       1.0  0.20702  0.31945  0.02131  1.0000
  H   H89       1.0  0.21263  0.34029  0.09970  1.0000
  H   H90       1.0  0.20493  0.39828  0.11056  1.0000
  H   H91       1.0  0.21005  0.44504  0.08716  1.0000
  H   H92       1.0  0.22230  0.43337  0.05270  1.0000
  H   H93       1.0  0.23094  0.37553  0.04169  1.0000
  C   C129      1.0  0.44644  0.12201  0.29990  1.0000
  H   H94       1.0  0.48456  0.17735  0.01983  1.0000
  C   C130      1.0  0.42431  0.06561  0.30053  1.0000
  C   C131      1.0  0.20189  0.13847  0.28907  1.0000
  C   C132      1.0  0.47569  0.09103  0.25464  1.0000
  H   H95       1.0  0.28583  0.37585  0.11263  1.0000
  C   C133      1.0  0.43962  0.02107  0.05603  1.0000
  H   H96       1.0  0.48236  0.09844  0.20682  1.0000
  C   C134      1.0  0.35862  0.08070  0.24857  1.0000
  C   C135      1.0  0.28069  0.36705  0.14325  1.0000
  P   P4        1.0  0.34569  0.12450  0.27930  1.0000
  C   C136      1.0  0.38724  0.11081  0.28900  1.0000
  H   H97       1.0  0.03042  0.16625  0.25624  1.0000
  C   C137      1.0  0.17108  0.13475  0.31957  1.0000
  C   C138      1.0  0.02078  0.18412  0.20145  1.0000
  C   C139      1.0  0.41430  0.13345  0.29293  1.0000
  C   C140      1.0  0.24681  0.38332  0.23718  1.0000
  H   H98       1.0  0.37819  0.17172  0.09325  1.0000
  H   H99       1.0  0.25530  0.37970  0.25197  1.0000
  C   C141      1.0  0.39766  0.15503  0.09927  1.0000
  C   C142      1.0  0.43216  0.34243  0.02370  1.0000
  H   H100      1.0  0.41666  0.04649  0.11311  1.0000
  H   H101      1.0  0.34810  0.29727  0.01247  1.0000
  H   H102      1.0  0.17653  0.41087  0.21171  1.0000
  C   C143      1.0  0.34720  0.23547  0.26147  1.0000
  C   C144      1.0  0.34973  0.06462  0.23139  1.0000
  H   H103      1.0  0.42535  0.34457  0.20148  1.0000
  C   C145      1.0  0.37357  0.18056  0.26118  1.0000
  H   H104      1.0  0.28161  0.43730  0.11551  1.0000
  C   C146      1.0  0.02791  0.17170  0.24100  1.0000
  H   H105      1.0  0.22081  0.31918  0.20065  1.0000
  H   H106      1.0  0.02233  0.23717  0.30433  1.0000
  H   H107      1.0  0.17722  0.05858  0.29814  1.0000
  C   C147      1.0  0.19718  0.10428  0.28629  1.0000
  H   H108      1.0  0.27590  0.46335  0.14754  1.0000
  C   C148      1.0  0.26737  0.28284  0.03148  1.0000
  H   H109      1.0  0.47054  0.41911  0.02300  1.0000
  H   H110      1.0  0.15178  0.30751  0.00474  1.0000
  H   H111      1.0  0.12008  0.18650  0.31224  1.0000
  C   C149      1.0  0.49395  0.04176  0.04252  1.0000
  S   S22       1.0  0.08611  0.31611  0.32766  1.0000
  C   C150      1.0  0.43372  0.10550  0.09668  1.0000
  C   C151      1.0  0.45030  0.09044  0.18175  1.0000
  H   H112      1.0  0.46504  0.06612  0.25554  1.0000
  H   H113      1.0  0.46893  0.22090  0.07567  1.0000
  H   H114      1.0  0.42057  0.32401  0.01432  1.0000
  C   C152      1.0  0.44667  0.11075  0.11535  1.0000
  H   H115      1.0  0.03545  0.32152  0.22675  1.0000
  C   C153      1.0  0.44814  0.37101  0.01594  1.0000
  C   C154      1.0  0.25472  0.41130  0.00973  1.0000
  H   H116      1.0  0.25148  0.06019  0.31140  1.0000
  C   C155      1.0  0.12443  0.03826  0.32711  1.0000
  H   H117      1.0  0.16176  0.14691  0.33256  1.0000
  C   C156      1.0  0.04792  0.19906  0.21176  1.0000
  H   H118      1.0  0.36860  0.04870  0.22421  1.0000
  C   C157      1.0  0.48112  0.08718  0.15110  1.0000
  H   H119      1.0  0.42504  0.08281  0.15452  1.0000
  C   C158      1.0  0.00377  0.39793  0.25387  1.0000
  H   H120      1.0  0.46706  0.41079  0.05806  1.0000
  H   H121      1.0  0.46928  0.22584  0.03997  1.0000
  C   C159      1.0  0.48472  0.17473  0.03538  1.0000
  C   C160      1.0  0.00082  0.15675  0.23064  1.0000
  P   P5        1.0  0.47962  0.08320  0.12519  1.0000
  C   C161      1.0  0.26614  0.10321  0.32794  1.0000
  H   H122      1.0  0.32979  0.15835  0.31553  1.0000
  C   C162      1.0  0.47875  0.07334  0.03975  1.0000
  H   H123      1.0  0.04256  0.41403  0.32700  1.0000
  C   C163      1.0  0.49312  0.14411  0.04412  1.0000
  H   H124      1.0  0.48408  0.16707  0.09124  1.0000
  H   H125      1.0  0.08223  0.00601  0.28806  1.0000
  H   H126      1.0  0.09582  0.12661  0.32126  1.0000
  C   C164      1.0  0.49184  0.11516  0.00489  1.0000
  C   C165      1.0  0.48443  0.16925  0.07564  1.0000
  C   C166      1.0  0.99833  0.34148  0.33358  1.0000
  H   H127      1.0  0.99640  0.28188  0.02805  1.0000
  C   C167      1.0  0.99719  0.16302  0.21089  1.0000
  S   S23       1.0  0.12028  0.40884  0.33516  1.0000
  H   H128      1.0  0.20697  0.43732  0.00271  1.0000
  C   C168      1.0  0.99657  0.25755  0.02142  1.0000
  H   H129      1.0  0.09028  0.37330  0.41657  1.0000
  C   C169      1.0  0.01051  0.05729  0.58894  1.0000
  Fe  Fe13      1.0  0.41437  0.18943  0.54451  1.0000
  S   S24       1.0  0.36866  0.22463  0.54490  1.0000
  S   S25       1.0  0.45699  0.18680  0.52118  1.0000
  Fe  Fe14      1.0  0.39002  0.15488  0.58216  1.0000
  S   S26       1.0  0.34300  0.18863  0.58521  1.0000
  S   S27       1.0  0.41211  0.11560  0.60297  1.0000
  Fe  Fe15      1.0  0.33575  0.17992  0.55300  1.0000
  S   S28       1.0  0.28077  0.17403  0.53958  1.0000
  Fe  Fe16      1.0  0.37939  0.23059  0.57676  1.0000
  S   S29       1.0  0.38878  0.28362  0.58822  1.0000
  S   S30       1.0  0.38092  0.14408  0.55060  1.0000
  S   S31       1.0  0.42684  0.19738  0.57574  1.0000
  Fe  Fe17      1.0  0.08272  0.05119  0.45475  1.0000
  S   S32       1.0  0.13403  0.02322  0.45356  1.0000
  H   H130      1.0  0.31972  0.39996  0.62109  1.0000
  Fe  Fe18      1.0  0.11115  0.10889  0.42968  1.0000
  S   S33       1.0  0.16430  0.08520  0.42711  1.0000
  S   S34       1.0  0.09115  0.15836  0.41697  1.0000
  Fe  Fe19      1.0  0.13553  0.03678  0.42194  1.0000
  H   H131      1.0  0.05415  0.08909  0.58270  1.0000
  Fe  Fe20      1.0  0.15959  0.07345  0.45892  1.0000
  S   S35       1.0  0.20786  0.07484  0.47895  1.0000
  S   S36       1.0  0.08265  0.06143  0.42267  1.0000
  S   S37       1.0  0.10810  0.10036  0.46194  1.0000
  H   H132      1.0  0.28261  0.41334  0.58380  1.0000
  C   C170      1.0  0.43865  0.27597  0.42363  1.0000
  C   C171      1.0  0.10671  0.17860  0.39573  1.0000
  C   C172      1.0  0.08742  0.20523  0.38774  1.0000
  C   C173      1.0  0.09919  0.22205  0.37100  1.0000
  C   C174      1.0  0.13061  0.21258  0.36217  1.0000
  C   C175      1.0  0.14979  0.18594  0.37016  1.0000
  C   C176      1.0  0.13796  0.16909  0.38683  1.0000
  H   H133      1.0  0.06329  0.21291  0.39457  1.0000
  H   H134      1.0  0.08424  0.24258  0.36508  1.0000
  H   H135      1.0  0.17428  0.17862  0.36358  1.0000
  H   H136      1.0  0.15322  0.14905  0.39304  1.0000
  C   C177      1.0  0.14217  0.45523  0.39463  1.0000
  C   C178      1.0  0.15678  0.42413  0.38979  1.0000
  C   C179      1.0  0.14972  0.40911  0.37187  1.0000
  C   C180      1.0  0.12820  0.42526  0.35849  1.0000
  C   C181      1.0  0.11330  0.45621  0.36342  1.0000
  C   C182      1.0  0.11998  0.47103  0.38145  1.0000
  H   H137      1.0  0.17397  0.41172  0.39990  1.0000
  H   H138      1.0  0.16167  0.38552  0.36821  1.0000
  H   H139      1.0  0.09661  0.46889  0.35315  1.0000
  C   C183      1.0  0.47329  0.27309  0.42982  1.0000
  C   C184      1.0  0.26123  0.14614  0.52261  1.0000
  C   C185      1.0  0.22745  0.15326  0.51556  1.0000
  C   C186      1.0  0.21083  0.13213  0.50209  1.0000
  C   C187      1.0  0.22773  0.10333  0.49550  1.0000
  C   C188      1.0  0.26139  0.09608  0.50269  1.0000
  C   C189      1.0  0.27802  0.11723  0.51612  1.0000
  H   H140      1.0  0.21409  0.17549  0.52044  1.0000
  H   H141      1.0  0.18497  0.13813  0.49682  1.0000
  H   H142      1.0  0.27475  0.07385  0.49783  1.0000
  H   H143      1.0  0.30377  0.11105  0.52149  1.0000
  C   C190      1.0  0.37585  0.30318  0.61023  1.0000
  C   C191      1.0  0.35177  0.28864  0.62291  1.0000
  C   C192      1.0  0.34156  0.30550  0.63987  1.0000
  C   C193      1.0  0.35526  0.33704  0.64446  1.0000
  C   C194      1.0  0.37981  0.35138  0.63195  1.0000
  C   C195      1.0  0.38998  0.33453  0.61496  1.0000
  H   H144      1.0  0.34071  0.26456  0.61956  1.0000
  H   H145      1.0  0.32265  0.29409  0.64946  1.0000
  H   H146      1.0  0.39077  0.37548  0.63530  1.0000
  H   H147      1.0  0.40893  0.34591  0.60542  1.0000
  C   C196      1.0  0.35827  0.03971  0.64354  1.0000
  C   C197      1.0  0.39460  0.03970  0.64121  1.0000
  C   C198      1.0  0.41059  0.06316  0.62877  1.0000
  C   C199      1.0  0.39054  0.08692  0.61861  1.0000
  C   C200      1.0  0.35429  0.08721  0.62122  1.0000
  C   C201      1.0  0.33841  0.06385  0.63369  1.0000
  C   C202      1.0  0.42922  0.45756  0.62843  1.0000
  H   H148      1.0  0.43869  0.06287  0.62696  1.0000
  H   H149      1.0  0.33854  0.10553  0.61371  1.0000
  C   C203      1.0  0.39462  0.45257  0.62259  1.0000
  C   C204      1.0  0.10343  0.33304  0.37513  1.0000
  H   H150      1.0  0.06344  0.03350  0.65595  1.0000
  S   S38       1.0  0.33573  0.00935  0.65762  1.0000
  P   P6        1.0  0.03733  0.35123  0.38852  1.0000
  H   H151      1.0  0.42842  0.01440  0.57056  1.0000
  C   C205      1.0  0.09716  0.00295  0.53640  1.0000
  H   H152      1.0  0.47425  0.09244  0.35246  1.0000
  C   C206      1.0  0.11374  0.28383  0.40323  1.0000
  H   H153      1.0  0.45797  0.25841  0.52944  1.0000
  C   C207      1.0  0.02230  0.41761  0.39746  1.0000
  C   C208      1.0  0.29605  0.30548  0.44387  1.0000
  C   C209      1.0  0.29138  0.33947  0.44740  1.0000
  C   C210      1.0  0.31490  0.35642  0.45923  1.0000
  C   C211      1.0  0.34307  0.33941  0.46758  1.0000
  C   C212      1.0  0.34776  0.30517  0.46426  1.0000
  C   C213      1.0  0.32416  0.28840  0.45220  1.0000
  P   P7        1.0  0.38431  0.28293  0.47473  1.0000
  C   C214      1.0  0.36988  0.24254  0.48320  1.0000
  C   C215      1.0  0.41881  0.27813  0.45700  1.0000
  C   C216      1.0  0.09014  0.12187  0.33632  1.0000
  H   H154      1.0  0.01666  0.28096  0.38765  1.0000
  S   S39       1.0  0.15364  0.47365  0.41697  1.0000
  P   P8        1.0  0.28160  0.03362  0.58018  1.0000
  H   H155      1.0  0.45730  0.36839  0.50646  1.0000
  C   C217      1.0  0.33514  0.23792  0.48932  1.0000
  C   C218      1.0  0.32428  0.20706  0.49657  1.0000
  C   C219      1.0  0.34808  0.18076  0.49808  1.0000
  C   C220      1.0  0.38276  0.18527  0.49230  1.0000
  C   C221      1.0  0.39373  0.21606  0.48495  1.0000
  C   C222      1.0  0.40079  0.30567  0.49529  1.0000
  C   C223      1.0  0.39006  0.29729  0.51407  1.0000
  C   C224      1.0  0.40385  0.31402  0.52999  1.0000
  C   C225      1.0  0.42796  0.33972  0.52725  1.0000
  C   C226      1.0  0.43822  0.34878  0.50858  1.0000
  C   C227      1.0  0.42473  0.33183  0.49264  1.0000
  H   H156      1.0  0.27780  0.29234  0.43470  1.0000
  H   H157      1.0  0.26952  0.35268  0.44098  1.0000
  H   H158      1.0  0.31124  0.38279  0.46195  1.0000
  H   H159      1.0  0.36092  0.35308  0.47667  1.0000
  H   H160      1.0  0.32744  0.26204  0.44929  1.0000
  H   H161      1.0  0.49442  0.27152  0.41941  1.0000
  H   H162      1.0  0.43818  0.44753  0.64206  1.0000
  C   C228      1.0  0.17915  0.06694  0.35258  1.0000
  H   H163      1.0  0.40146  0.16516  0.49406  1.0000
  H   H164      1.0  0.38500  0.28119  0.43197  1.0000
  H   H165      1.0  0.31650  0.25824  0.48896  1.0000
  H   H166      1.0  0.29756  0.20367  0.50146  1.0000
  H   H167      1.0  0.33976  0.15715  0.50416  1.0000
  H   H168      1.0  0.41029  0.02146  0.64880  1.0000
  H   H169      1.0  0.03843  0.18268  0.52760  1.0000
  H   H170      1.0  0.37140  0.27756  0.51655  1.0000
  H   H171      1.0  0.39626  0.30655  0.54447  1.0000
  H   H172      1.0  0.43903  0.35232  0.53960  1.0000
  H   H173      1.0  0.11010  0.05358  0.58210  1.0000
  H   H174      1.0  0.43338  0.33886  0.47830  1.0000
  C   C229      1.0  0.45224  0.47568  0.61677  1.0000
  H   H175      1.0  0.02760  0.47055  0.53369  1.0000
  C   C230      1.0  0.40054  0.01800  0.57242  1.0000
  C   C231      1.0  0.48235  0.22055  0.51211  1.0000
  C   C232      1.0  0.13904  0.28910  0.38898  1.0000
  C   C233      1.0  0.12163  0.04440  0.51475  1.0000
  C   C234      1.0  0.21419  0.08367  0.38007  1.0000
  C   C235      1.0  0.99859  0.29409  0.39704  1.0000
  H   H176      1.0  0.27614  0.39345  0.64690  1.0000
  C   C236      1.0  0.35078  0.05521  0.57502  1.0000
  C   C237      1.0  0.04154  0.15723  0.52270  1.0000
  H   H177      1.0  0.11762  0.26439  0.41393  1.0000
  S   S40       1.0  0.34028  0.35725  0.66582  1.0000
  H   H178      1.0  0.99906  0.46641  0.45561  1.0000
  H   H179      1.0  0.42100  0.21924  0.48119  1.0000
  C   C238      1.0  0.27515  0.10301  0.57897  1.0000
  H   H180      1.0  0.15374  0.31805  0.36407  1.0000
  C   C239      1.0  0.37052  0.40135  0.57904  1.0000
  H   H181      1.0  0.06690  0.10449  0.38988  1.0000
  C   C240      1.0  0.33819  0.35346  0.56761  1.0000
  C   C241      1.0  0.27682  0.00979  0.54243  1.0000
  H   H182      1.0  0.45979  0.27358  0.47822  1.0000
  H   H183      1.0  0.01959  0.16694  0.49456  1.0000
  C   C242      1.0  0.04960  0.09159  0.51000  1.0000
  H   H184      1.0  0.11500  0.07325  0.37447  1.0000
  C   C243      1.0  0.18743  0.09024  0.36689  1.0000
  H   H185      1.0  0.47795  0.15094  0.45146  1.0000
  C   C244      1.0  0.25954  0.07708  0.60940  1.0000
  C   C245      1.0  0.26639  0.47654  0.63845  1.0000
  C   C246      1.0  0.03909  0.43830  0.47014  1.0000
  C   C247      1.0  0.25337  0.10852  0.61738  1.0000
  C   C248      1.0  0.04422  0.05499  0.55917  1.0000
  C   C249      1.0  0.05443  0.13288  0.36448  1.0000
  C   C250      1.0  0.44091  0.48834  0.59906  1.0000
  C   C251      1.0  0.26017  0.44503  0.64637  1.0000
  C   C252      1.0  0.07731  0.32712  0.38895  1.0000
  C   C253      1.0  0.25830  0.13719  0.60623  1.0000
  C   C254      1.0  0.08310  0.30295  0.40335  1.0000
  H   H186      1.0  0.46465  0.29308  0.62647  1.0000
  H   H187      1.0  0.43285  0.27649  0.40834  1.0000
  C   C255      1.0  0.10085  0.09182  0.36614  1.0000
  C   C256      1.0  0.40655  0.48293  0.59301  1.0000
  H   H188      1.0  0.24139  0.44209  0.65798  1.0000
  C   C257      1.0  0.02556  0.49743  0.50665  1.0000
  H   H189      1.0  0.31051  0.06451  0.63589  1.0000
  C   C258      1.0  0.10996  0.09868  0.34690  1.0000
  C   C259      1.0  0.33906  0.41762  0.58370  1.0000
  C   C260      1.0  0.01911  0.39144  0.48932  1.0000
  H   H190      1.0  0.42496  0.24529  0.62160  1.0000
  C   C261      1.0  0.06143  0.10047  0.52840  1.0000
  C   C262      1.0  0.45444  0.27978  0.63889  1.0000
  P   P9        1.0  0.07993  0.06944  0.54424  1.0000
  H   H191      1.0  0.39964  0.21577  0.64977  1.0000
  C   C263      1.0  0.13922  0.01929  0.50474  1.0000
  C   C264      1.0  0.05649  0.13326  0.53489  1.0000
  C   C265      1.0  0.03854  0.38745  0.35398  1.0000
  S   S41       1.0  0.02924  0.03938  0.46846  1.0000
  H   H192      1.0  0.12912  0.01271  0.35462  1.0000
  H   H193      1.0  0.02410  0.02095  0.53768  1.0000
  C   C266      1.0  0.19952  0.03795  0.35082  1.0000
  H   H194      1.0  0.05533  0.40496  0.36134  1.0000
  H   H195      1.0  0.39552  0.41264  0.58215  1.0000
  H   H196      1.0  0.10849  0.49489  0.38500  1.0000
  C   C267      1.0  0.03799  0.06903  0.57740  1.0000
  C   C268      1.0  0.11589  0.08688  0.55764  1.0000
  C   C269      1.0  0.13711  0.11158  0.54922  1.0000
  C   C270      1.0  0.16576  0.12429  0.55927  1.0000
  C   C271      1.0  0.17353  0.11233  0.57772  1.0000
  C   C272      1.0  0.15339  0.08689  0.58590  1.0000
  C   C273      1.0  0.12489  0.07389  0.57580  1.0000
  H   H197      1.0  0.10007  0.42682  0.43284  1.0000
  H   H198      1.0  0.47995  0.31127  0.65936  1.0000
  C   C274      1.0  0.07239  0.39369  0.41384  1.0000
  C   C275      1.0  0.30981  0.45283  0.61678  1.0000
  C   C276      1.0  0.27140  0.07407  0.59027  1.0000
  C   C277      1.0  0.26095  0.00671  0.52437  1.0000
  C   C278      1.0  0.38294  0.46555  0.60491  1.0000
  H   H199      1.0  0.12517  0.07007  0.51021  1.0000
  C   C279      1.0  0.30427  0.48541  0.56486  1.0000
  H   H200      1.0  0.16008  0.07707  0.60001  1.0000
  C   C280      1.0  0.38665  0.05019  0.57234  1.0000
  H   H201      1.0  0.05209  0.06622  0.50493  1.0000
  C   C281      1.0  0.41756  0.23629  0.65201  1.0000
  H   H202      1.0  0.21806  0.06253  0.56336  1.0000
  H   H203      1.0  0.18219  0.14323  0.55268  1.0000
  H   H204      1.0  0.19558  0.12237  0.58551  1.0000
  H   H205      1.0  0.25335  0.04853  0.38936  1.0000
  C   C282      1.0  0.27968  0.41762  0.64010  1.0000
  C   C283      1.0  0.26871  0.13437  0.58699  1.0000
  H   H206      1.0  0.28677  0.14721  0.34144  1.0000
  H   H207      1.0  0.27207  0.15664  0.57832  1.0000
  H   H208      1.0  0.25408  0.16162  0.61246  1.0000
  C   C284      1.0  0.05598  0.45114  0.41965  1.0000
  C   C285      1.0  0.06259  0.13903  0.34515  1.0000
  H   H209      1.0  0.16232  0.27365  0.38852  1.0000
  H   H210      1.0  0.30783  0.00568  0.61640  1.0000
  C   C286      1.0  0.36999  0.36939  0.57106  1.0000
  C   C287      1.0  0.22988  0.02371  0.52044  1.0000
  C   C288      1.0  0.04635  0.41140  0.48234  1.0000
  H   H211      1.0  0.33798  0.32818  0.56212  1.0000
  H   H212      1.0  0.06444  0.14035  0.54928  1.0000
  C   C289      1.0  0.32452  0.49107  0.58141  1.0000
  H   H213      1.0  0.28349  0.10150  0.56402  1.0000
  C   C290      1.0  0.10013  0.03641  0.53055  1.0000
  H   H214      1.0  0.37710  0.43861  0.63187  1.0000
  C   C291      1.0  0.46283  0.29009  0.65758  1.0000
  C   C292      1.0  0.23031  0.04691  0.55262  1.0000
  C   C293      1.0  0.43191  0.25286  0.63611  1.0000
  C   C294      1.0  0.23344  0.05413  0.37874  1.0000
  H   H215      1.0  0.07309  0.40638  0.48662  1.0000
  H   H216      1.0  0.21805  0.02182  0.50630  1.0000
  C   C295      1.0  0.30716  0.40159  0.57993  1.0000
  H   H217      1.0  0.28215  0.35705  0.56951  1.0000
  H   H218      1.0  0.24540  0.11067  0.63234  1.0000
  C   C296      1.0  0.04454  0.39028  0.40083  1.0000
  C   C297      1.0  0.30678  0.36967  0.57189  1.0000
  H   H219      1.0  0.10021  0.35232  0.36430  1.0000
  C   C298      1.0  0.13404  0.31391  0.37507  1.0000
  H   H220      1.0  0.29721  0.46044  0.56062  1.0000
  C   C299      1.0  0.45361  0.27446  0.46303  1.0000
  C   C300      1.0  0.30459  0.42151  0.62550  1.0000
  H   H221      1.0  0.06002  0.45437  0.46514  1.0000
  C   C301      1.0  0.01442  0.01251  0.48729  1.0000
  C   C302      1.0  0.41149  0.27861  0.43714  1.0000
  C   C303      1.0  0.32840  0.02791  0.57781  1.0000
  H   H222      1.0  0.06097  0.47479  0.42662  1.0000
  C   C304      1.0  0.02538  0.35927  0.36362  1.0000
  C   C305      1.0  0.07797  0.42399  0.42322  1.0000
  H   H223      1.0  0.34102  0.08050  0.57512  1.0000
  H   H224      1.0  0.39426  0.35626  0.56834  1.0000
  C   C306      1.0  0.21463  0.04392  0.53452  1.0000
  H   H225      1.0  0.25585  0.05538  0.61846  1.0000
  H   H226      1.0  0.01131  0.46917  0.40394  1.0000
  H   H227      1.0  0.13189  0.12077  0.53478  1.0000
  C   C307      1.0  0.47761  0.25321  0.51860  1.0000
  C   C308      1.0  0.07331  0.10909  0.37489  1.0000
  H   H228      1.0  0.17281  0.11322  0.36806  1.0000
  C   C309      1.0  0.03082  0.14840  0.50413  1.0000
  H   H229      1.0  0.06401  0.29863  0.41461  1.0000
  C   C310      1.0  0.03464  0.11555  0.49786  1.0000
  H   H230      1.0  0.40378  0.07147  0.57045  1.0000
  P   P10       1.0  0.33928  0.45686  0.59647  1.0000
  C   C311      1.0  0.29110  0.48049  0.62372  1.0000
  C   C312      1.0  0.02809  0.44794  0.40682  1.0000
  C   C313      1.0  0.22639  0.03148  0.36398  1.0000
  C   C314      1.0  0.26166  0.03003  0.55668  1.0000
  C   C315      1.0  0.00534  0.33618  0.35318  1.0000
  C   C316      1.0  0.48073  0.27245  0.44953  1.0000
  H   H231      1.0  0.19105  0.05779  0.53121  1.0000
  H   H232      1.0  0.21941  0.10112  0.39160  1.0000
  S   S42       1.0  0.14733  0.23281  0.34121  1.0000
  H   H233      1.0  0.02518  0.37079  0.49885  1.0000
  H   H234      1.0  0.02624  0.10851  0.48349  1.0000
  H   H235      1.0  0.39844  0.49248  0.57909  1.0000
  H   H236      1.0  0.00262  0.33446  0.47206  1.0000
  H   H237      1.0  0.47884  0.47994  0.62148  1.0000
  H   H238      1.0  0.19415  0.01993  0.33964  1.0000
  H   H239      1.0  0.05366  0.49901  0.50516  1.0000
  C   C317      1.0  0.01067  0.48109  0.52276  1.0000
  C   C318      1.0  0.02104  0.03084  0.55212  1.0000
  H   H240      1.0  0.04751  0.15709  0.33705  1.0000
  H   H241      1.0  0.03360  0.14661  0.37152  1.0000
  H   H242      1.0  0.00579  0.06793  0.60305  1.0000
  H   H243      1.0  0.00072  0.41559  0.38745  1.0000
  H   H244      1.0  0.25255  0.49807  0.64399  1.0000
  S   S43       1.0  0.15765  0.00531  0.39702  1.0000
  C   C319      1.0  0.00246  0.32844  0.40034  1.0000
  C   C320      1.0  0.11991  0.01131  0.33986  1.0000
  C   C321      1.0  0.00464  0.44508  0.46476  1.0000
  H   H245      1.0  0.24756  0.09825  0.33941  1.0000
  H   H246      1.0  0.24098  0.00837  0.36315  1.0000
  H   H247      1.0  0.15612  0.02577  0.49276  1.0000
  H   H248      1.0  0.00253  0.27856  0.45787  1.0000
  H   H249      1.0  0.49526  0.30418  0.51663  1.0000
  C   C322      1.0  0.26516  0.00138  0.59604  1.0000
  C   C323      1.0  0.06145  0.01698  0.66830  1.0000
  P   P11       1.0  0.14500  0.07599  0.33545  1.0000
  S   S44       1.0  0.13997  0.47240  0.85340  1.0000
  C   C324      1.0  0.49178  0.39929  0.83239  1.0000
  Fe  Fe21      1.0  0.40003  0.44301  0.70965  1.0000
  S   S45       1.0  0.35861  0.40431  0.71407  1.0000
  S   S46       1.0  0.45138  0.44228  0.72665  1.0000
  H   H250      1.0  0.10713  0.07720  0.88343  1.0000
  Fe  Fe22      1.0  0.32111  0.44771  0.71558  1.0000
  S   S47       1.0  0.27568  0.44593  0.73710  1.0000
  C   C325      1.0  0.20824  0.49967  0.77041  1.0000
  C   C326      1.0  0.24138  0.42683  0.90169  1.0000
  Fe  Fe23      1.0  0.10060  0.08673  0.83153  1.0000
  S   S48       1.0  0.06164  0.04447  0.83172  1.0000
  S   S49       1.0  0.08396  0.13368  0.84788  1.0000
  Fe  Fe24      1.0  0.14545  0.05245  0.79980  1.0000
  C   C327      1.0  0.14157  0.04453  0.92472  1.0000
  H   H251      1.0  0.06216  0.17501  0.81149  1.0000
  Fe  Fe25      1.0  0.06535  0.04756  0.79921  1.0000
  H   H252      1.0  0.42596  0.02449  0.73072  1.0000
  H   H253      1.0  0.02817  0.11705  0.78024  1.0000
  C   C328      1.0  0.41934  0.04830  0.83887  1.0000
  S   S50       1.0  0.10211  0.09087  0.79907  1.0000
  S   S51       1.0  0.14758  0.05267  0.83236  1.0000
  Fe  Fe26      1.0  0.15626  0.31372  0.96120  1.0000
  S   S52       1.0  0.10506  0.34047  0.96500  1.0000
  S   S53       1.0  0.21024  0.32461  0.97390  1.0000
  Fe  Fe27      1.0  0.12305  0.25917  0.93604  1.0000
  S   S54       1.0  0.06930  0.28215  0.93810  1.0000
  S   S55       1.0  0.14201  0.21112  0.92160  1.0000
  Fe  Fe28      1.0  0.09713  0.33132  0.93322  1.0000
  S   S56       1.0  0.07131  0.37068  0.91382  1.0000
  Fe  Fe29      1.0  0.08087  0.28955  0.96971  1.0000
  H   H254      1.0  0.27910  0.48199  0.98013  1.0000
  S   S57       1.0  0.14997  0.30773  0.92903  1.0000
  S   S58       1.0  0.13292  0.26353  0.96804  1.0000
  H   H255      1.0  0.17819  0.45787  0.81394  1.0000
  C   C329      1.0  0.00725  0.11173  0.77026  1.0000
  C   C330      1.0  0.20995  0.39104  0.78899  1.0000
  C   C331      1.0  0.12010  0.44536  0.87064  1.0000
  C   C332      1.0  0.14149  0.42307  0.88104  1.0000
  C   C333      1.0  0.12708  0.40015  0.89431  1.0000
  C   C334      1.0  0.09097  0.39919  0.89735  1.0000
  C   C335      1.0  0.06957  0.42172  0.88712  1.0000
  C   C336      1.0  0.08403  0.44483  0.87393  1.0000
  H   H256      1.0  0.16949  0.42378  0.87899  1.0000
  H   H257      1.0  0.14386  0.38319  0.90217  1.0000
  H   H258      1.0  0.04158  0.42127  0.88941  1.0000
  C   C337      1.0  0.23565  0.38853  0.83713  1.0000
  C   C338      1.0  0.10070  0.15432  0.86856  1.0000
  C   C339      1.0  0.13273  0.14581  0.87695  1.0000
  C   C340      1.0  0.14486  0.16344  0.89319  1.0000
  C   C341      1.0  0.12539  0.18995  0.90109  1.0000
  C   C342      1.0  0.09346  0.19855  0.89263  1.0000
  C   C343      1.0  0.08116  0.18064  0.87655  1.0000
  H   H259      1.0  0.14818  0.12577  0.87092  1.0000
  H   H260      1.0  0.16961  0.15662  0.89964  1.0000
  H   H261      1.0  0.07811  0.21874  0.89858  1.0000
  H   H262      1.0  0.05618  0.18701  0.87034  1.0000
  C   C344      1.0  0.25597  0.47966  0.74974  1.0000
  C   C345      1.0  0.22452  0.47402  0.75979  1.0000
  C   C346      1.0  0.26337  0.01384  0.80968  1.0000
  H   H263      1.0  0.42468  0.10500  0.97319  1.0000
  C   C347      1.0  0.49293  0.35279  0.76205  1.0000
  H   H264      1.0  0.00669  0.08696  0.81437  1.0000
  H   H265      1.0  0.21246  0.44971  0.75919  1.0000
  H   H266      1.0  0.38051  0.41799  0.78597  1.0000
  C   C348      1.0  0.29168  0.42126  0.78868  1.0000
  S   S59       1.0  0.10874  0.00925  0.79802  1.0000
  C   C349      1.0  0.46675  0.40742  0.74020  1.0000
  C   C350      1.0  0.25893  0.36172  0.83963  1.0000
  H   H267      1.0  0.34994  0.45915  0.99364  1.0000
  C   C351      1.0  0.24393  0.02901  0.75630  1.0000
  C   C352      1.0  0.48183  0.28713  0.95459  1.0000
  H   H268      1.0  0.42268  0.03816  0.79030  1.0000
  H   H269      1.0  0.22714  0.47784  0.90670  1.0000
  C   C353      1.0  0.22157  0.41439  0.00109  1.0000
  H   H270      1.0  0.17000  0.36139  0.86673  1.0000
  H   H271      1.0  0.44345  0.43280  0.96177  1.0000
  S   S60       1.0  0.19446  0.05638  0.78076  1.0000
  H   H272      1.0  0.13145  0.09485  0.91491  1.0000
  H   H273      1.0  0.31428  0.41639  0.83613  1.0000
  C   C354      1.0  0.21323  0.02323  0.76706  1.0000
  C   C355      1.0  0.21871  0.33561  0.86215  1.0000
  H   H274      1.0  0.18154  0.39044  0.98389  1.0000
  H   H275      1.0  0.23200  0.37410  0.78836  1.0000
  H   H276      1.0  0.12949  0.44993  0.79130  1.0000
  C   C356      1.0  0.42469  0.49321  0.81044  1.0000
  C   C357      1.0  0.18210  0.38668  0.77621  1.0000
  C   C358      1.0  0.15318  0.40799  0.77699  1.0000
  C   C359      1.0  0.46065  0.01763  0.99220  1.0000
  H   H277      1.0  0.44521  0.32843  0.75388  1.0000
  C   C360      1.0  0.37803  0.37051  0.97740  1.0000
  H   H278      1.0  0.25521  0.05370  0.75612  1.0000
  C   C361      1.0  0.17988  0.43807  0.80337  1.0000
  H   H279      1.0  0.18307  0.36697  0.76558  1.0000
  H   H280      1.0  0.13175  0.40486  0.76696  1.0000
  C   C362      1.0  0.45845  0.39579  0.80279  1.0000
  H   H281      1.0  0.38887  0.31099  0.68472  1.0000
  H   H282      1.0  0.28311  0.36040  0.83156  1.0000
  P   P12       1.0  0.24426  0.42115  0.81968  1.0000
  C   C363      1.0  0.45895  0.35665  0.69263  1.0000
  H   H283      1.0  0.30694  0.42180  0.97810  1.0000
  H   H284      1.0  0.25976  0.43294  0.89031  1.0000
  S   S61       1.0  0.39619  0.44255  0.67695  1.0000
  C   C364      1.0  0.46045  0.35094  0.75268  1.0000
  H   H285      1.0  0.45645  0.31157  0.93068  1.0000
  C   C365      1.0  0.25196  0.48908  0.97826  1.0000
  P   P13       1.0  0.45739  0.28750  0.69794  1.0000
  C   C366      1.0  0.47839  0.32786  0.69694  1.0000
  C   C367      1.0  0.41566  0.29208  0.71007  1.0000
  C   C368      1.0  0.38671  0.30452  0.69987  1.0000
  C   C369      1.0  0.35461  0.30919  0.70918  1.0000
  C   C370      1.0  0.35099  0.30128  0.72871  1.0000
  C   C371      1.0  0.37939  0.28823  0.73889  1.0000
  C   C372      1.0  0.41153  0.28343  0.72961  1.0000
  H   H286      1.0  0.28405  0.00779  0.73783  1.0000
  C   C373      1.0  0.17615  0.02738  0.71138  1.0000
  H   H287      1.0  0.49047  0.26601  0.94607  1.0000
  C   C374      1.0  0.44836  0.27364  0.67366  1.0000
  H   H288      1.0  0.09434  0.41553  0.98112  1.0000
  H   H289      1.0  0.43110  0.35545  0.69004  1.0000
  C   C375      1.0  0.09689  0.42911  0.96765  1.0000
  C   C376      1.0  0.41323  0.03525  0.80493  1.0000
  H   H290      1.0  0.42867  0.49742  0.82565  1.0000
  C   C377      1.0  0.38758  0.49960  0.78233  1.0000
  H   H291      1.0  0.48699  0.31776  0.00015  1.0000
  C   C378      1.0  0.45938  0.34184  0.97662  1.0000
  C   C379      1.0  0.21344  0.38577  0.92218  1.0000
  C   C380      1.0  0.13001  0.06853  0.91144  1.0000
  C   C381      1.0  0.04925  0.27109  0.81186  1.0000
  C   C382      1.0  0.22599  0.35836  0.98790  1.0000
  C   C383      1.0  0.19509  0.36176  0.85940  1.0000
  H   H292      1.0  0.44482  0.03770  0.98650  1.0000
  H   H293      1.0  0.32617  0.30535  0.73590  1.0000
  H   H294      1.0  0.37659  0.28202  0.75404  1.0000
  H   H295      1.0  0.43293  0.27332  0.73790  1.0000
  H   H296      1.0  0.01389  0.13976  0.83227  1.0000
  S   S62       1.0  0.31123  0.44605  0.68375  1.0000
  C   C384      1.0  0.19856  0.48874  0.95932  1.0000
  H   H297      1.0  0.22928  0.04125  0.70468  1.0000
  C   C385      1.0  0.37715  0.05122  0.73313  1.0000
  H   H298      1.0  0.43739  0.36019  0.94985  1.0000
  C   C386      1.0  0.38402  0.01525  0.80905  1.0000
  C   C387      1.0  0.44737  0.37801  0.74185  1.0000
  C   C388      1.0  0.20947  0.41733  0.80231  1.0000
  C   C389      1.0  0.37321  0.01135  0.82832  1.0000
  C   C390      1.0  0.35461  0.41815  0.79237  1.0000
  H   H299      1.0  0.41376  0.23397  0.68290  1.0000
  C   C391      1.0  0.31703  0.41692  0.82058  1.0000
  H   H300      1.0  0.21016  0.36010  0.92681  1.0000
  H   H301      1.0  0.26859  0.31491  0.85410  1.0000
  H   H302      1.0  0.43676  0.34760  0.79639  1.0000
  C   C392      1.0  0.47792  0.40968  0.98277  1.0000
  C   C393      1.0  0.22268  0.45221  0.91094  1.0000
  H   H303      1.0  0.24962  0.03501  0.81578  1.0000
  C   C394      1.0  0.46367  0.34749  0.82362  1.0000
  H   H304      1.0  0.10876  0.41496  0.82661  1.0000
  C   C395      1.0  0.45167  0.34017  0.95685  1.0000
  H   H305      1.0  0.25104  0.37393  0.90008  1.0000
  H   H306      1.0  0.15068  0.44113  0.97242  1.0000
  H   H307      1.0  0.10260  0.01713  0.87566  1.0000
  H   H308      1.0  0.18454  0.40792  0.84472  1.0000
  C   C396      1.0  0.00035  0.24930  0.88120  1.0000
  H   H309      1.0  0.33260  0.31934  0.70124  1.0000
  H   H310      1.0  0.49481  0.35427  0.84919  1.0000
  C   C397      1.0  0.40276  0.02881  0.73940  1.0000
  H   H311      1.0  0.37345  0.41504  0.82154  1.0000
  C   C398      1.0  0.40285  0.39202  0.98554  1.0000
  H   H312      1.0  0.38196  0.02517  0.85794  1.0000
  C   C399      1.0  0.25026  0.48991  0.81817  1.0000
  H   H313      1.0  0.26953  0.42452  0.77919  1.0000
  C   C400      1.0  0.15197  0.43347  0.79066  1.0000
  H   H314      1.0  0.17678  0.40422  0.94290  1.0000
  C   C401      1.0  0.34197  0.03805  0.76127  1.0000
  H   H315      1.0  0.44940  0.40630  0.78932  1.0000
  H   H316      1.0  0.16902  0.05264  0.71504  1.0000
  Fe  Fe30      1.0  0.35229  0.40607  0.68168  1.0000
  C   C402      1.0  0.25059  0.33556  0.85225  1.0000
  Fe  Fe31      1.0  0.35529  0.48282  0.68059  1.0000
  C   C403      1.0  0.21037  0.02119  0.70516  1.0000
  C   C404      1.0  0.34365  0.38144  0.97450  1.0000
  C   C405      1.0  0.35056  0.41642  0.81239  1.0000
  C   C406      1.0  0.11622  0.05865  0.89371  1.0000
  C   C407      1.0  0.23660  0.39361  0.90722  1.0000
  H   H317      1.0  0.32431  0.36480  0.96842  1.0000
  H   H318      1.0  0.32831  0.42300  0.76503  1.0000
  H   H319      1.0  0.45658  0.45967  0.84912  1.0000
  C   C408      1.0  0.29866  0.01649  0.80458  1.0000
  H   H320      1.0  0.22909  0.44688  0.85909  1.0000
  H   H321      1.0  0.18381  0.49516  0.77782  1.0000
  H   H322      1.0  0.10641  0.47386  0.91824  1.0000
  H   H323      1.0  0.06721  0.46182  0.86609  1.0000
  H   H324      1.0  0.41078  0.44029  0.99865  1.0000
  H   H325      1.0  0.25550  0.48663  0.80291  1.0000
  C   C409      1.0  0.39068  0.02800  0.84314  1.0000
  C   C410      1.0  0.23549  0.46744  0.84966  1.0000
  H   H326      1.0  0.31213  0.03975  0.80716  1.0000
  C   C411      1.0  0.42565  0.24667  0.67072  1.0000
  H   H327      1.0  0.04485  0.29776  0.81191  1.0000
  C   C412      1.0  0.07202  0.22076  0.82667  1.0000
  C   C413      1.0  0.06782  0.25558  0.82687  1.0000
  H   H328      1.0  0.12772  0.00928  0.97348  1.0000
  P   P14       1.0  0.08277  0.27950  0.84733  1.0000
  C   C414      1.0  0.05042  0.27686  0.86642  1.0000
  C   C415      1.0  0.12444  0.26357  0.85565  1.0000
  C   C416      1.0  0.13501  0.26836  0.87483  1.0000
  C   C417      1.0  0.16726  0.25610  0.88117  1.0000
  C   C418      1.0  0.18907  0.23870  0.86855  1.0000
  C   C419      1.0  0.17915  0.23441  0.84934  1.0000
  C   C420      1.0  0.14719  0.24713  0.84284  1.0000
  C   C421      1.0  0.05016  0.30018  0.88150  1.0000
  C   C422      1.0  0.03584  0.25210  0.79667  1.0000
  C   C423      1.0  0.32521  0.42081  0.78056  1.0000
  H   H329      1.0  0.02460  0.31661  0.90752  1.0000
  C   C424      1.0  0.33376  0.41361  0.97998  1.0000
  C   C425      1.0  0.09006  0.32231  0.84003  1.0000
  C   C426      1.0  0.06506  0.34718  0.84383  1.0000
  H   H330      1.0  0.38487  0.34521  0.97359  1.0000
  C   C427      1.0  0.10328  0.38905  0.82997  1.0000
  C   C428      1.0  0.12753  0.36426  0.82531  1.0000
  C   C429      1.0  0.12111  0.33106  0.83041  1.0000
  C   C430      1.0  0.47541  0.38769  0.69180  1.0000
  C   C431      1.0  0.00018  0.27275  0.89603  1.0000
  C   C432      1.0  0.24299  0.46233  0.83004  1.0000
  H   H331      1.0  0.08539  0.20805  0.83834  1.0000
  C   C433      1.0  0.01714  0.22043  0.99650  1.0000
  H   H332      1.0  0.11831  0.28091  0.88511  1.0000
  H   H333      1.0  0.17475  0.25902  0.89614  1.0000
  H   H334      1.0  0.21335  0.22811  0.87377  1.0000
  H   H335      1.0  0.19596  0.22072  0.83956  1.0000
  H   H336      1.0  0.14021  0.24372  0.82786  1.0000
  H   H337      1.0  0.06941  0.31995  0.88205  1.0000
  C   C434      1.0  0.12881  0.44374  0.96265  1.0000
  C   C435      1.0  0.44988  0.47640  0.79931  1.0000
  C   C436      1.0  0.13265  0.46050  0.94491  1.0000
  C   C437      1.0  0.19450  0.41103  0.93134  1.0000
  H   H338      1.0  0.32662  0.07276  0.73904  1.0000
  C   C438      1.0  0.28725  0.41849  0.80876  1.0000
  H   H339      1.0  0.31815  0.04191  0.76938  1.0000
  H   H340      1.0  0.15155  0.37086  0.81796  1.0000
  H   H341      1.0  0.14052  0.31236  0.82693  1.0000
  H   H342      1.0  0.40774  0.47878  0.75590  1.0000
  H   H343      1.0  0.15147  0.05264  0.93855  1.0000
  H   H344      1.0  0.24799  0.46710  0.95026  1.0000
  H   H345      1.0  0.45878  0.32132  0.82639  1.0000
  C   C439      1.0  0.45864  0.10655  0.99792  1.0000
  H   H346      1.0  0.03298  0.21572  0.98385  1.0000
  C   C440      1.0  0.49439  0.00706  0.90037  1.0000
  C   C441      1.0  0.08279  0.02197  0.68439  1.0000
  C   C442      1.0  0.10106  0.04991  0.73023  1.0000
  C   C443      1.0  0.07117  0.06842  0.72518  1.0000
  C   C444      1.0  0.06577  0.10019  0.73290  1.0000
  C   C445      1.0  0.09005  0.11363  0.74572  1.0000
  C   C446      1.0  0.11953  0.09513  0.75102  1.0000
  C   C447      1.0  0.12452  0.06308  0.74370  1.0000
  C   C448      1.0  0.47999  0.47479  0.84938  1.0000
  C   C449      1.0  0.20347  0.38808  0.84694  1.0000
  H   H347      1.0  0.42242  0.37597  0.73466  1.0000
  C   C450      1.0  0.39243  0.42394  0.99149  1.0000
  H   H348      1.0  0.43284  0.06127  0.85033  1.0000
  H   H349      1.0  0.48900  0.03020  0.89283  1.0000
  C   C451      1.0  0.39798  0.01092  0.75654  1.0000
  C   C452      1.0  0.47840  0.41472  0.81573  1.0000
  H   H350      1.0  0.02448  0.23306  0.85506  1.0000
  H   H351      1.0  0.46189  0.45798  0.77067  1.0000
  S   S63       1.0  0.04215  0.28605  0.99515  1.0000
  C   C453      1.0  0.49340  0.22702  0.70310  1.0000
  H   H352      1.0  0.38052  0.06446  0.71959  1.0000
  S   S64       1.0  0.36288  0.48663  0.71290  1.0000
  H   H353      1.0  0.48636  0.47486  0.95135  1.0000
  C   C454      1.0  0.24407  0.02411  0.95540  1.0000
  H   H354      1.0  0.05150  0.05818  0.71573  1.0000
  H   H355      1.0  0.04229  0.11408  0.72932  1.0000
  H   H356      1.0  0.08559  0.13804  0.75190  1.0000
  H   H357      1.0  0.13819  0.10517  0.76121  1.0000
  H   H358      1.0  0.14671  0.04852  0.74858  1.0000
  H   H359      1.0  0.10129  0.04241  0.68435  1.0000
  S   S65       1.0  0.01813  0.04440  0.77889  1.0000
  C   C455      1.0  0.49353  0.45641  0.96213  1.0000
  C   C456      1.0  0.45110  0.36235  0.80676  1.0000
  C   C457      1.0  0.25909  0.35539  0.99651  1.0000
  H   H360      1.0  0.21202  0.31518  0.87175  1.0000
  P   P15       1.0  0.17473  0.47709  0.93789  1.0000
  C   C458      1.0  0.34676  0.05580  0.74405  1.0000
  P   P16       1.0  0.44696  0.37829  0.99025  1.0000
  C   C459      1.0  0.36751  0.01535  0.76762  1.0000
  C   C460      1.0  0.19863  0.44444  0.92564  1.0000
  H   H361      1.0  0.05060  0.44798  0.92725  1.0000
  P   P17       1.0  0.48817  0.45787  0.81048  1.0000
  H   H362      1.0  0.49430  0.29186  0.73478  1.0000
  H   H363      1.0  0.26295  0.04161  0.94962  1.0000
  H   H364      1.0  0.27398  0.33273  0.99456  1.0000
  C   C461      1.0  0.02482  0.29834  0.89604  1.0000
  C   C462      1.0  0.07219  0.44759  0.93735  1.0000
  C   C463      1.0  0.13990  0.01044  0.92019  1.0000
  C   C464      1.0  0.07194  0.38045  0.83907  1.0000
  C   C465      1.0  0.05863  0.20188  0.81149  1.0000
  H   H365      1.0  0.45306  0.06739  0.81648  1.0000
  H   H366      1.0  0.47517  0.48544  0.87978  1.0000
  H   H367      1.0  0.04040  0.34118  0.85068  1.0000
  C   C466      1.0  0.11360  0.02479  0.88934  1.0000
  Fe  Fe32      1.0  0.10866  0.01056  0.83057  1.0000
  C   C467      1.0  0.47943  0.31637  0.98513  1.0000
  C   C468      1.0  0.10407  0.46222  0.93227  1.0000
  C   C469      1.0  0.04056  0.21753  0.79648  1.0000
  C   C470      1.0  0.06865  0.43086  0.95495  1.0000
  C   C471      1.0  0.02510  0.25150  0.86637  1.0000
  C   C472      1.0  0.48537  0.25848  0.71078  1.0000
  C   C473      1.0  0.23408  0.48050  0.96142  1.0000
  C   C474      1.0  0.35803  0.43471  0.98866  1.0000
  H   H368      1.0  0.46766  0.13159  0.95118  1.0000
  C   C475      1.0  0.49048  0.48918  0.86679  1.0000
  C   C476      1.0  0.46913  0.43276  0.96829  1.0000
  H   H369      1.0  0.15907  0.48413  0.89670  1.0000
  H   H370      1.0  0.46025  0.40993  0.68895  1.0000
  H   H371      1.0  0.04430  0.41847  0.95848  1.0000
  H   H372      1.0  0.03005  0.20283  0.78476  1.0000
  C   C477      1.0  0.23546  0.49970  0.85726  1.0000
  C   C478      1.0  0.20707  0.38791  0.99039  1.0000
  C   C479      1.0  0.47407  0.12781  0.96624  1.0000
  C   C480      1.0  0.44988  0.11278  0.97865  1.0000
  H   H373      1.0  0.48292  0.21929  0.68936  1.0000
  C   C481      1.0  0.44335  0.47134  0.77958  1.0000
  C   C482      1.0  0.43068  0.05181  0.81978  1.0000
  C   C483      1.0  0.46260  0.31277  0.94593  1.0000
  C   C484      1.0  0.41246  0.48298  0.77114  1.0000
  C   C485      1.0  0.21491  0.01511  0.94445  1.0000
  H   H374      1.0  0.21193  0.02538  0.93008  1.0000
  H   H375      1.0  0.05312  0.39972  0.84265  1.0000
  C   C486      1.0  0.24912  0.01023  0.97372  1.0000
  H   H376      1.0  0.02156  0.26415  0.78508  1.0000
  C   C487      1.0  0.49039  0.28902  0.97415  1.0000
  C   C488      1.0  0.48397  0.36599  0.83643  1.0000
  H   H377      1.0  0.27184  0.01691  0.98219  1.0000
  C   C489      1.0  0.26039  0.00302  0.74595  1.0000
  H   H378      1.0  0.04410  0.00315  0.74413  1.0000
  C   C490      1.0  0.99783  0.07861  0.76671  1.0000
  C   C491      1.0  0.12491  0.00077  0.90263  1.0000
  C   C492      1.0  0.49602  0.01515  0.98668  1.0000
  C   C493      1.0  0.08003  0.00092  0.70054  1.0000
  P   P18       1.0  0.10758  0.00822  0.72119  1.0000
  H   H379      1.0  0.99638  0.17036  0.99784  1.0000
  C   C494      1.0  0.15192  0.00116  0.71284  1.0000
  Fe  Fe33      1.0  0.34879  0.97170  0.07259  1.0000
  S   S66       1.0  0.39318  0.93476  0.07537  1.0000
  H   H380      1.0  0.25576  0.61976  0.13104  1.0000
  Fe  Fe34      1.0  0.31235  0.93044  0.04074  1.0000
  S   S67       1.0  0.35520  0.89206  0.04095  1.0000
  S   S68       1.0  0.26125  0.93149  0.02330  1.0000
  Fe  Fe35      1.0  0.35159  0.89482  0.07348  1.0000
  S   S69       1.0  0.34305  0.84376  0.08805  1.0000
  Fe  Fe36      1.0  0.39331  0.93501  0.04275  1.0000
  S   S70       1.0  0.44649  0.93600  0.02713  1.0000
  S   S71       1.0  0.30719  0.93200  0.07311  1.0000
  S   S72       1.0  0.35071  0.97318  0.04006  1.0000
  Fe  Fe37      1.0  0.38423  0.72909  0.18319  1.0000
  S   S73       1.0  0.33945  0.69410  0.17818  1.0000
  S   S74       1.0  0.39372  0.77915  0.16798  1.0000
  Fe  Fe38      1.0  0.41511  0.68435  0.21602  1.0000
  S   S75       1.0  0.37216  0.64656  0.21303  1.0000
  S   S76       1.0  0.45905  0.68508  0.23843  1.0000
  Fe  Fe39      1.0  0.37935  0.65275  0.18081  1.0000
  S   S77       1.0  0.39301  0.61199  0.15897  1.0000
  Fe  Fe40      1.0  0.33618  0.69130  0.21083  1.0000
  S   S78       1.0  0.28438  0.69298  0.22731  1.0000
  S   S79       1.0  0.42459  0.68836  0.18412  1.0000
  S   S80       1.0  0.37855  0.72853  0.21566  1.0000
  Fe  Fe41      1.0  0.17294  0.80168  0.30155  1.0000
  S   S81       1.0  0.13262  0.76398  0.29371  1.0000
  S   S82       1.0  0.22724  0.80151  0.28721  1.0000
  H   H381      1.0  0.26524  0.60482  0.31989  1.0000
  C   C495      1.0  0.37325  0.73686  0.28910  1.0000
  C   C496      1.0  0.27479  0.60072  0.22099  1.0000
  Fe  Fe42      1.0  0.09364  0.80639  0.29464  1.0000
  S   S83       1.0  0.05567  0.80885  0.26895  1.0000
  H   H382      1.0  0.08914  0.85454  0.05297  1.0000
  S   S84       1.0  0.13479  0.84505  0.30083  1.0000
  H   H383      1.0  0.32054  0.62364  0.08052  1.0000
  H   H384      1.0  0.28903  0.83231  0.05659  1.0000
  H   H385      1.0  0.01812  0.85662  0.10105  1.0000
  C   C497      1.0  0.06294  0.85155  0.05875  1.0000
  H   H386      1.0  0.00907  0.81429  0.23662  1.0000
  H   H387      1.0  0.22056  0.68500  0.08658  1.0000
  C   C498      1.0  0.39541  0.62985  0.07702  1.0000
  C   C499      1.0  0.26877  0.72443  0.24324  1.0000
  C   C500      1.0  0.28970  0.75100  0.24926  1.0000
  C   C501      1.0  0.27643  0.77461  0.26249  1.0000
  C   C502      1.0  0.24208  0.77215  0.26974  1.0000
  C   C503      1.0  0.22104  0.74591  0.26341  1.0000
  C   C504      1.0  0.23434  0.72224  0.25030  1.0000
  H   H388      1.0  0.31613  0.75327  0.24383  1.0000
  H   H389      1.0  0.29294  0.79483  0.26722  1.0000
  H   H390      1.0  0.19464  0.74351  0.26884  1.0000
  H   H391      1.0  0.21777  0.70203  0.24565  1.0000
  H   H392      1.0  0.38815  0.52296  0.11060  1.0000
  H   H393      1.0  0.39671  0.58593  0.30096  1.0000
  C   C505      1.0  0.25289  0.71706  0.10381  1.0000
  C   C506      1.0  0.26562  0.74934  0.10630  1.0000
  H   H394      1.0  0.02828  0.86816  0.28889  1.0000
  C   C507      1.0  0.43601  0.50649  0.00600  1.0000
  C   C508      1.0  0.37884  0.79660  0.14577  1.0000
  C   C509      1.0  0.38724  0.82994  0.14136  1.0000
  C   C510      1.0  0.37672  0.84482  0.12380  1.0000
  C   C511      1.0  0.35783  0.82638  0.11030  1.0000
  C   C512      1.0  0.34948  0.79302  0.11469  1.0000
  C   C513      1.0  0.35959  0.77825  0.13236  1.0000
  H   H395      1.0  0.40210  0.84440  0.15161  1.0000
  H   H396      1.0  0.38331  0.87050  0.12071  1.0000
  H   H397      1.0  0.33544  0.77843  0.10423  1.0000
  H   H398      1.0  0.35295  0.75261  0.13550  1.0000
  C   C514      1.0  0.33707  0.53233  0.12245  1.0000
  C   C515      1.0  0.31804  0.55114  0.13602  1.0000
  C   C516      1.0  0.33470  0.57526  0.14757  1.0000
  C   C517      1.0  0.37056  0.58107  0.14552  1.0000
  C   C518      1.0  0.38967  0.56178  0.13222  1.0000
  C   C519      1.0  0.37309  0.53751  0.12078  1.0000
  H   H399      1.0  0.29023  0.54710  0.13756  1.0000
  H   H400      1.0  0.31981  0.58945  0.15797  1.0000
  H   H401      1.0  0.41753  0.56565  0.13076  1.0000
  H   H402      1.0  0.13298  0.81188  0.00960  1.0000
  C   C520      1.0  0.47065  0.61783  0.24680  1.0000
  C   C521      1.0  0.41807  0.57972  0.05160  1.0000
  C   C522      1.0  0.24714  0.55422  0.32128  1.0000
  H   H403      1.0  0.44743  0.61254  0.23847  1.0000
  C   C523      1.0  0.28038  0.86350  0.14010  1.0000
  C   C524      1.0  0.34020  0.71091  0.07597  1.0000
  C   C525      1.0  0.20977  0.68301  0.30604  1.0000
  H   H404      1.0  0.34708  0.99414  0.12326  1.0000
  C   C526      1.0  0.42430  0.61325  0.04723  1.0000
  H   H405      1.0  0.20933  0.63251  0.29610  1.0000
  H   H406      1.0  0.19487  0.63726  0.22547  1.0000
  C   C527      1.0  0.28581  0.60276  0.24017  1.0000
  C   C528      1.0  0.26433  0.61781  0.25418  1.0000
  C   C529      1.0  0.23113  0.62952  0.24879  1.0000
  P   P19       1.0  0.27832  0.61958  0.27907  1.0000
  C   C530      1.0  0.26331  0.58256  0.29149  1.0000
  C   C531      1.0  0.32557  0.62179  0.27953  1.0000
  C   C532      1.0  0.34507  0.60110  0.29189  1.0000
  C   C533      1.0  0.38165  0.60228  0.29168  1.0000
  C   C534      1.0  0.39898  0.62401  0.27912  1.0000
  C   C535      1.0  0.37982  0.64431  0.26661  1.0000
  C   C536      1.0  0.34328  0.64334  0.26682  1.0000
  C   C537      1.0  0.25553  0.55343  0.28118  1.0000
  H   H407      1.0  0.42870  0.71519  0.08161  1.0000
  H   H408      1.0  0.17174  0.79453  0.24568  1.0000
  C   C538      1.0  0.25952  0.65590  0.29063  1.0000
  C   C539      1.0  0.27872  0.68554  0.29252  1.0000
  C   C540      1.0  0.26352  0.71354  0.30113  1.0000
  Fe  Fe43      1.0  0.12395  0.75769  0.32572  1.0000
  C   C541      1.0  0.17335  0.80560  0.23139  1.0000
  C   C542      1.0  0.22496  0.65483  0.29761  1.0000
  H   H409      1.0  0.35842  0.78887  0.05921  1.0000
  H   H410      1.0  0.31126  0.59289  0.24394  1.0000
  H   H411      1.0  0.21388  0.64097  0.25922  1.0000
  C   C543      1.0  0.37588  0.73999  0.30913  1.0000
  H   H412      1.0  0.42730  0.62473  0.27879  1.0000
  H   H413      1.0  0.39339  0.66038  0.25647  1.0000
  H   H414      1.0  0.32884  0.65905  0.25684  1.0000
  H   H415      1.0  0.25857  0.55252  0.26566  1.0000
  H   H416      1.0  0.26689  0.60464  0.09690  1.0000
  H   H417      1.0  0.30495  0.68763  0.28687  1.0000
  H   H418      1.0  0.27780  0.73681  0.30182  1.0000
  H   H419      1.0  0.28383  0.75448  0.11788  1.0000
  H   H420      1.0  0.23372  0.61198  0.20078  1.0000
  H   H421      1.0  0.12376  0.84896  0.19931  1.0000
  C   C544      1.0  0.43211  0.71450  0.28795  1.0000
  H   H422      1.0  0.45375  0.94589  0.11026  1.0000
  C   C545      1.0  0.44293  0.70322  0.13553  1.0000
  C   C546      1.0  0.30631  0.78895  0.01560  1.0000
  C   C547      1.0  0.45863  0.97199  0.11322  1.0000
  H   H423      1.0  0.27281  0.91486  0.13202  1.0000
  H   H424      1.0  0.18588  0.52701  0.00270  1.0000
  H   H425      1.0  0.29625  0.85784  0.12751  1.0000
  C   C548      1.0  0.43748  0.64177  0.11683  1.0000
  C   C549      1.0  0.03576  0.84159  0.04665  1.0000
  H   H426      1.0  0.29192  0.58996  0.21018  1.0000
  H   H427      1.0  0.28363  0.86654  0.00823  1.0000
  S   S85       1.0  0.08131  0.79650  0.32598  1.0000
  C   C550      1.0  0.22012  0.62731  0.22960  1.0000
  C   C551      1.0  0.41719  0.69843  0.12155  1.0000
  Fe  Fe44      1.0  0.12462  0.83344  0.33236  1.0000
  C   C552      1.0  0.08983  0.98032  0.31502  1.0000
  C   C553      1.0  0.14446  0.82234  0.22374  1.0000
  C   C554      1.0  0.48240  0.65071  0.24842  1.0000
  C   C555      1.0  0.36280  0.76398  0.06481  1.0000
  C   C556      1.0  0.28533  0.62018  0.10456  1.0000
  H   H428      1.0  0.23854  0.92858  0.16144  1.0000
  H   H429      1.0  0.41820  0.66404  0.05625  1.0000
  C   C557      1.0  0.40232  0.72240  0.07773  1.0000
  C   C558      1.0  0.27546  0.77055  0.01427  1.0000
  C   C559      1.0  0.24201  0.61310  0.21569  1.0000
  C   C560      1.0  0.02211  0.83837  0.26340  1.0000
  C   C561      1.0  0.00298  0.83475  0.24617  1.0000
  H   H430      1.0  0.33221  0.58366  0.30146  1.0000
  H   H431      1.0  0.26131  0.69731  0.11344  1.0000
  H   H432      1.0  0.34941  0.74414  0.28171  1.0000
  C   C562      1.0  0.05643  0.85695  0.07834  1.0000
  C   C563      1.0  0.27904  0.62872  0.12378  1.0000
  C   C564      1.0  0.33468  0.74231  0.06765  1.0000
  H   H433      1.0  0.07766  0.86403  0.08780  1.0000
  C   C565      1.0  0.46306  0.64657  0.13093  1.0000
  H   H434      1.0  0.12047  0.82414  0.23213  1.0000
  C   C566      1.0  0.39661  0.75392  0.06967  1.0000
  C   C567      1.0  0.49569  0.50537  0.01728  1.0000
  H   H435      1.0  0.42671  0.56030  0.04180  1.0000
  H   H436      1.0  0.41827  0.77095  0.06759  1.0000
  H   H437      1.0  0.35335  0.67178  0.13311  1.0000
  C   C568      1.0  0.25656  0.87040  0.00436  1.0000
  C   C569      1.0  0.38964  0.59607  0.08136  1.0000
  C   C570      1.0  0.20442  0.90443  0.00459  1.0000
  C   C571      1.0  0.34661  0.81007  0.21011  1.0000
  C   C572      1.0  0.34390  0.82722  0.22754  1.0000
  C   C573      1.0  0.31172  0.84037  0.23332  1.0000
  C   C574      1.0  0.28222  0.83622  0.22170  1.0000
  C   C575      1.0  0.28445  0.81784  0.20450  1.0000
  C   C576      1.0  0.31704  0.80528  0.19862  1.0000
  P   P20       1.0  0.24713  0.81455  0.18874  1.0000
  C   C577      1.0  0.24422  0.77395  0.17784  1.0000
  C   C578      1.0  0.20695  0.81828  0.20241  1.0000
  C   C579      1.0  0.20427  0.80311  0.22068  1.0000
  C   C580      1.0  0.34110  0.64919  0.10554  1.0000
  C   C581      1.0  0.14642  0.83641  0.20527  1.0000
  C   C582      1.0  0.17746  0.83419  0.19456  1.0000
  C   C583      1.0  0.22725  0.77010  0.16003  1.0000
  C   C584      1.0  0.22304  0.73838  0.15207  1.0000
  C   C585      1.0  0.23524  0.71028  0.16197  1.0000
  C   C586      1.0  0.25142  0.71392  0.17988  1.0000
  C   C587      1.0  0.25598  0.74563  0.18779  1.0000
  C   C588      1.0  0.25369  0.84612  0.17043  1.0000
  C   C589      1.0  0.24139  0.87875  0.17316  1.0000
  C   C590      1.0  0.24788  0.90335  0.15922  1.0000
  C   C591      1.0  0.26725  0.89569  0.14267  1.0000
  C   C592      1.0  0.41450  0.66776  0.11191  1.0000
  C   C593      1.0  0.27401  0.83888  0.15401  1.0000
  H   H438      1.0  0.37180  0.80074  0.20537  1.0000
  H   H439      1.0  0.36687  0.83065  0.23642  1.0000
  H   H440      1.0  0.30958  0.85398  0.24674  1.0000
  H   H441      1.0  0.25783  0.84751  0.22621  1.0000
  H   H442      1.0  0.31986  0.79223  0.18504  1.0000
  H   H443      1.0  0.22613  0.78943  0.22675  1.0000
  H   H444      1.0  0.39918  0.71860  0.11850  1.0000
  H   H445      1.0  0.17824  0.84465  0.18016  1.0000
  H   H446      1.0  0.21686  0.79155  0.15243  1.0000
  H   H447      1.0  0.20982  0.73557  0.13837  1.0000
  H   H448      1.0  0.23174  0.68565  0.15594  1.0000
  H   H449      1.0  0.26026  0.69213  0.18780  1.0000
  H   H450      1.0  0.26816  0.74798  0.20181  1.0000
  H   H451      1.0  0.22740  0.88538  0.18621  1.0000
  H   H452      1.0  0.41808  0.99650  0.00890  1.0000
  C   C594      1.0  0.24337  0.52506  0.29088  1.0000
  P   P21       1.0  0.38126  0.66175  0.09375  1.0000
  H   H453      1.0  0.28565  0.81445  0.15210  1.0000
  C   C595      1.0  0.25928  0.58267  0.31165  1.0000
  H   H454      1.0  0.47878  0.56653  0.25537  1.0000
  C   C596      1.0  0.33438  0.65797  0.12479  1.0000
  C   C597      1.0  0.30339  0.64789  0.13382  1.0000
  H   H455      1.0  0.44440  0.72679  0.14314  1.0000
  C   C598      1.0  0.46822  0.66181  0.32555  1.0000
  H   H456      1.0  0.29903  0.65378  0.14887  1.0000
  C   C599      1.0  0.22897  0.71241  0.30766  1.0000
  H   H457      1.0  0.18272  0.68242  0.31085  1.0000
  C   C600      1.0  0.22986  0.71021  0.08873  1.0000
  C   C601      1.0  0.25549  0.77483  0.09366  1.0000
  C   C602      1.0  0.23118  0.76848  0.07894  1.0000
  C   C603      1.0  0.21920  0.73576  0.07624  1.0000
  P   P22       1.0  0.22020  0.80069  0.06171  1.0000
  C   C604      1.0  0.17725  0.79558  0.05130  1.0000
  C   C605      1.0  0.21921  0.84139  0.07268  1.0000
  C   C606      1.0  0.22463  0.86990  0.06130  1.0000
  C   C607      1.0  0.22285  0.90159  0.06956  1.0000
  C   C608      1.0  0.21572  0.90508  0.08922  1.0000
  C   C609      1.0  0.20947  0.87685  0.10058  1.0000
  C   C610      1.0  0.21072  0.84511  0.09230  1.0000
  C   C611      1.0  0.17056  0.80741  0.03256  1.0000
  C   C612      1.0  0.13758  0.80329  0.02425  1.0000
  C   C613      1.0  0.11077  0.78793  0.03471  1.0000
  C   C614      1.0  0.11679  0.77727  0.05366  1.0000
  C   C615      1.0  0.14986  0.78126  0.06200  1.0000
  C   C616      1.0  0.25335  0.79732  0.04328  1.0000
  C   C617      1.0  0.24916  0.77452  0.02812  1.0000
  H   H458      1.0  0.39616  0.54512  0.07214  1.0000
  C   C618      1.0  0.46590  0.67731  0.14020  1.0000
  C   C619      1.0  0.31094  0.81114  0.03085  1.0000
  C   C620      1.0  0.28468  0.81527  0.04473  1.0000
  H   H459      1.0  0.21662  0.73474  0.31330  1.0000
  H   H460      1.0  0.26714  0.79933  0.09521  1.0000
  H   H461      1.0  0.20210  0.72984  0.06431  1.0000
  H   H462      1.0  0.23030  0.86775  0.04604  1.0000
  H   H463      1.0  0.22748  0.92349  0.06068  1.0000
  H   H464      1.0  0.21503  0.92971  0.09559  1.0000
  H   H465      1.0  0.20368  0.87959  0.11580  1.0000
  H   H466      1.0  0.20506  0.82361  0.10123  1.0000
  H   H467      1.0  0.19086  0.81969  0.02426  1.0000
  H   H468      1.0  0.43512  0.61749  0.11027  1.0000
  H   H469      1.0  0.08528  0.78453  0.02816  1.0000
  H   H470      1.0  0.09576  0.76587  0.06184  1.0000
  H   H471      1.0  0.15401  0.77317  0.07673  1.0000
  C   C621      1.0  0.40138  0.72412  0.27854  1.0000
  H   H472      1.0  0.27171  0.75349  0.00237  1.0000
  H   H473      1.0  0.22554  0.75985  0.02691  1.0000
  H   H474      1.0  0.33498  0.82517  0.03193  1.0000
  H   H475      1.0  0.30851  0.75024  0.06381  1.0000
  H   H476      1.0  0.07670  0.95779  0.31038  1.0000
  H   H477      1.0  0.04091  0.83663  0.03154  1.0000
  C   C622      1.0  0.37402  0.70101  0.08147  1.0000
  H   H478      1.0  0.31796  0.69484  0.07841  1.0000
  H   H479      1.0  0.43787  0.61977  0.03400  1.0000
  H   H480      1.0  0.48514  0.68072  0.15147  1.0000
  C   C623      1.0  0.02262  0.85296  0.08576  1.0000
  C   C624      1.0  0.40085  0.57115  0.06870  1.0000
  C   C625      1.0  0.43559  0.71895  0.30795  1.0000
  C   C626      1.0  0.46506  0.96747  0.01199  1.0000
  H   H481      1.0  0.39942  0.72144  0.26299  1.0000
  H   H482      1.0  0.37647  0.58895  0.09458  1.0000
  C   C627      1.0  0.23961  0.89973  0.00997  1.0000
  C   C628      1.0  0.41306  0.63827  0.05989  1.0000
  C   C629      1.0  0.31605  0.63064  0.09540  1.0000
  C   C630      1.0  0.23904  0.52549  0.31090  1.0000
  H   H483      1.0  0.35386  0.74964  0.31726  1.0000
  H   H484      1.0  0.47982  0.62605  0.13520  1.0000
  H   H485      1.0  0.45314  0.70366  0.27951  1.0000
  H   H486      1.0  0.22925  0.50356  0.31835  1.0000
  C   C631      1.0  0.48846  0.59177  0.25644  1.0000
  C   C632      1.0  0.10292  0.98239  0.33377  1.0000
  C   C633      1.0  0.40684  0.73084  0.31857  1.0000
  H   H487      1.0  0.01686  0.93451  0.04932  1.0000
  H   H488      1.0  0.24843  0.51180  0.00628  1.0000
  C   C634      1.0  0.01393  0.86502  0.27559  1.0000
  H   H489      1.0  0.49224  0.75362  0.28933  1.0000
  H   H490      1.0  0.02745  0.74550  0.00331  1.0000
  H   H491      1.0  0.40631  0.98746  0.10594  1.0000
  C   C635      1.0  0.49139  0.98225  0.11981  1.0000
  H   H492      1.0  0.49208  0.54467  0.05788  1.0000
  H   H493      1.0  0.32659  0.78612  0.00478  1.0000
  H   H494      1.0  0.19095  0.92691  0.00895  1.0000
  S   S86       1.0  0.31468  0.50284  0.10794  1.0000
  H   H495      1.0  0.48590  0.99125  0.05240  1.0000
  C   C636      1.0  0.44532  0.99417  0.00486  1.0000
  S   S87       1.0  0.16653  0.79358  0.33370  1.0000
  H   H496      1.0  0.47632  0.58230  0.08485  1.0000
  C   C637      1.0  0.43192  0.99538  0.11073  1.0000
  H   H497      1.0  0.46141  0.77475  0.33141  1.0000
  H   H498      1.0  0.99892  0.69843  0.02056  1.0000
  C   C638      1.0  0.00195  0.74889  0.00977  1.0000
  C   C639      1.0  0.00196  0.83752  0.05404  1.0000
  H   H499      1.0  0.47902  0.58508  0.30537  1.0000
  H   H500      1.0  0.99876  0.91156  0.01770  1.0000
  H   H501      1.0  0.48700  0.64462  0.29790  1.0000
  C   C640      1.0  0.47151  0.60373  0.31593  1.0000
  C   C641      1.0  0.47648  0.63751  0.31180  1.0000
  H   H502      1.0  0.40849  0.50169  0.00830  1.0000
  P   P23       1.0  0.47495  0.70530  0.32004  1.0000
  H   H503      1.0  0.37201  0.62486  0.33115  1.0000
  C   C642      1.0  0.45753  0.59401  0.33372  1.0000
  H   H504      1.0  0.23703  0.50274  0.28284  1.0000
  H   H505      1.0  0.40834  0.73300  0.33409  1.0000
  H   H506      1.0  0.45906  0.60180  0.65147  1.0000
  C   C643      1.0  0.45933  0.78794  0.62867  1.0000
  Fe  Fe45      1.0  0.40499  0.70142  0.53989  1.0000
  S   S88       1.0  0.35653  0.73286  0.54113  1.0000
  S   S89       1.0  0.44651  0.70358  0.51584  1.0000
  Fe  Fe46      1.0  0.38133  0.65981  0.57523  1.0000
  S   S90       1.0  0.33133  0.68913  0.57904  1.0000
  S   S91       1.0  0.40262  0.61558  0.59276  1.0000
  Fe  Fe47      1.0  0.32656  0.68549  0.54664  1.0000
  S   S92       1.0  0.27339  0.68243  0.53170  1.0000
  Fe  Fe48      1.0  0.36467  0.73444  0.57334  1.0000
  S   S93       1.0  0.35761  0.78691  0.58558  1.0000
  S   S94       1.0  0.37441  0.65349  0.54308  1.0000
  S   S95       1.0  0.41536  0.70568  0.57176  1.0000
  Fe  Fe49      1.0  0.07660  0.54428  0.46116  1.0000
  C   C644      1.0  0.13124  0.61604  0.53356  1.0000
  S   S96       1.0  0.12440  0.51217  0.46422  1.0000
  Fe  Fe50      1.0  0.11483  0.59437  0.43475  1.0000
  S   S97       1.0  0.16503  0.56521  0.43584  1.0000
  S   S98       1.0  0.11027  0.64742  0.42272  1.0000
  Fe  Fe51      1.0  0.13170  0.51953  0.43222  1.0000
  H   H507      1.0  0.99812  0.73890  0.56732  1.0000
  Fe  Fe52      1.0  0.15486  0.55997  0.46759  1.0000
  S   S99       1.0  0.20220  0.56059  0.48774  1.0000
  S   S100      1.0  0.08183  0.54903  0.42872  1.0000
  S   S101      1.0  0.10636  0.59174  0.46701  1.0000
  H   H508      1.0  0.30093  0.99649  0.54510  1.0000
  H   H509      1.0  0.01851  0.93968  0.41988  1.0000
  C   C645      1.0  0.11266  0.66200  0.39847  1.0000
  C   C646      1.0  0.12161  0.64111  0.38310  1.0000
  C   C647      1.0  0.12429  0.65421  0.36422  1.0000
  C   C648      1.0  0.11855  0.68828  0.36048  1.0000
  C   C649      1.0  0.10893  0.70903  0.37578  1.0000
  C   C650      1.0  0.10607  0.69594  0.39465  1.0000
  H   H510      1.0  0.12651  0.61493  0.38576  1.0000
  H   H511      1.0  0.13086  0.63791  0.35239  1.0000
  H   H512      1.0  0.10407  0.73522  0.37311  1.0000
  H   H513      1.0  0.09895  0.71231  0.40639  1.0000
  C   C651      1.0  0.14413  0.96691  0.38648  1.0000
  C   C652      1.0  0.16452  0.95292  0.37157  1.0000
  C   C653      1.0  0.15455  0.92296  0.36245  1.0000
  C   C654      1.0  0.12399  0.90648  0.36817  1.0000
  C   C655      1.0  0.10369  0.92043  0.38311  1.0000
  C   C656      1.0  0.11360  0.95044  0.39219  1.0000
  H   H514      1.0  0.18815  0.96538  0.36700  1.0000
  H   H515      1.0  0.17042  0.91266  0.35099  1.0000
  H   H516      1.0  0.07999  0.90796  0.38765  1.0000
  H   H517      1.0  0.48392  0.95280  0.61941  1.0000
  C   C657      1.0  0.25390  0.64804  0.51983  1.0000
  C   C658      1.0  0.22195  0.65275  0.51018  1.0000
  C   C659      1.0  0.20594  0.62640  0.50011  1.0000
  C   C660      1.0  0.22158  0.59489  0.49977  1.0000
  C   C661      1.0  0.25328  0.59004  0.50969  1.0000
  C   C662      1.0  0.26940  0.61647  0.51963  1.0000
  H   H518      1.0  0.20948  0.67693  0.51054  1.0000
  H   H519      1.0  0.18122  0.63027  0.49290  1.0000
  H   H520      1.0  0.26544  0.56567  0.50965  1.0000
  H   H521      1.0  0.29396  0.61258  0.52702  1.0000
  C   C663      1.0  0.35516  0.80021  0.60997  1.0000
  C   C664      1.0  0.34802  0.83395  0.61382  1.0000
  C   C665      1.0  0.34665  0.84587  0.63292  1.0000
  C   C666      1.0  0.35301  0.82433  0.64840  1.0000
  C   C667      1.0  0.35907  0.79035  0.64457  1.0000
  C   C668      1.0  0.36050  0.77838  0.62546  1.0000
  H   H522      1.0  0.34344  0.85098  0.60196  1.0000
  H   H523      1.0  0.34060  0.87168  0.63569  1.0000
  H   H524      1.0  0.36365  0.77337  0.65645  1.0000
  H   H525      1.0  0.36621  0.75244  0.62267  1.0000
  C   C669      1.0  0.35737  0.55099  0.64226  1.0000
  C   C670      1.0  0.39092  0.54510  0.63496  1.0000
  C   C671      1.0  0.40406  0.56482  0.61966  1.0000
  C   C672      1.0  0.38398  0.59079  0.61153  1.0000
  C   C673      1.0  0.35028  0.59646  0.61871  1.0000
  C   C674      1.0  0.33706  0.57652  0.63388  1.0000
  H   H526      1.0  0.43790  0.99400  0.61153  1.0000
  H   H527      1.0  0.43016  0.56022  0.61425  1.0000
  H   H528      1.0  0.33448  0.61629  0.61267  1.0000
  H   H529      1.0  0.31091  0.58096  0.63921  1.0000
  C   C675      1.0  0.32183  0.55071  0.57498  1.0000
  C   C676      1.0  0.04924  0.66068  0.48631  1.0000
  C   C677      1.0  0.37193  0.64445  0.66687  1.0000
  C   C678      1.0  0.47061  0.74604  0.43889  1.0000
  H   H530      1.0  0.47947  0.88669  0.59535  1.0000
  C   C679      1.0  0.47457  0.73647  0.50796  1.0000
  C   C680      1.0  0.47033  0.76944  0.51410  1.0000
  H   H531      1.0  0.46101  0.85978  0.54356  1.0000
  H   H532      1.0  0.44994  0.77548  0.52436  1.0000
  C   C681      1.0  0.29272  0.51226  0.55357  1.0000
  H   H533      1.0  0.33171  0.71898  0.64584  1.0000
  H   H534      1.0  0.11118  0.95199  0.53034  1.0000
  C   C682      1.0  0.41237  0.90818  0.63338  1.0000
  C   C683      1.0  0.30621  0.65454  0.35947  1.0000
  C   C684      1.0  0.28942  0.62443  0.36415  1.0000
  C   C685      1.0  0.00236  0.57168  0.53965  1.0000
  P   P24       1.0  0.25217  0.62385  0.38029  1.0000
  C   C686      1.0  0.26722  0.61574  0.40461  1.0000
  C   C687      1.0  0.22868  0.66308  0.37947  1.0000
  C   C688      1.0  0.21209  0.67542  0.39608  1.0000
  C   C689      1.0  0.19358  0.70546  0.39543  1.0000
  C   C690      1.0  0.19134  0.72342  0.37818  1.0000
  C   C691      1.0  0.17274  0.57276  0.35388  1.0000
  C   C692      1.0  0.22546  0.68089  0.36205  1.0000
  C   C693      1.0  0.24407  0.60258  0.41839  1.0000
  C   C694      1.0  0.25579  0.59431  0.43690  1.0000
  C   C695      1.0  0.29064  0.59966  0.44189  1.0000
  C   C696      1.0  0.31369  0.61380  0.42849  1.0000
  C   C697      1.0  0.30208  0.62178  0.40988  1.0000
  C   C698      1.0  0.22259  0.59114  0.37280  1.0000
  C   C699      1.0  0.22556  0.55874  0.38051  1.0000
  C   C700      1.0  0.20178  0.53392  0.37529  1.0000
  C   C701      1.0  0.17539  0.54092  0.36198  1.0000
  H   H535      1.0  0.42738  0.71143  0.43740  1.0000
  C   C702      1.0  0.19621  0.59777  0.35924  1.0000
  C   C703      1.0  0.05149  0.66565  0.46634  1.0000
  H   H536      1.0  0.19726  0.94699  0.60120  1.0000
  C   C704      1.0  0.01408  0.68738  0.56632  1.0000
  H   H537      1.0  0.29661  0.67794  0.36509  1.0000
  C   C705      1.0  0.46503  0.84490  0.64014  1.0000
  H   H538      1.0  0.21235  0.66158  0.40944  1.0000
  H   H539      1.0  0.17978  0.71418  0.40814  1.0000
  H   H540      1.0  0.17587  0.74610  0.37748  1.0000
  H   H541      1.0  0.38922  0.96563  0.57501  1.0000
  C   C706      1.0  0.38652  0.93176  0.62895  1.0000
  H   H542      1.0  0.21696  0.59848  0.41467  1.0000
  H   H543      1.0  0.23789  0.58368  0.44745  1.0000
  H   H544      1.0  0.29963  0.59272  0.45617  1.0000
  H   H545      1.0  0.34065  0.61808  0.43252  1.0000
  H   H546      1.0  0.32043  0.63223  0.39963  1.0000
  H   H547      1.0  0.24581  0.55259  0.39082  1.0000
  H   H548      1.0  0.24341  0.63719  0.62399  1.0000
  C   C707      1.0  0.02018  0.66336  0.53429  1.0000
  C   C708      1.0  0.43083  0.96975  0.61728  1.0000
  H   H549      1.0  0.37572  0.98106  0.61814  1.0000
  H   H550      1.0  0.06574  0.67521  0.49574  1.0000
  H   H551      1.0  0.46866  0.81560  0.40141  1.0000
  C   C709      1.0  0.30149  0.54487  0.55863  1.0000
  H   H552      1.0  0.28567  0.96216  0.63832  1.0000
  H   H553      1.0  0.20328  0.50929  0.38182  1.0000
  H   H554      1.0  0.32889  0.57599  0.57887  1.0000
  C   C710      1.0  0.11427  0.97782  0.52607  1.0000
  C   C711      1.0  0.17589  0.70462  0.47503  1.0000
  C   C712      1.0  0.16625  0.67817  0.46312  1.0000
  C   C713      1.0  0.19114  0.66310  0.45124  1.0000
  C   C714      1.0  0.22559  0.67471  0.45107  1.0000
  C   C715      1.0  0.23549  0.70139  0.46287  1.0000
  C   C716      1.0  0.21040  0.71624  0.47495  1.0000
  P   P25       1.0  0.27941  0.71763  0.46098  1.0000
  C   C717      1.0  0.28350  0.75560  0.47476  1.0000
  C   C718      1.0  0.31162  0.68933  0.47078  1.0000
  C   C719      1.0  0.34626  0.70026  0.47283  1.0000
  C   C720      1.0  0.37138  0.67965  0.48141  1.0000
  C   C721      1.0  0.36212  0.64789  0.48789  1.0000
  C   C722      1.0  0.32781  0.63669  0.48572  1.0000
  C   C723      1.0  0.30246  0.65741  0.47738  1.0000
  C   C724      1.0  0.28446  0.78710  0.46584  1.0000
  C   C725      1.0  0.28716  0.81596  0.47704  1.0000
  C   C726      1.0  0.28917  0.81355  0.49715  1.0000
  C   C727      1.0  0.28881  0.78228  0.50607  1.0000
  C   C728      1.0  0.28603  0.75346  0.49493  1.0000
  C   C729      1.0  0.28643  0.72470  0.43550  1.0000
  C   C730      1.0  0.26177  0.74322  0.42495  1.0000
  C   C731      1.0  0.26576  0.74762  0.40506  1.0000
  C   C732      1.0  0.29372  0.73266  0.39541  1.0000
  C   C733      1.0  0.31815  0.71375  0.40572  1.0000
  C   C734      1.0  0.31460  0.70981  0.42571  1.0000
  H   H555      1.0  0.15662  0.71604  0.48439  1.0000
  H   H556      1.0  0.13953  0.66911  0.46310  1.0000
  H   H557      1.0  0.18344  0.64254  0.44208  1.0000
  H   H558      1.0  0.24451  0.66321  0.44157  1.0000
  H   H559      1.0  0.21717  0.73677  0.48428  1.0000
  H   H560      1.0  0.35356  0.72506  0.46818  1.0000
  H   H561      1.0  0.39785  0.68849  0.48356  1.0000
  H   H562      1.0  0.38139  0.63229  0.49503  1.0000
  H   H563      1.0  0.32059  0.61224  0.49106  1.0000
  H   H564      1.0  0.27574  0.64866  0.47664  1.0000
  H   H565      1.0  0.28304  0.78968  0.45036  1.0000
  H   H566      1.0  0.28744  0.84024  0.47015  1.0000
  H   H567      1.0  0.29103  0.83587  0.50584  1.0000
  H   H568      1.0  0.29048  0.78017  0.52166  1.0000
  H   H569      1.0  0.28558  0.72943  0.50210  1.0000
  H   H570      1.0  0.23918  0.75400  0.43210  1.0000
  H   H571      1.0  0.24664  0.76209  0.39706  1.0000
  H   H572      1.0  0.29623  0.73572  0.37994  1.0000
  H   H573      1.0  0.33983  0.70209  0.39825  1.0000
  H   H574      1.0  0.33347  0.69463  0.43335  1.0000
  C   C735      1.0  0.44279  0.82337  0.56414  1.0000
  C   C736      1.0  0.46804  0.83853  0.55244  1.0000
  C   C737      1.0  0.29345  0.70714  0.62446  1.0000
  C   C738      1.0  0.20705  0.71102  0.36149  1.0000
  H   H575      1.0  0.43199  0.78372  0.58423  1.0000
  C   C739      1.0  0.33560  0.65468  0.34741  1.0000
  C   C740      1.0  0.03194  0.64582  0.45386  1.0000
  C   C741      1.0  0.44828  0.83555  0.65739  1.0000
  H   H576      1.0  0.46286  0.76952  0.61746  1.0000
  P   P26       1.0  0.44337  0.78281  0.43708  1.0000
  C   C742      1.0  0.41435  0.77748  0.41674  1.0000
  H   H577      1.0  0.47185  0.94727  0.66148  1.0000
  C   C743      1.0  0.45676  0.94632  0.62174  1.0000
  H   H578      1.0  0.19323  0.62228  0.35291  1.0000
  C   C744      1.0  0.27125  0.96822  0.62529  1.0000
  H   H579      1.0  0.09962  0.96161  0.34367  1.0000
  C   C745      1.0  0.47043  0.81896  0.43261  1.0000
  C   C746      1.0  0.38108  0.79238  0.41643  1.0000
  C   C747      1.0  0.36009  0.79008  0.39999  1.0000
  C   C748      1.0  0.37204  0.77281  0.38377  1.0000
  C   C749      1.0  0.40484  0.75742  0.38407  1.0000
  C   C750      1.0  0.42591  0.75974  0.40046  1.0000
  C   C751      1.0  0.41857  0.78955  0.45901  1.0000
  C   C752      1.0  0.40270  0.82064  0.46240  1.0000
  C   C753      1.0  0.38361  0.82617  0.47935  1.0000
  C   C754      1.0  0.38038  0.80080  0.49309  1.0000
  C   C755      1.0  0.39628  0.76999  0.48992  1.0000
  C   C756      1.0  0.41565  0.76443  0.47308  1.0000
  H   H580      1.0  0.40687  0.52565  0.64125  1.0000
  C   C757      1.0  0.47006  0.82089  0.62567  1.0000
  H   H581      1.0  0.34390  0.57121  0.34017  1.0000
  H   H582      1.0  0.14852  0.96659  0.50218  1.0000
  C   C758      1.0  0.13526  0.98599  0.51022  1.0000
  H   H583      1.0  0.21884  0.99084  0.57916  1.0000
  C   C759      1.0  0.45550  0.71419  0.43819  1.0000
  H   H584      1.0  0.29243  0.56564  0.54994  1.0000
  H   H585      1.0  0.37135  0.80621  0.42867  1.0000
  H   H586      1.0  0.33460  0.80198  0.39978  1.0000
  H   H587      1.0  0.35589  0.77154  0.37097  1.0000
  H   H588      1.0  0.41428  0.74415  0.37151  1.0000
  H   H589      1.0  0.45160  0.74830  0.40026  1.0000
  H   H590      1.0  0.40541  0.84074  0.45202  1.0000
  H   H591      1.0  0.37167  0.85024  0.48194  1.0000
  H   H592      1.0  0.36604  0.80506  0.50637  1.0000
  H   H593      1.0  0.39433  0.75057  0.50080  1.0000
  H   H594      1.0  0.42881  0.74075  0.47145  1.0000
  H   H595      1.0  0.15203  0.57822  0.34368  1.0000
  H   H596      1.0  0.16559  0.57497  0.52680  1.0000
  C   C760      1.0  0.48554  0.83591  0.44817  1.0000
  S   S102      1.0  0.33956  0.52800  0.66201  1.0000
  H   H597      1.0  0.01528  0.96623  0.45211  1.0000
  H   H598      1.0  0.00714  0.69685  0.51072  1.0000
  H   H599      1.0  0.35937  0.92681  0.63236  1.0000
  H   H600      1.0  0.09755  0.96084  0.40355  1.0000
  C   C761      1.0  0.02193  0.96579  0.50944  1.0000
  C   C762      1.0  0.33325  0.59454  0.34547  1.0000
  H   H601      1.0  0.06932  0.68398  0.46038  1.0000
  H   H602      1.0  0.24363  0.55441  0.33677  1.0000
  C   C763      1.0  0.13912  0.58464  0.52602  1.0000
  C   C764      1.0  0.09723  0.62880  0.53218  1.0000
  H   H603      1.0  0.43735  0.61053  0.36109  1.0000
  S   S103      1.0  0.10958  0.86873  0.35722  1.0000
  H   H604      1.0  0.02889  0.56713  0.54436  1.0000
  H   H605      1.0  0.32585  0.97396  0.57936  1.0000
  C   C765      1.0  0.37848  0.99063  0.57496  1.0000
  C   C766      1.0  0.38836  0.65327  0.64944  1.0000
  H   H606      1.0  0.48011  0.82833  0.46290  1.0000
  C   C767      1.0  0.99641  0.93469  0.42929  1.0000
  H   H607      1.0  0.46496  0.66113  0.43841  1.0000
  H   H608      1.0  0.43182  0.64438  0.63030  1.0000
  C   C768      1.0  0.43528  0.61424  0.65600  1.0000
  C   C769      1.0  0.28098  0.64924  0.64600  1.0000
  C   C770      1.0  0.00753  0.61622  0.48128  1.0000
  C   C771      1.0  0.34256  0.99552  0.57758  1.0000
  C   C772      1.0  0.22141  0.95988  0.60442  1.0000
  H   H609      1.0  0.03835  0.94623  0.51526  1.0000
  H   H610      1.0  0.15680  0.52171  0.35809  1.0000
  H   H611      1.0  0.23625  0.67115  0.34875  1.0000
  C   C773      1.0  0.28376  0.99294  0.61282  1.0000
  H   H612      1.0  0.37668  0.67118  0.63970  1.0000
  C   C774      1.0  0.00439  0.71789  0.55812  1.0000
  H   H613      1.0  0.40481  0.88500  0.64022  1.0000
  C   C775      1.0  0.44769  0.91529  0.62981  1.0000
  C   C776      1.0  0.30362  0.59436  0.35737  1.0000
  C   C777      1.0  0.48571  0.78293  0.57477  1.0000
  H   H614      1.0  0.15178  0.63069  0.54013  1.0000
  H   H615      1.0  0.25455  0.68854  0.60487  1.0000
  C   C778      1.0  0.03552  0.98747  0.49519  1.0000
  H   H616      1.0  0.03474  0.64887  0.43837  1.0000
  C   C779      1.0  0.39574  0.96250  0.62097  1.0000
  H   H617      1.0  0.23054  0.93245  0.63079  1.0000
  C   C780      1.0  0.26244  0.65518  0.62894  1.0000
  H   H618      1.0  0.11957  0.54213  0.51061  1.0000
  H   H619      1.0  0.41614  0.83272  0.56446  1.0000
  H   H620      1.0  0.20335  0.72410  0.34794  1.0000
  H   H621      1.0  0.08179  0.99607  0.54891  1.0000
  C   C781      1.0  0.30614  0.67214  0.65235  1.0000
  C   C782      1.0  0.07915  0.57872  0.51550  1.0000
  H   H622      1.0  0.34841  0.52902  0.59915  1.0000
  C   C783      1.0  0.07082  0.60995  0.52337  1.0000
  C   C784      1.0  0.47936  0.82848  0.41369  1.0000
  S   S104      1.0  0.02106  0.53299  0.47198  1.0000
  C   C785      1.0  0.24013  0.95163  0.62109  1.0000
  H   H623      1.0  0.27687  0.50783  0.54089  1.0000
  C   C786      1.0  0.26866  0.68410  0.61818  1.0000
  C   C787      1.0  0.41995  0.63829  0.64410  1.0000
  H   H624      1.0  0.05953  0.56450  0.50784  1.0000
  C   C788      1.0  0.47667  0.68569  0.43866  1.0000
  H   H625      1.0  0.09190  0.65351  0.53765  1.0000
  C   C789      1.0  0.11312  0.56603  0.51696  1.0000
  H   H626      1.0  0.02919  0.63661  0.56102  1.0000
  H   H627      1.0  0.49197  0.76119  0.58342  1.0000
  H   H628      1.0  0.45868  0.50249  0.59001  1.0000
  C   C790      1.0  0.44353  0.77874  0.64608  1.0000
  H   H629      1.0  0.29850  0.72949  0.61604  1.0000
  P   P27       1.0  0.48168  0.88685  0.63748  1.0000
  C   C791      1.0  0.31220  0.70113  0.64141  1.0000
  S   S105      1.0  0.12484  0.70361  0.33658  1.0000
  C   C792      1.0  0.49190  0.79487  0.50649  1.0000
  H   H630      1.0  0.48209  0.82735  0.61207  1.0000
  C   C793      1.0  0.45169  0.79563  0.57530  1.0000
  H   H631      1.0  0.29193  0.57072  0.36131  1.0000
  H   H632      1.0  0.06208  0.98443  0.49008  1.0000
  H   H633      1.0  0.27294  0.99153  0.51327  1.0000
  H   H634      1.0  0.43460  0.75338  0.64826  1.0000
  H   H635      1.0  0.27577  0.62663  0.65401  1.0000
  C   C794      1.0  0.00250  0.72122  0.53806  1.0000
  C   C795      1.0  0.23379  0.98474  0.59194  1.0000
  H   H636      1.0  0.01538  0.68477  0.58188  1.0000
  C   C796      1.0  0.02684  0.63620  0.49395  1.0000
  C   C797      1.0  0.00402  0.51176  0.49259  1.0000
  P   P28       1.0  0.02779  0.62711  0.51948  1.0000
  C   C798      1.0  0.34913  0.62470  0.34042  1.0000
  H   H637      1.0  0.29563  0.50521  0.61800  1.0000
  C   C799      1.0  0.01004  0.62109  0.46133  1.0000
  C   C800      1.0  0.44813  0.61815  0.34730  1.0000
  H   H638      1.0  0.34792  0.67802  0.34344  1.0000
  C   C801      1.0  0.00993  0.69397  0.52616  1.0000
  C   C802      1.0  0.43791  0.80258  0.66039  1.0000
  C   C803      1.0  0.33310  0.52398  0.58638  1.0000
  C   C804      1.0  0.02198  0.66022  0.55446  1.0000
  C   C805      1.0  0.45326  0.65200  0.34320  1.0000
  C   C806      1.0  0.48519  0.72883  0.34146  1.0000
  H   H639      1.0  0.02075  0.98698  0.65573  1.0000
  H   H640      1.0  0.48025  0.80775  0.35956  1.0000
  H   H641      1.0  0.48770  0.82038  0.51088  1.0000
  H   H642      1.0  0.45431  0.56774  0.33697  1.0000
  C   C807      1.0  0.47602  0.76266  0.34284  1.0000
  C   C808      1.0  0.48693  0.78152  0.35869  1.0000
  H   H643      1.0  0.44591  0.67039  0.35385  1.0000
  C   C809      1.0  0.03743  0.99076  0.66816  1.0000
  Fe  Fe53      1.0  0.35114  0.96815  0.67897  1.0000
  H   H644      1.0  0.43014  0.89543  0.81304  1.0000
  Fe  Fe54      1.0  0.39448  0.93661  0.71171  1.0000
  S   S106      1.0  0.35496  0.89636  0.71672  1.0000
  S   S107      1.0  0.44285  0.94334  0.73072  1.0000
  Fe  Fe55      1.0  0.35311  0.89216  0.68425  1.0000
  Fe  Fe56      1.0  0.31415  0.93676  0.71399  1.0000
  S   S108      1.0  0.26643  0.93669  0.73409  1.0000
  H   H645      1.0  0.37641  0.61396  0.69270  1.0000
  S   S109      1.0  0.35365  0.97756  0.71098  1.0000
  Fe  Fe57      1.0  0.12324  0.59715  0.83931  1.0000
  S   S110      1.0  0.08030  0.55918  0.84281  1.0000
  S   S111      1.0  0.13692  0.64404  0.85648  1.0000
  Fe  Fe58      1.0  0.15590  0.55994  0.80430  1.0000
  S   S112      1.0  0.11464  0.52016  0.80506  1.0000
  S   S113      1.0  0.20392  0.56426  0.78461  1.0000
  Fe  Fe59      1.0  0.07649  0.56257  0.81013  1.0000
  H   H646      1.0  0.41806  0.99343  0.76102  1.0000
  Fe  Fe60      1.0  0.12174  0.51979  0.83742  1.0000
  S   S114      1.0  0.12395  0.96298  0.84688  1.0000
  S   S115      1.0  0.11732  0.60234  0.80710  1.0000
  S   S116      1.0  0.16480  0.55797  0.83621  1.0000
  Fe  Fe61      1.0  0.12620  0.81611  0.96313  1.0000
  S   S117      1.0  0.08347  0.85416  0.96694  1.0000
  S   S118      1.0  0.18239  0.81937  0.97433  1.0000
  Fe  Fe62      1.0  0.07892  0.76797  0.94086  1.0000
  S   S119      1.0  0.03340  0.80309  0.94320  1.0000
  S   S120      1.0  0.06415  0.71792  0.92754  1.0000
  Fe  Fe63      1.0  0.07119  0.84388  0.93568  1.0000
  S   S121      1.0  0.04893  0.88363  0.91546  1.0000
  Fe  Fe64      1.0  0.04872  0.81023  0.97407  1.0000
  H   H647      1.0  0.05107  0.65271  0.99029  1.0000
  S   S122      1.0  0.11602  0.80832  0.93121  1.0000
  S   S123      1.0  0.09229  0.77274  0.97245  1.0000
  C   C810      1.0  0.49019  0.97653  0.89101  1.0000
  C   C811      1.0  0.44295  0.72146  0.86679  1.0000
  P   P29       1.0  0.36209  0.99273  0.79004  1.0000
  C   C812      1.0  0.10208  0.94079  0.86557  1.0000
  C   C813      1.0  0.11926  0.91375  0.87446  1.0000
  C   C814      1.0  0.10355  0.89606  0.88980  1.0000
  C   C815      1.0  0.07019  0.90502  0.89627  1.0000
  C   C816      1.0  0.05278  0.93172  0.88720  1.0000
  C   C817      1.0  0.06862  0.94958  0.87196  1.0000
  H   H648      1.0  0.14505  0.90665  0.86954  1.0000
  H   H649      1.0  0.11723  0.87556  0.89661  1.0000
  H   H650      1.0  0.02696  0.93886  0.89211  1.0000
  H   H651      1.0  0.14814  0.53268  0.87580  1.0000
  C   C818      1.0  0.11616  0.66383  0.87634  1.0000
  C   C819      1.0  0.08576  0.65123  0.88489  1.0000
  C   C820      1.0  0.07036  0.66796  0.90066  1.0000
  C   C821      1.0  0.08492  0.69758  0.90789  1.0000
  C   C822      1.0  0.11517  0.71027  0.89926  1.0000
  C   C823      1.0  0.13078  0.69338  0.88365  1.0000
  H   H652      1.0  0.07432  0.62847  0.87949  1.0000
  H   H653      1.0  0.04707  0.65785  0.90733  1.0000
  H   H654      1.0  0.12668  0.73291  0.90473  1.0000
  H   H655      1.0  0.15440  0.70327  0.87722  1.0000
  C   C824      1.0  0.24631  0.97085  0.74625  1.0000
  C   C825      1.0  0.21533  0.96523  0.75675  1.0000
  C   C826      1.0  0.36637  0.76618  0.79898  1.0000
  C   C827      1.0  0.22341  0.53127  0.77128  1.0000
  C   C828      1.0  0.25496  0.53696  0.76129  1.0000
  C   C829      1.0  0.47709  0.77450  0.78361  1.0000
  H   H656      1.0  0.20430  0.94045  0.75714  1.0000
  H   H657      1.0  0.25774  0.63944  0.73141  1.0000
  H   H658      1.0  0.26694  0.56132  0.76189  1.0000
  C   C830      1.0  0.47848  0.82877  0.82646  1.0000
  C   C831      1.0  0.46932  0.91098  0.74066  1.0000
  H   H659      1.0  0.42599  0.86506  0.78192  1.0000
  C   C832      1.0  0.46497  0.87753  0.73556  1.0000
  C   C833      1.0  0.31654  0.72927  0.68566  1.0000
  H   H660      1.0  0.44457  0.87075  0.72553  1.0000
  C   C834      1.0  0.20355  0.85106  0.98792  1.0000
  H   H661      1.0  0.14363  0.94866  0.70737  1.0000
  H   H662      1.0  0.18741  0.96434  0.90032  1.0000
  H   H663      1.0  0.45589  0.79139  0.78018  1.0000
  C   C835      1.0  0.27128  0.62935  0.71897  1.0000
  H   H664      1.0  0.40852  0.83973  0.82659  1.0000
  H   H665      1.0  0.39258  0.88969  0.75483  1.0000
  H   H666      1.0  0.42784  0.92987  0.98407  1.0000
  C   C836      1.0  0.38279  0.74001  0.70143  1.0000
  H   H667      1.0  0.05249  0.73828  0.74978  1.0000
  C   C837      1.0  0.01871  0.65047  0.76251  1.0000
  C   C838      1.0  0.41850  0.87447  0.94744  1.0000
  H   H668      1.0  0.15127  0.58992  0.88899  1.0000
  H   H669      1.0  0.05693  0.62603  0.78070  1.0000
  H   H670      1.0  0.03950  0.88397  0.82206  1.0000
  C   C839      1.0  0.16089  0.50883  0.90276  1.0000
  C   C840      1.0  0.16643  0.91096  0.93697  1.0000
  C   C841      1.0  0.46632  0.76210  0.84404  1.0000
  C   C842      1.0  0.49380  0.87363  0.84838  1.0000
  C   C843      1.0  0.15633  0.56859  0.89829  1.0000
  C   C844      1.0  0.02987  0.80023  0.88994  1.0000
  H   H671      1.0  0.25600  0.57864  0.72518  1.0000
  C   C845      1.0  0.18135  0.50575  0.97429  1.0000
  C   C846      1.0  0.30584  0.60298  0.68692  1.0000
  H   H672      1.0  0.41432  0.74068  0.84270  1.0000
  H   H673      1.0  0.02627  0.72349  0.78117  1.0000
  C   C847      1.0  0.23462  0.50594  0.99307  1.0000
  C   C848      1.0  0.28761  0.58188  0.69947  1.0000
  H   H674      1.0  0.17606  0.55009  0.94481  1.0000
  H   H675      1.0  0.39412  0.68945  0.69367  1.0000
  H   H676      1.0  0.48972  0.76630  0.75369  1.0000
  C   C849      1.0  0.10914  0.93744  0.76423  1.0000
  H   H677      1.0  0.30615  0.78057  0.69308  1.0000
  C   C850      1.0  0.19877  0.99122  0.76700  1.0000
  H   H678      1.0  0.42876  0.52704  0.97741  1.0000
  H   H679      1.0  0.24253  0.55200  0.85118  1.0000
  H   H680      1.0  0.25496  0.54329  0.81641  1.0000
  C   C851      1.0  0.41938  0.60559  0.67347  1.0000
  C   C852      1.0  0.34729  0.79533  0.80240  1.0000
  H   H681      1.0  0.01741  0.55055  0.73114  1.0000
  C   C853      1.0  0.45054  0.87935  0.93805  1.0000
  C   C854      1.0  0.40094  0.76351  0.80535  1.0000
  C   C855      1.0  0.43426  0.91568  0.97125  1.0000
  H   H682      1.0  0.45588  0.86581  0.92490  1.0000
  C   C856      1.0  0.43883  0.74158  0.85040  1.0000
  C   C857      1.0  0.19594  0.97819  0.97016  1.0000
  C   C858      1.0  0.31612  0.98952  0.79593  1.0000
  H   H683      1.0  0.00124  0.73116  0.95865  1.0000
  H   H684      1.0  0.20508  0.85895  0.90462  1.0000
  H   H685      1.0  0.02262  0.72705  0.81942  1.0000
  C   C859      1.0  0.03492  0.96939  0.68408  1.0000
  H   H686      1.0  0.40845  0.74428  0.70751  1.0000
  H   H687      1.0  0.09404  0.93464  0.93295  1.0000
  C   C860      1.0  0.30722  0.63743  0.69032  1.0000
  H   H688      1.0  0.29537  0.51607  0.74291  1.0000
  C   C861      1.0  0.47447  0.72163  0.87694  1.0000
  C   C862      1.0  0.48322  0.52794  0.98533  1.0000
  C   C863      1.0  0.24530  0.98426  0.80628  1.0000
  H   H689      1.0  0.17526  0.98632  0.77521  1.0000
  H   H690      1.0  0.05456  0.70441  0.97069  1.0000
  C   C864      1.0  0.16888  0.51316  0.92235  1.0000
  C   C865      1.0  0.02738  0.66430  0.98496  1.0000
  S   S124      1.0  0.39529  0.93055  0.67932  1.0000
  C   C866      1.0  0.27114  0.51135  0.75051  1.0000
  H   H691      1.0  0.15392  0.51219  0.97301  1.0000
  C   C867      1.0  0.28968  0.65052  0.70645  1.0000
  C   C868      1.0  0.02651  0.74706  0.75340  1.0000
  H   H692      1.0  0.01841  0.77031  0.72569  1.0000
  C   C869      1.0  0.23867  0.84636  0.99334  1.0000
  H   H693      1.0  0.34789  0.84436  0.81495  1.0000
  H   H694      1.0  0.25221  0.82400  0.98888  1.0000
  H   H695      1.0  0.01932  0.71686  0.88392  1.0000
  H   H696      1.0  0.02691  0.96757  0.77147  1.0000
  C   C870      1.0  0.41669  0.79005  0.81521  1.0000
  H   H697      1.0  0.17847  0.85852  0.93733  1.0000
  C   C871      1.0  0.05236  0.96410  0.76484  1.0000
  C   C872      1.0  0.24324  0.52695  0.84539  1.0000
  C   C873      1.0  0.19935  0.51430  0.99109  1.0000
  C   C874      1.0  0.03093  0.62477  0.77468  1.0000
  C   C875      1.0  0.17032  0.54570  0.92979  1.0000
  S   S125      1.0  0.30897  0.92902  0.68195  1.0000
  C   C876      1.0  0.47508  0.90187  0.94551  1.0000
  C   C877      1.0  0.01008  0.64372  0.82446  1.0000
  H   H698      1.0  0.39974  0.85688  0.94175  1.0000
  C   C878      1.0  0.02853  0.74196  0.88123  1.0000
  H   H699      1.0  0.10446  0.69356  0.78576  1.0000
  C   C879      1.0  0.46624  0.92070  0.96187  1.0000
  C   C880      1.0  0.27026  0.59505  0.71549  1.0000
  C   C881      1.0  0.01666  0.76815  0.89275  1.0000
  H   H700      1.0  0.22852  0.50372  0.87222  1.0000
  H   H701      1.0  0.01994  0.60895  0.71939  1.0000
  C   C882      1.0  0.19023  0.99261  0.95194  1.0000
  H   H702      1.0  0.02288  0.62166  0.83020  1.0000
  C   C883      1.0  0.38807  0.62090  0.67903  1.0000
  C   C884      1.0  0.35810  0.76573  0.70127  1.0000
  H   H703      1.0  0.06816  0.92520  0.78442  1.0000
  H   H704      1.0  0.20461  0.93794  0.69710  1.0000
  C   C885      1.0  0.38126  0.95169  0.78780  1.0000
  C   C886      1.0  0.37817  0.93394  0.77045  1.0000
  C   C887      1.0  0.39407  0.90271  0.76847  1.0000
  C   C888      1.0  0.41295  0.88886  0.78375  1.0000
  C   C889      1.0  0.41548  0.90604  0.80118  1.0000
  C   C890      1.0  0.39974  0.93732  0.80323  1.0000
  C   C891      1.0  0.37455  0.70897  0.69352  1.0000
  H   H705      1.0  0.31906  0.59234  0.67458  1.0000
  H   H706      1.0  0.15531  0.91027  0.95136  1.0000
  C   C892      1.0  0.15468  0.53638  0.89083  1.0000
  C   C893      1.0  0.06488  0.87376  0.82567  1.0000
  P   P30       1.0  0.15365  0.97933  0.93754  1.0000
  H   H707      1.0  0.05505  0.97028  0.86527  1.0000
  H   H708      1.0  0.49023  0.96075  0.69450  1.0000
  H   H709      1.0  0.24783  0.93512  0.79399  1.0000
  C   C894      1.0  0.26229  0.95752  0.79739  1.0000
  C   C895      1.0  0.29750  0.96016  0.79210  1.0000
  C   C896      1.0  0.05497  0.96074  0.97430  1.0000
  C   C897      1.0  0.06047  0.94278  0.95732  1.0000
  H   H710      1.0  0.37433  0.51763  0.81061  1.0000
  H   H711      1.0  0.20962  0.91211  0.88628  1.0000
  H   H712      1.0  0.17814  0.95963  0.97589  1.0000
  C   C898      1.0  0.02933  0.69356  0.97406  1.0000
  C   C899      1.0  0.39716  0.81904  0.81888  1.0000
  C   C900      1.0  0.18453  0.94131  0.90836  1.0000
  C   C901      1.0  0.00946  0.59759  0.77910  1.0000
  H   H713      1.0  0.40250  0.95030  0.81677  1.0000
  C   C902      1.0  0.34156  0.70358  0.68523  1.0000
  S   S126      1.0  0.35455  0.83871  0.67265  1.0000
  C   C903      1.0  0.09396  0.74439  0.79421  1.0000
  H   H714      1.0  0.02127  0.82051  0.89912  1.0000
  S   S127      1.0  0.02322  0.56526  0.79509  1.0000
  H   H715      1.0  0.47159  0.82724  0.85755  1.0000
  C   C904      1.0  0.16799  0.94098  0.92647  1.0000
  H   H716      1.0  0.04453  0.82628  0.83459  1.0000
  C   C905      1.0  0.36266  0.82171  0.81238  1.0000
  H   H717      1.0  0.30977  0.93944  0.78477  1.0000
  H   H718      1.0  0.22950  0.97601  0.99511  1.0000
  H   H719      1.0  0.28707  0.55525  0.69674  1.0000
  H   H720      1.0  0.48817  0.83949  0.79619  1.0000
  H   H721      1.0  0.03574  0.67112  0.75909  1.0000
  H   H722      1.0  0.41553  0.74087  0.80245  1.0000
  C   C906      1.0  0.48617  0.76782  0.80289  1.0000
  C   C907      1.0  0.25034  0.52207  0.82582  1.0000
  H   H723      1.0  0.36470  0.79011  0.70691  1.0000
  P   P31       1.0  0.46200  0.78720  0.82238  1.0000
  H   H724      1.0  0.16515  0.59829  0.92356  1.0000
  H   H725      1.0  0.08721  0.75245  0.77977  1.0000
  H   H726      1.0  0.32062  0.79751  0.79727  1.0000
  H   H727      1.0  0.29013  0.67695  0.70943  1.0000
  C   C908      1.0  0.41048  0.89245  0.96412  1.0000
  C   C909      1.0  0.09046  0.94842  0.94622  1.0000
  C   C910      1.0  0.22514  0.98721  0.98105  1.0000
  C   C911      1.0  0.05544  0.80602  0.87588  1.0000
  C   C912      1.0  0.06780  0.77972  0.86433  1.0000
  C   C913      1.0  0.05413  0.74759  0.86717  1.0000
  P   P32       1.0  0.10385  0.78666  0.84783  1.0000
  C   C914      1.0  0.10275  0.75713  0.82814  1.0000
  C   C915      1.0  0.10058  0.82845  0.83825  1.0000
  H   H728      1.0  0.35445  0.74572  0.79125  1.0000
  C   C916      1.0  0.44757  0.52105  0.98854  1.0000
  C   C917      1.0  0.32496  0.76031  0.69348  1.0000
  C   C918      1.0  0.12750  0.88064  0.82849  1.0000
  C   C919      1.0  0.13050  0.84829  0.83589  1.0000
  C   C920      1.0  0.11334  0.72401  0.83122  1.0000
  C   C921      1.0  0.11384  0.70126  0.81601  1.0000
  C   C922      1.0  0.10398  0.71134  0.79752  1.0000
  H   H729      1.0  0.42186  0.70534  0.87149  1.0000
  C   C923      1.0  0.09305  0.76716  0.80944  1.0000
  C   C924      1.0  0.14441  0.78200  0.86093  1.0000
  C   C925      1.0  0.17450  0.76985  0.85161  1.0000
  C   C926      1.0  0.20565  0.76561  0.86188  1.0000
  C   C927      1.0  0.20714  0.77390  0.88142  1.0000
  C   C928      1.0  0.17759  0.78674  0.89067  1.0000
  C   C929      1.0  0.14636  0.79092  0.88046  1.0000
  C   C930      1.0  0.09473  0.89339  0.82346  1.0000
  H   H730      1.0  0.12766  0.91986  0.77030  1.0000
  H   H731      1.0  0.35130  0.99540  0.83192  1.0000
  H   H732      1.0  0.06635  0.83085  0.87456  1.0000
  H   H733      1.0  0.06399  0.72651  0.85917  1.0000
  C   C931      1.0  0.07569  0.94047  0.77221  1.0000
  C   C932      1.0  0.48020  0.84178  0.84525  1.0000
  H   H734      1.0  0.05060  0.67702  0.83363  1.0000
  H   H735      1.0  0.15039  0.89641  0.82721  1.0000
  H   H736      1.0  0.15607  0.83910  0.83993  1.0000
  H   H737      1.0  0.12167  0.71574  0.84537  1.0000
  H   H738      1.0  0.12217  0.67576  0.81860  1.0000
  C   C933      1.0  0.06779  0.84132  0.83295  1.0000
  C   C934      1.0  0.16417  0.57325  0.91777  1.0000
  H   H739      1.0  0.08534  0.79256  0.80640  1.0000
  H   H740      1.0  0.17395  0.76336  0.83647  1.0000
  H   H741      1.0  0.22853  0.75552  0.85472  1.0000
  H   H742      1.0  0.23114  0.77021  0.88945  1.0000
  H   H743      1.0  0.17872  0.79301  0.90585  1.0000
  H   H744      1.0  0.12376  0.80071  0.88795  1.0000
  C   C935      1.0  0.17969  0.88151  0.92907  1.0000
  C   C936      1.0  0.19495  0.88182  0.91074  1.0000
  C   C937      1.0  0.19755  0.91175  0.90044  1.0000
  H   H745      1.0  0.36405  0.94445  0.75831  1.0000
  H   H746      1.0  0.15940  0.88423  0.98972  1.0000
  C   C938      1.0  0.48761  0.85289  0.74308  1.0000
  C   C939      1.0  0.02579  0.67494  0.82621  1.0000
  P   P33       1.0  0.33133  0.66421  0.67397  1.0000
  H   H747      1.0  0.43097  0.58656  0.68258  1.0000
  C   C940      1.0  0.10939  0.99030  0.96900  1.0000
  H   H748      1.0  0.09251  0.91889  0.81834  1.0000
  H   H749      1.0  0.12169  0.97468  0.89923  1.0000
  C   C941      1.0  0.48904  0.84876  0.81083  1.0000
  H   H750      1.0  0.04147  0.92451  0.95260  1.0000
  C   C942      1.0  0.00725  0.76500  0.73975  1.0000
  C   C943      1.0  0.18643  0.88025  0.99368  1.0000
  C   C944      1.0  0.99650  0.59429  0.71726  1.0000
  H   H751      1.0  0.38571  0.88871  0.97146  1.0000
  H   H752      1.0  0.03165  0.95638  0.98284  1.0000
  S   S128      1.0  0.00581  0.81462  0.99709  1.0000
  H   H753      1.0  0.36347  0.50828  0.77577  1.0000
  H   H754      1.0  0.42435  0.79584  0.67360  1.0000
  C   C945      1.0  0.49633  0.91930  0.75354  1.0000
  C   C946      1.0  0.11543  0.97175  0.95217  1.0000
  C   C947      1.0  0.00981  0.70312  0.81813  1.0000
  H   H755      1.0  0.49221  0.92332  0.89365  1.0000
  H   H756      1.0  0.48400  0.93934  0.96743  1.0000
  C   C948      1.0  0.05622  0.97431  0.70020  1.0000
  C   C949      1.0  0.01147  0.73862  0.77119  1.0000
  H   H757      1.0  0.48143  0.97598  0.87617  1.0000
  H   H758      1.0  0.47800  0.70554  0.88940  1.0000
  H   H759      1.0  0.48429  0.82721  0.73879  1.0000
  H   H760      1.0  0.29080  0.72562  0.67953  1.0000
  C   C950      1.0  0.39372  0.50477  0.80196  1.0000
  H   H761      1.0  0.21771  0.98261  0.80983  1.0000
  C   C951      1.0  0.07934  0.98461  0.98009  1.0000
  H   H762      1.0  0.07484  0.99894  0.99308  1.0000
  C   C952      1.0  0.19637  0.96299  0.70079  1.0000
  C   C953      1.0  0.11914  0.95779  0.74874  1.0000
  C   C954      1.0  0.49611  0.76017  0.76849  1.0000
  C   C955      1.0  0.06226  0.98439  0.74934  1.0000
  H   H763      1.0  0.14545  0.95564  0.74324  1.0000
  H   H764      1.0  0.99814  0.76330  0.90429  1.0000
  C   C956      1.0  0.16205  0.96911  0.70688  1.0000
  H   H765      1.0  0.05398  0.95730  0.71229  1.0000
  H   H766      1.0  0.24742  0.98401  0.69583  1.0000
  C   C957      1.0  0.22057  0.98898  0.70003  1.0000
  C   C958      1.0  0.99882  0.70880  0.96727  1.0000
  H   H767      1.0  0.01638  0.94899  0.68392  1.0000
  C   C959      1.0  0.09558  0.98112  0.74099  1.0000
  C   C960      1.0  0.48827  0.92973  0.66915  1.0000
  H   H768      1.0  0.44299  0.85375  0.66856  1.0000
  C   C961      1.0  0.99626  0.19472  0.00447  1.0000
  S   S129      1.0  0.66320  0.08286  0.32544  1.0000
  Fe  Fe65      1.0  0.57911  0.07266  0.29531  1.0000
  S   S130      1.0  0.62168  0.10871  0.28732  1.0000
  S   S131      1.0  0.52842  0.06650  0.27805  1.0000
  Fe  Fe66      1.0  0.65913  0.06663  0.29435  1.0000
  S   S132      1.0  0.71143  0.05680  0.27866  1.0000
  Fe  Fe67      1.0  0.62213  0.12122  0.31911  1.0000
  S   S133      1.0  0.61649  0.02945  0.30055  1.0000
  H   H769      1.0  0.91174  0.02483  0.02182  1.0000
  Fe  Fe68      1.0  0.82624  0.45090  0.20953  1.0000
  S   S134      1.0  0.87820  0.47683  0.20857  1.0000
  S   S135      1.0  0.77464  0.46505  0.22425  1.0000
  Fe  Fe69      1.0  0.85147  0.39473  0.18252  1.0000
  S   S136      1.0  0.90542  0.41671  0.17971  1.0000
  S   S137      1.0  0.82650  0.34845  0.16906  1.0000
  Fe  Fe70      1.0  0.90238  0.42552  0.21180  1.0000
  S   S138      1.0  0.95068  0.42349  0.23142  1.0000
  Fe  Fe71      1.0  0.87781  0.46632  0.17664  1.0000
  C   C962      1.0  0.50701  0.09839  0.26442  1.0000
  S   S139      1.0  0.85010  0.40023  0.21493  1.0000
  S   S140      1.0  0.82437  0.44380  0.17733  1.0000
  Fe  Fe72      1.0  0.82273  0.17869  0.05227  1.0000
  S   S141      1.0  0.85798  0.13424  0.04974  1.0000
  S   S142      1.0  0.77535  0.18734  0.03252  1.0000
  Fe  Fe73      1.0  0.86863  0.20961  0.08450  1.0000
  S   S143      1.0  0.90615  0.16597  0.08401  1.0000
  S   S144      1.0  0.88645  0.25453  0.10231  1.0000
  Fe  Fe74      1.0  0.90298  0.17064  0.05156  1.0000
  S   S145      1.0  0.94891  0.16702  0.03022  1.0000
  Fe  Fe75      1.0  0.85779  0.13397  0.08234  1.0000
  S   S146      1.0  0.84093  0.08584  0.09767  1.0000
  S   S147      1.0  0.86771  0.21513  0.05208  1.0000
  S   S148      1.0  0.82036  0.17744  0.08484  1.0000
  C   C963      1.0  0.97213  0.39084  0.24440  1.0000
  C   C964      1.0  0.89132  0.42424  0.04576  1.0000
  C   C965      1.0  0.95820  0.35870  0.24608  1.0000
  C   C966      1.0  0.75136  0.48689  0.29990  1.0000
  H   H770      1.0  0.93382  0.35284  0.23899  1.0000
  C   C967      1.0  0.84336  0.32283  0.15031  1.0000
  C   C968      1.0  0.87703  0.32718  0.14286  1.0000
  C   C969      1.0  0.88966  0.30585  0.12828  1.0000
  C   C970      1.0  0.86877  0.28012  0.12083  1.0000
  C   C971      1.0  0.83498  0.27582  0.12819  1.0000
  C   C972      1.0  0.82241  0.29706  0.14288  1.0000
  H   H771      1.0  0.89349  0.34672  0.14851  1.0000
  H   H772      1.0  0.91595  0.30914  0.12283  1.0000
  H   H773      1.0  0.81866  0.25606  0.12267  1.0000
  H   H774      1.0  0.79636  0.29340  0.14860  1.0000
  C   C973      1.0  0.88782  0.02694  0.14863  1.0000
  C   C974      1.0  0.90646  0.05362  0.14037  1.0000
  C   C975      1.0  0.89215  0.07259  0.12512  1.0000
  C   C976      1.0  0.85915  0.06478  0.11785  1.0000
  C   C977      1.0  0.84010  0.03868  0.12648  1.0000
  C   C978      1.0  0.85419  0.02005  0.14192  1.0000
  H   H775      1.0  0.93233  0.05944  0.14564  1.0000
  H   H776      1.0  0.90694  0.09277  0.11873  1.0000
  H   H777      1.0  0.81447  0.03257  0.12100  1.0000
  C   C979      1.0  0.65542  0.27137  0.32249  1.0000
  H   H778      1.0  0.98324  0.08865  0.10428  1.0000
  C   C980      1.0  0.85127  0.30483  0.06393  1.0000
  C   C981      1.0  0.51340  0.09459  0.18094  1.0000
  C   C982      1.0  0.86864  0.42391  0.26274  1.0000
  C   C983      1.0  0.60031  0.06960  0.01747  1.0000
  C   C984      1.0  0.74822  0.09984  0.20117  1.0000
  H   H779      1.0  0.78029  0.04140  0.26438  1.0000
  C   C985      1.0  0.89117  0.40482  0.27411  1.0000
  C   C986      1.0  0.87623  0.05670  0.23085  1.0000
  H   H780      1.0  0.57692  0.07329  0.07819  1.0000
  C   C987      1.0  0.82255  0.07645  0.20573  1.0000
  C   C988      1.0  0.90884  0.27207  0.00951  1.0000
  C   C989      1.0  0.83772  0.14190  0.14633  1.0000
  C   C990      1.0  0.63497  0.29958  0.31826  1.0000
  H   H781      1.0  0.74907  0.05723  0.22052  1.0000
  C   C991      1.0  0.88566  0.02971  0.02723  1.0000
  C   C992      1.0  0.72676  0.02489  0.26279  1.0000
  C   C993      1.0  0.56527  0.08817  0.08957  1.0000
  H   H782      1.0  0.98380  0.32319  0.32540  1.0000
  H   H783      1.0  0.95966  0.23652  0.04190  1.0000
  H   H784      1.0  0.65533  0.36121  0.30022  1.0000
  H   H785      1.0  0.82209  0.20611  0.17705  1.0000
  H   H786      1.0  0.97615  0.15146  0.20288  1.0000
  H   H787      1.0  0.84825  0.19461  0.14495  1.0000
  H   H788      1.0  0.79784  0.09654  0.23142  1.0000
  H   H789      1.0  0.82517  0.09075  0.15173  1.0000
  H   H790      1.0  0.54761  0.06179  0.00795  1.0000
  C   C994      1.0  0.75867  0.37263  0.22239  1.0000
  C   C995      1.0  0.72626  0.38708  0.21829  1.0000
  C   C996      1.0  0.70732  0.40300  0.23289  1.0000
  C   C997      1.0  0.72099  0.40489  0.25157  1.0000
  C   C998      1.0  0.75386  0.39101  0.25570  1.0000
  C   C999      1.0  0.77232  0.37433  0.24106  1.0000
  P   P34       1.0  0.77140  0.39243  0.27985  1.0000
  C   C1000     1.0  0.75265  0.42767  0.29251  1.0000
  C   C1001     1.0  0.76004  0.35460  0.29272  1.0000
  H   H791      1.0  0.81261  0.07342  0.01489  1.0000
  H   H792      1.0  0.86866  0.36299  0.00442  1.0000
  H   H793      1.0  0.89466  0.25651  0.01961  1.0000
  C   C1002     1.0  0.59648  0.42764  0.32466  1.0000
  C   C1003     1.0  0.74465  0.32759  0.28310  1.0000
  C   C1004     1.0  0.76626  0.45993  0.29009  1.0000
  C   C1005     1.0  0.63354  0.41037  0.29819  1.0000
  H   H794      1.0  0.60492  0.12622  0.08824  1.0000
  C   C1006     1.0  0.70854  0.45016  0.31428  1.0000
  C   C1007     1.0  0.72338  0.42313  0.30455  1.0000
  C   C1008     1.0  0.81838  0.39746  0.27798  1.0000
  C   C1009     1.0  0.84131  0.37816  0.28928  1.0000
  C   C1010     1.0  0.87755  0.38186  0.28732  1.0000
  H   H795      1.0  0.85509  0.05513  0.18330  1.0000
  C   C1011     1.0  0.83244  0.42011  0.26454  1.0000
  H   H796      1.0  0.77362  0.36074  0.21099  1.0000
  H   H797      1.0  0.71613  0.38643  0.20372  1.0000
  H   H798      1.0  0.68250  0.41472  0.22960  1.0000
  H   H799      1.0  0.70627  0.41790  0.26256  1.0000
  H   H800      1.0  0.79757  0.36311  0.24395  1.0000
  C   C1012     1.0  0.72591  0.16233  0.00729  1.0000
  H   H801      1.0  0.52237  0.05468  0.09366  1.0000
  C   C1013     1.0  0.65871  0.24561  0.30907  1.0000
  H   H802      1.0  0.89741  0.44137  0.05734  1.0000
  H   H803      1.0  0.73999  0.32846  0.26771  1.0000
  H   H804      1.0  0.78794  0.46467  0.28047  1.0000
  C   C1014     1.0  0.74142  0.03521  0.32593  1.0000
  H   H805      1.0  0.54415  0.13699  0.27073  1.0000
  C   C1015     1.0  0.52025  0.13082  0.26325  1.0000
  H   H806      1.0  0.71168  0.39884  0.30633  1.0000
  H   H807      1.0  0.83158  0.35989  0.29941  1.0000
  H   H808      1.0  0.89522  0.36672  0.29586  1.0000
  H   H809      1.0  0.81547  0.43459  0.25521  1.0000
  P   P35       1.0  0.78854  0.08864  0.18916  1.0000
  H   H810      1.0  0.96454  0.30951  0.25848  1.0000
  H   H811      1.0  0.95874  0.10492  0.07247  1.0000
  C   C1016     1.0  0.74066  0.29697  0.31324  1.0000
  H   H812      1.0  0.64647  0.41605  0.28464  1.0000
  H   H813      1.0  0.79428  0.05366  0.04732  1.0000
  C   C1017     1.0  0.99256  0.30552  0.07686  1.0000
  H   H814      1.0  0.49905  0.11815  0.07130  1.0000
  C   C1018     1.0  0.81719  0.47121  0.08882  1.0000
  H   H815      1.0  0.87179  0.00239  0.09829  1.0000
  P   P36       1.0  0.50352  0.10784  0.02981  1.0000
  P   P37       1.0  0.81376  0.43073  0.10031  1.0000
  C   C1019     1.0  0.78694  0.43343  0.12179  1.0000
  C   C1020     1.0  0.79564  0.40215  0.08285  1.0000
  C   C1021     1.0  0.77408  0.37554  0.08855  1.0000
  C   C1022     1.0  0.76177  0.35287  0.07488  1.0000
  C   C1023     1.0  0.77098  0.35645  0.05546  1.0000
  C   C1024     1.0  0.79251  0.38272  0.04968  1.0000
  C   C1025     1.0  0.80471  0.40552  0.06329  1.0000
  C   C1026     1.0  0.78504  0.40617  0.13452  1.0000
  C   C1027     1.0  0.76340  0.40748  0.15080  1.0000
  H   H816      1.0  0.67350  0.22336  0.31272  1.0000
  C   C1028     1.0  0.80527  0.27589  0.03759  1.0000
  C   C1029     1.0  0.84791  0.49027  0.08996  1.0000
  C   C1030     1.0  0.85625  0.41560  0.10762  1.0000
  C   C1031     1.0  0.87402  0.43143  0.12271  1.0000
  C   C1032     1.0  0.90760  0.42103  0.12791  1.0000
  C   C1033     1.0  0.92318  0.39396  0.11861  1.0000
  C   C1034     1.0  0.90528  0.37742  0.10394  1.0000
  C   C1035     1.0  0.87192  0.38815  0.09845  1.0000
  C   C1036     1.0  0.56566  0.13743  0.10963  1.0000
  C   C1037     1.0  0.89082  0.36789  0.03296  1.0000
  H   H817      1.0  0.68596  0.44655  0.32353  1.0000
  H   H818      1.0  0.67659  0.00292  0.25742  1.0000
  C   C1038     1.0  0.51964  0.09627  0.11360  1.0000
  H   H819      1.0  0.76687  0.37186  0.10347  1.0000
  H   H820      1.0  0.74545  0.33220  0.07941  1.0000
  H   H821      1.0  0.76174  0.33861  0.04495  1.0000
  H   H822      1.0  0.79996  0.38530  0.03466  1.0000
  H   H823      1.0  0.82148  0.42563  0.05857  1.0000
  H   H824      1.0  0.80048  0.38389  0.13201  1.0000
  H   H825      1.0  0.76233  0.38637  0.16059  1.0000
  H   H826      1.0  0.98262  0.14025  0.23791  1.0000
  H   H827      1.0  0.72887  0.43782  0.16796  1.0000
  C   C1039     1.0  0.53453  0.07745  0.09860  1.0000
  H   H828      1.0  0.86217  0.45225  0.13026  1.0000
  H   H829      1.0  0.92143  0.43401  0.13926  1.0000
  H   H830      1.0  0.94888  0.38547  0.12301  1.0000
  H   H831      1.0  0.91703  0.35586  0.09708  1.0000
  H   H832      1.0  0.85849  0.37469  0.08722  1.0000
  H   H833      1.0  0.73675  0.14231  0.18277  1.0000
  C   C1040     1.0  0.70353  0.08744  0.22516  1.0000
  H   H834      1.0  0.68157  0.15648  0.19929  1.0000
  C   C1041     1.0  0.95488  0.07984  0.07801  1.0000
  C   C1042     1.0  0.57240  0.11744  0.04242  1.0000
  H   H835      1.0  0.87065  0.48137  0.09762  1.0000
  H   H836      1.0  0.61134  0.05145  0.00760  1.0000
  C   C1043     1.0  0.76236  0.05767  0.15620  1.0000
  C   C1044     1.0  0.93556  0.05690  0.06730  1.0000
  H   H837      1.0  0.87938  0.44124  0.25225  1.0000
  C   C1045     1.0  0.82989  0.05762  0.02330  1.0000
  C   C1046     1.0  0.87514  0.01770  0.04542  1.0000
  H   H838      1.0  0.79648  0.16020  0.19638  1.0000
  C   C1047     1.0  0.73494  0.29895  0.29337  1.0000
  H   H839      1.0  0.84439  0.07783  0.25341  1.0000
  C   C1048     1.0  0.51304  0.09053  0.16088  1.0000
  H   H840      1.0  0.62590  0.12589  0.05105  1.0000
  H   H841      1.0  0.73358  0.48700  0.14630  1.0000
  C   C1049     1.0  0.82321  0.11588  0.15718  1.0000
  C   C1050     1.0  0.75168  0.03013  0.14541  1.0000
  H   H842      1.0  0.96316  0.26304  0.08703  1.0000
  C   C1051     1.0  0.64142  0.24756  0.29140  1.0000
  C   C1052     1.0  0.83524  0.29233  0.03095  1.0000
  H   H843      1.0  0.91430  0.27209  0.06482  1.0000
  H   H844      1.0  0.52294  0.02354  0.12887  1.0000
  H   H845      1.0  0.65038  0.08321  0.02916  1.0000
  H   H846      1.0  0.70894  0.47635  0.24273  1.0000
  C   C1053     1.0  0.77658  0.05316  0.17470  1.0000
  C   C1054     1.0  0.74738  0.46420  0.14278  1.0000
  H   H847      1.0  0.92493  0.06491  0.05359  1.0000
  H   H848      1.0  0.52058  0.03669  0.03823  1.0000
  C   C1055     1.0  0.72248  0.48204  0.31194  1.0000
  C   C1056     1.0  0.78815  0.48431  0.07895  1.0000
  C   C1057     1.0  0.97566  0.33419  0.25720  1.0000
  C   C1058     1.0  0.62136  0.37185  0.32455  1.0000
  H   H849      1.0  0.69382  0.07191  0.23683  1.0000
  C   C1059     1.0  0.81949  0.04633  0.04152  1.0000
  H   H850      1.0  0.74074  0.07017  0.02172  1.0000
  C   C1060     1.0  0.82013  0.08339  0.22554  1.0000
  C   C1061     1.0  0.82201  0.18092  0.17143  1.0000
  H   H851      1.0  0.60685  0.27652  0.27350  1.0000
  C   C1062     1.0  0.68448  0.11540  0.21930  1.0000
  C   C1063     1.0  0.83691  0.17447  0.15339  1.0000
  C   C1064     1.0  0.76839  0.46273  0.12624  1.0000
  C   C1065     1.0  0.96373  0.28422  0.07725  1.0000
  H   H852      1.0  0.66007  0.12150  0.22648  1.0000
  C   C1066     1.0  0.61265  0.43453  0.30701  1.0000
  C   C1067     1.0  0.76540  0.35249  0.31275  1.0000
  C   C1068     1.0  0.69671  0.13515  0.20406  1.0000
  C   C1069     1.0  0.97504  0.20031  0.02081  1.0000
  C   C1070     1.0  0.94388  0.01552  0.09241  1.0000
  C   C1071     1.0  0.87927  0.05072  0.21107  1.0000
  C   C1072     1.0  0.72829  0.12725  0.19489  1.0000
  H   H853      1.0  0.90957  0.38138  0.06133  1.0000
  C   C1073     1.0  0.80662  0.12235  0.17487  1.0000
  H   H854      1.0  0.75951  0.08240  0.15009  1.0000
  C   C1074     1.0  0.79852  0.27357  0.05737  1.0000
  C   C1075     1.0  0.89826  0.39021  0.04796  1.0000
  H   H855      1.0  0.86894  0.31542  0.07443  1.0000
  C   C1076     1.0  0.80729  0.15491  0.18226  1.0000
  C   C1077     1.0  0.96877  0.07064  0.09588  1.0000
  H   H856      1.0  0.77694  0.37317  0.32046  1.0000
  C   C1078     1.0  0.76260  0.02353  0.25806  1.0000
  C   C1079     1.0  0.53500  0.12670  0.11875  1.0000
  H   H857      1.0  0.91924  0.40756  0.27246  1.0000
  C   C1080     1.0  0.56427  0.07551  0.01775  1.0000
  H   H858      1.0  0.53795  0.09763  0.18850  1.0000
  H   H859      1.0  0.78816  0.01672  0.19706  1.0000
  C   C1081     1.0  0.70426  0.00175  0.25432  1.0000
  H   H860      1.0  0.90209  0.03793  0.20539  1.0000
  C   C1082     1.0  0.60848  0.11158  0.04199  1.0000
  C   C1083     1.0  0.82122  0.28850  0.07051  1.0000
  H   H861      1.0  0.84978  0.13672  0.13247  1.0000
  C   C1084     1.0  0.60083  0.39648  0.33346  1.0000
  H   H862      1.0  0.56236  0.13649  0.05194  1.0000
  H   H863      1.0  0.77609  0.25957  0.06248  1.0000
  H   H864      1.0  0.96646  0.35833  0.04124  1.0000
  C   C1085     1.0  0.73504  0.07942  0.21600  1.0000
  S   S149      1.0  0.57779  0.08695  0.32673  1.0000
  H   H865      1.0  0.89669  0.04841  0.24055  1.0000
  C   C1086     1.0  0.63827  0.37928  0.30702  1.0000
  P   P38       1.0  0.89977  0.32398  0.03577  1.0000
  H   H866      1.0  0.72303  0.27819  0.28588  1.0000
  H   H867      1.0  0.77042  0.48473  0.11727  1.0000
  C   C1087     1.0  0.77851  0.02087  0.18255  1.0000
  C   C1088     1.0  0.62238  0.08758  0.02960  1.0000
  C   C1089     1.0  0.50271  0.15533  0.25224  1.0000
  C   C1090     1.0  0.58095  0.11805  0.09515  1.0000
  H   H868      1.0  0.75151  0.05438  0.31636  1.0000
  H   H869      1.0  0.74143  0.03373  0.13099  1.0000
  H   H870      1.0  0.84020  0.29344  0.01559  1.0000
  C   C1091     1.0  0.96329  0.03847  0.10307  1.0000
  C   C1092     1.0  0.75585  0.32373  0.32292  1.0000
  C   C1093     1.0  0.74463  0.43650  0.15496  1.0000
  C   C1094     1.0  0.96506  0.33802  0.05155  1.0000
  H   H871      1.0  0.77559  0.11488  0.03731  1.0000
  H   H872      1.0  0.57767  0.16074  0.11385  1.0000
  C   C1095     1.0  0.84674  0.07315  0.23807  1.0000
  C   C1096     1.0  0.75131  0.15460  0.02134  1.0000
  H   H873      1.0  0.78794  0.26370  0.02746  1.0000
  H   H874      1.0  0.53763  0.09000  0.15315  1.0000
  S   S150      1.0  0.61959  0.17584  0.32856  1.0000
  C   C1097     1.0  0.85250  0.06041  0.19856  1.0000
  H   H875      1.0  0.97334  0.03160  0.11714  1.0000
  H   H876      1.0  0.60025  0.32190  0.29712  1.0000
  H   H877      1.0  0.64317  0.22698  0.28133  1.0000
  H   H878      1.0  0.81630  0.28642  0.08587  1.0000
  C   C1098     1.0  0.84204  0.02660  0.05260  1.0000
  H   H879      1.0  0.60937  0.45882  0.30034  1.0000
  C   C1099     1.0  0.85924  0.30572  0.04413  1.0000
  C   C1100     1.0  0.93559  0.31720  0.05225  1.0000
  C   C1101     1.0  0.93562  0.28975  0.06481  1.0000
  C   C1102     1.0  0.54995  0.09921  0.03041  1.0000
  H   H880      1.0  0.94275  0.35004  0.00410  1.0000
  C   C1103     1.0  0.87521  0.37992  0.01600  1.0000
  C   C1104     1.0  0.75647  0.12118  0.02641  1.0000
  C   C1105     1.0  0.97555  0.23190  0.02929  1.0000
  C   C1106     1.0  0.92987  0.02448  0.07441  1.0000
  C   C1107     1.0  0.61744  0.30119  0.30046  1.0000
  C   C1108     1.0  0.86301  0.04943  0.01620  1.0000
  H   H881      1.0  0.83392  0.01930  0.06698  1.0000
  C   C1109     1.0  0.62088  0.27539  0.28705  1.0000
  H   H882      1.0  0.51344  0.18022  0.25133  1.0000
  C   C1110     1.0  0.73659  0.09589  0.01756  1.0000
  C   C1111     1.0  0.99335  0.33229  0.06389  1.0000
  H   H883      1.0  0.76408  0.47021  0.07808  1.0000
  C   C1112     1.0  0.91444  0.30600  0.01331  1.0000
  S   S151      1.0  0.90807  0.00251  0.16688  1.0000
  C   C1113     1.0  0.76073  0.49700  0.24029  1.0000
  C   C1114     1.0  0.72613  0.49620  0.24720  1.0000
  H   H884      1.0  0.58099  0.44674  0.33169  1.0000
  H   H885      1.0  0.51457  0.49917  0.02833  1.0000
  H   H886      1.0  0.52331  0.14207  0.12988  1.0000
  H   H887      1.0  0.56693  0.28898  0.32834  1.0000
  Fe  Fe76      1.0  0.61886  0.04727  0.33130  1.0000
  H   H888      1.0  0.87098  0.46256  0.02699  1.0000
  H   H889      1.0  0.73340  0.27463  0.32113  1.0000
  C   C1115     1.0  0.87634  0.43615  0.02869  1.0000
  C   C1116     1.0  0.71141  0.10352  0.00343  1.0000
  C   C1117     1.0  0.73618  0.00299  0.31895  1.0000
  H   H890      1.0  0.72156  0.18809  0.00332  1.0000
  C   C1118     1.0  0.49755  0.01597  0.12358  1.0000
  C   C1119     1.0  0.86814  0.41398  0.01385  1.0000
  H   H891      1.0  0.49762  0.14042  0.33379  1.0000
  H   H892      1.0  0.87142  0.05913  0.00234  1.0000
  H   H893      1.0  0.64607  0.48781  0.00342  1.0000
  C   C1120     1.0  0.73704  0.44212  0.40700  1.0000
  C   C1121     1.0  0.56380  0.16500  0.42264  1.0000
  Fe  Fe77      1.0  0.58881  0.30924  0.46317  1.0000
  S   S152      1.0  0.63848  0.27988  0.46072  1.0000
  S   S153      1.0  0.54902  0.30700  0.48788  1.0000
  Fe  Fe78      1.0  0.60783  0.35171  0.42771  1.0000
  S   S154      1.0  0.65890  0.32500  0.42275  1.0000
  S   S155      1.0  0.58289  0.39393  0.41038  1.0000
  Fe  Fe79      1.0  0.62809  0.27827  0.42872  1.0000
  S   S156      1.0  0.63863  0.22747  0.41502  1.0000
  Fe  Fe80      1.0  0.66578  0.32853  0.45509  1.0000
  S   S157      1.0  0.71970  0.33516  0.46889  1.0000
  S   S158      1.0  0.57624  0.30452  0.43160  1.0000
  S   S159      1.0  0.61682  0.35834  0.45956  1.0000
  C   C1122     1.0  0.69899  0.31128  0.37866  1.0000
  H   H894      1.0  0.73592  0.06820  0.35016  1.0000
  Fe  Fe81      1.0  0.82327  0.44079  0.54972  1.0000
  S   S160      1.0  0.86884  0.40539  0.54981  1.0000
  S   S161      1.0  0.77926  0.44451  0.52725  1.0000
  Fe  Fe82      1.0  0.84828  0.47508  0.58729  1.0000
  S   S162      1.0  0.89514  0.44104  0.58992  1.0000
  S   S163      1.0  0.85672  0.48608  0.55569  1.0000
  Fe  Fe83      1.0  0.90160  0.44998  0.55774  1.0000
  S   S164      1.0  0.95713  0.46022  0.54651  1.0000
  Fe  Fe84      1.0  0.85870  0.39904  0.58182  1.0000
  S   S165      1.0  0.85456  0.34426  0.59196  1.0000
  H   H895      1.0  0.95081  0.43183  0.46783  1.0000
  S   S166      1.0  0.81125  0.43247  0.58116  1.0000
  C   C1123     1.0  0.86154  0.01437  0.49437  1.0000
  H   H896      1.0  0.58727  0.16980  0.41428  1.0000
  C   C1124     1.0  0.84349  0.42697  0.48463  1.0000
  C   C1125     1.0  0.73760  0.40859  0.41248  1.0000
  H   H897      1.0  0.96327  0.03519  0.48807  1.0000
  C   C1126     1.0  0.86246  0.28830  0.65055  1.0000
  C   C1127     1.0  0.87539  0.32102  0.64860  1.0000
  C   C1128     1.0  0.87231  0.33887  0.63105  1.0000
  C   C1129     1.0  0.85645  0.32413  0.61505  1.0000
  C   C1130     1.0  0.84308  0.29154  0.61708  1.0000
  C   C1131     1.0  0.84586  0.27380  0.63469  1.0000
  H   H898      1.0  0.77719  0.48783  0.48627  1.0000
  H   H899      1.0  0.88281  0.36380  0.62982  1.0000
  H   H900      1.0  0.83029  0.27993  0.60497  1.0000
  H   H901      1.0  0.83532  0.24891  0.63596  1.0000
  C   C1132     1.0  0.84300  0.07359  0.65313  1.0000
  C   C1133     1.0  0.87521  0.08391  0.64564  1.0000
  C   C1134     1.0  0.89045  0.06669  0.63002  1.0000
  C   C1135     1.0  0.87363  0.03920  0.62157  1.0000
  C   C1136     1.0  0.84143  0.02885  0.62906  1.0000
  C   C1137     1.0  0.82627  0.04594  0.64478  1.0000
  H   H902      1.0  0.88837  0.10511  0.65189  1.0000
  H   H903      1.0  0.91551  0.07463  0.62449  1.0000
  H   H904      1.0  0.89499  0.26583  0.47434  1.0000
  H   H905      1.0  0.80131  0.03781  0.65042  1.0000
  H   H906      1.0  0.98065  0.13497  0.64322  1.0000
  H   H907      1.0  0.73350  0.38506  0.36363  1.0000
  P   P39       1.0  0.66991  0.48358  0.44630  1.0000
  C   C1138     1.0  0.50207  0.15471  0.44349  1.0000
  C   C1139     1.0  0.53077  0.30364  0.37221  1.0000
  C   C1140     1.0  0.73474  0.36513  0.48585  1.0000
  C   C1141     1.0  0.71572  0.39397  0.49021  1.0000
  C   C1142     1.0  0.72944  0.41767  0.50314  1.0000
  C   C1143     1.0  0.76202  0.41264  0.51217  1.0000
  C   C1144     1.0  0.78064  0.38341  0.50814  1.0000
  C   C1145     1.0  0.76723  0.36002  0.49492  1.0000
  H   H908      1.0  0.69060  0.39808  0.48352  1.0000
  H   H909      1.0  0.71471  0.44008  0.50620  1.0000
  H   H910      1.0  0.80577  0.37921  0.51488  1.0000
  H   H911      1.0  0.78217  0.33781  0.49169  1.0000
  C   C1146     1.0  0.62535  0.19025  0.35254  1.0000
  C   C1147     1.0  0.64453  0.17200  0.36606  1.0000
  C   C1148     1.0  0.64851  0.18402  0.38501  1.0000
  C   C1149     1.0  0.63353  0.21448  0.39069  1.0000
  C   C1150     1.0  0.61439  0.23290  0.37714  1.0000
  C   C1151     1.0  0.61064  0.22094  0.35811  1.0000
  H   H912      1.0  0.65652  0.14876  0.36181  1.0000
  H   H913      1.0  0.66349  0.16969  0.39532  1.0000
  H   H914      1.0  0.60229  0.25617  0.38134  1.0000
  H   H915      1.0  0.59584  0.23523  0.34770  1.0000
  C   C1152     1.0  0.63196  0.46539  0.36584  1.0000
  C   C1153     1.0  0.65229  0.43981  0.37414  1.0000
  C   C1154     1.0  0.63784  0.41770  0.38785  1.0000
  C   C1155     1.0  0.60278  0.42096  0.39333  1.0000
  C   C1156     1.0  0.58247  0.44647  0.38499  1.0000
  C   C1157     1.0  0.59695  0.46863  0.37134  1.0000
  H   H916      1.0  0.67946  0.43724  0.37004  1.0000
  H   H917      1.0  0.65379  0.39824  0.39418  1.0000
  H   H918      1.0  0.55533  0.44914  0.38915  1.0000
  C   C1158     1.0  0.94758  0.29283  0.41779  1.0000
  H   H919      1.0  0.85568  0.45270  0.51096  1.0000
  H   H920      1.0  0.50803  0.29707  0.38074  1.0000
  H   H921      1.0  0.60442  0.35053  0.37498  1.0000
  H   H922      1.0  0.85138  0.03756  0.50007  1.0000
  C   C1159     1.0  0.85491  0.40379  0.47099  1.0000
  H   H923      1.0  0.54914  0.44018  0.44184  1.0000
  H   H924      1.0  0.93333  0.33950  0.43093  1.0000
  C   C1160     1.0  0.66502  0.33451  0.35222  1.0000
  H   H925      1.0  0.65252  0.28893  0.36751  1.0000
  H   H926      1.0  0.54841  0.17202  0.34609  1.0000
  C   C1161     1.0  0.88722  0.38782  0.47330  1.0000
  C   C1162     1.0  0.66151  0.09101  0.38426  1.0000
  H   H927      1.0  0.88728  0.47255  0.63743  1.0000
  C   C1163     1.0  0.88876  0.48388  0.65160  1.0000
  C   C1164     1.0  0.52446  0.27293  0.49718  1.0000
  C   C1165     1.0  0.73259  0.04300  0.34494  1.0000
  C   C1166     1.0  0.88206  0.01437  0.47767  1.0000
  C   C1167     1.0  0.96107  0.15315  0.63909  1.0000
  H   H928      1.0  0.97105  0.18516  0.66342  1.0000
  H   H929      1.0  0.99572  0.31369  0.35988  1.0000
  H   H930      1.0  0.96698  0.14557  0.54076  1.0000
  C   C1168     1.0  0.69476  0.45386  0.43235  1.0000
  P   P40       1.0  0.56206  0.10308  0.40460  1.0000
  C   C1169     1.0  0.89097  0.26147  0.57805  1.0000
  C   C1170     1.0  0.85926  0.26520  0.56831  1.0000
  C   C1171     1.0  0.83648  0.23817  0.56677  1.0000
  C   C1172     1.0  0.84516  0.20752  0.57521  1.0000
  C   C1173     1.0  0.87670  0.20378  0.58533  1.0000
  C   C1174     1.0  0.89998  0.23077  0.58623  1.0000
  P   P41       1.0  0.88775  0.16431  0.59644  1.0000
  C   C1175     1.0  0.91474  0.17119  0.61745  1.0000
  C   C1176     1.0  0.84761  0.14448  0.60427  1.0000
  C   C1177     1.0  0.83382  0.15089  0.62270  1.0000
  C   C1178     1.0  0.80312  0.13521  0.62882  1.0000
  C   C1179     1.0  0.78611  0.11273  0.61674  1.0000
  C   C1180     1.0  0.79916  0.10672  0.59823  1.0000
  C   C1181     1.0  0.82946  0.12291  0.59189  1.0000
  C   C1182     1.0  0.94075  0.14808  0.62259  1.0000
  H   H931      1.0  0.75320  0.45071  0.39513  1.0000
  C   C1183     1.0  0.95572  0.18141  0.65047  1.0000
  C   C1184     1.0  0.92990  0.20451  0.64545  1.0000
  C   C1185     1.0  0.90929  0.19930  0.62913  1.0000
  C   C1186     1.0  0.91136  0.13888  0.57923  1.0000
  C   C1187     1.0  0.90928  0.10396  0.58009  1.0000
  C   C1188     1.0  0.92683  0.08436  0.56653  1.0000
  C   C1189     1.0  0.94771  0.09932  0.55240  1.0000
  C   C1190     1.0  0.95071  0.13402  0.55171  1.0000
  C   C1191     1.0  0.93253  0.15378  0.56503  1.0000
  H   H932      1.0  0.56449  0.21369  0.43561  1.0000
  H   H933      1.0  0.85188  0.28935  0.56250  1.0000
  H   H934      1.0  0.81174  0.24126  0.55939  1.0000
  H   H935      1.0  0.82699  0.18701  0.57404  1.0000
  H   H936      1.0  0.92475  0.22848  0.59365  1.0000
  H   H937      1.0  0.84683  0.16748  0.63261  1.0000
  H   H938      1.0  0.79326  0.13958  0.64328  1.0000
  H   H939      1.0  0.76320  0.09958  0.62191  1.0000
  H   H940      1.0  0.78620  0.08897  0.58895  1.0000
  H   H941      1.0  0.83895  0.11807  0.57745  1.0000
  H   H942      1.0  0.94509  0.12593  0.61407  1.0000
  H   H943      1.0  0.68203  0.11266  0.43025  1.0000
  H   H944      1.0  0.70289  0.29179  0.38936  1.0000
  H   H945      1.0  0.92522  0.22614  0.65449  1.0000
  H   H946      1.0  0.88886  0.21712  0.62582  1.0000
  H   H947      1.0  0.89390  0.09170  0.59114  1.0000
  H   H948      1.0  0.92418  0.05745  0.56708  1.0000
  H   H949      1.0  0.96154  0.08396  0.54202  1.0000
  C   C1192     1.0  0.55403  0.25637  0.66348  1.0000
  H   H950      1.0  0.93509  0.18060  0.56421  1.0000
  H   H951      1.0  0.57612  0.15579  0.37682  1.0000
  H   H952      1.0  0.64620  0.33558  0.50037  1.0000
  C   C1193     1.0  0.97414  0.47878  0.52505  1.0000
  C   C1194     1.0  0.62970  0.11004  0.41887  1.0000
  H   H953      1.0  0.99397  0.39367  0.55939  1.0000
  H   H954      1.0  0.71756  0.37170  0.43226  1.0000
  C   C1195     1.0  0.55086  0.00186  0.40326  1.0000
  H   H955      1.0  0.60127  0.42248  0.49572  1.0000
  H   H956      1.0  0.51566  0.27388  0.34783  1.0000
  H   H957      1.0  0.94487  0.48751  0.65135  1.0000
  C   C1196     1.0  0.97900  0.28810  0.46468  1.0000
  H   H958      1.0  0.96847  0.24993  0.40305  1.0000
  C   C1197     1.0  0.97730  0.42542  0.47184  1.0000
  C   C1198     1.0  0.59981  0.17642  0.47731  1.0000
  C   C1199     1.0  0.62737  0.18263  0.46451  1.0000
  C   C1200     1.0  0.65668  0.20017  0.47076  1.0000
  C   C1201     1.0  0.65824  0.21208  0.48968  1.0000
  C   C1202     1.0  0.63039  0.20649  0.50255  1.0000
  C   C1203     1.0  0.60129  0.18822  0.49627  1.0000
  P   P42       1.0  0.63317  0.22191  0.52701  1.0000
  C   C1204     1.0  0.65974  0.19435  0.54158  1.0000
  C   C1205     1.0  0.65255  0.26296  0.52593  1.0000
  C   C1206     1.0  0.68053  0.27166  0.53801  1.0000
  C   C1207     1.0  0.69581  0.30324  0.53656  1.0000
  C   C1208     1.0  0.68338  0.32627  0.52304  1.0000
  C   C1209     1.0  0.65558  0.31782  0.51099  1.0000
  C   C1210     1.0  0.64016  0.28633  0.51243  1.0000
  C   C1211     1.0  0.68292  0.17151  0.53304  1.0000
  C   C1212     1.0  0.70366  0.15074  0.54459  1.0000
  C   C1213     1.0  0.70149  0.15267  0.56469  1.0000
  C   C1214     1.0  0.67848  0.17532  0.57328  1.0000
  C   C1215     1.0  0.65765  0.19607  0.56179  1.0000
  C   C1216     1.0  0.59035  0.22399  0.53813  1.0000
  C   C1217     1.0  0.57382  0.25471  0.54160  1.0000
  H   H959      1.0  0.50016  0.10683  0.42979  1.0000
  H   H960      1.0  0.88794  0.03762  0.47038  1.0000
  H   H961      1.0  0.94911  0.24372  0.45915  1.0000
  C   C1218     1.0  0.57366  0.19443  0.54399  1.0000
  H   H962      1.0  0.57699  0.16291  0.47246  1.0000
  H   H963      1.0  0.62591  0.17442  0.44965  1.0000
  H   H964      1.0  0.67770  0.20554  0.46068  1.0000
  H   H965      1.0  0.68092  0.22625  0.49413  1.0000
  H   H966      1.0  0.57934  0.18359  0.50573  1.0000
  H   H967      1.0  0.69087  0.25422  0.54847  1.0000
  H   H968      1.0  0.91288  0.42499  0.51512  1.0000
  H   H969      1.0  0.61849  0.28021  0.50304  1.0000
  H   H970      1.0  0.68513  0.16960  0.51753  1.0000
  H   H971      1.0  0.72146  0.13311  0.53793  1.0000
  H   H972      1.0  0.71763  0.13661  0.57361  1.0000
  H   H973      1.0  0.67682  0.17686  0.58887  1.0000
  H   H974      1.0  0.64008  0.21365  0.56867  1.0000
  H   H975      1.0  0.58564  0.27796  0.53718  1.0000
  C   C1219     1.0  0.68800  0.36178  0.35139  1.0000
  H   H976      1.0  0.72334  0.29376  0.65796  1.0000
  C   C1220     1.0  0.92115  0.49250  0.65941  1.0000
  H   H977      1.0  0.58588  0.17045  0.54151  1.0000
  H   H978      1.0  0.71751  0.30991  0.54580  1.0000
  C   C1221     1.0  0.53812  0.15115  0.35429  1.0000
  C   C1222     1.0  0.89680  0.41866  0.50280  1.0000
  H   H979      1.0  0.81808  0.43870  0.48317  1.0000
  C   C1223     1.0  0.55410  0.14163  0.37157  1.0000
  H   H980      1.0  0.99299  0.40188  0.52443  1.0000
  H   H981      1.0  0.60969  0.08818  0.37269  1.0000
  C   C1224     1.0  0.97588  0.38329  0.53064  1.0000
  H   H982      1.0  0.53372  0.25538  0.65260  1.0000
  C   C1225     1.0  0.52453  0.22621  0.55618  1.0000
  S   S167      1.0  0.89393  0.01937  0.60152  1.0000
  C   C1226     1.0  0.71672  0.39760  0.42779  1.0000
  H   H983      1.0  0.96763  0.02259  0.59120  1.0000
  H   H984      1.0  0.64453  0.48725  0.40655  1.0000
  C   C1227     1.0  0.97988  0.01598  0.49411  1.0000
  C   C1228     1.0  0.54870  0.05200  0.43117  1.0000
  H   H985      1.0  0.65394  0.45030  0.48330  1.0000
  C   C1229     1.0  0.95149  0.32686  0.42140  1.0000
  C   C1230     1.0  0.60104  0.43353  0.48142  1.0000
  H   H986      1.0  0.90803  0.28276  0.57986  1.0000
  C   C1231     1.0  0.97880  0.34464  0.41273  1.0000
  H   H987      1.0  0.74417  0.47370  0.45698  1.0000
  C   C1232     1.0  0.91845  0.28094  0.47390  1.0000
  H   H988      1.0  0.52825  0.27944  0.55304  1.0000
  C   C1233     1.0  0.63100  0.46353  0.45565  1.0000
  C   C1234     1.0  0.95194  0.36566  0.51923  1.0000
  H   H989      1.0  0.51199  0.18911  0.49292  1.0000
  C   C1235     1.0  0.92796  0.34060  0.54846  1.0000
  H   H990      1.0  0.54864  0.41730  0.47515  1.0000
  H   H991      1.0  0.83299  0.48456  0.65548  1.0000
  C   C1236     1.0  0.51234  0.09673  0.37523  1.0000
  C   C1237     1.0  0.94888  0.26850  0.46535  1.0000
  H   H992      1.0  0.89581  0.37024  0.46249  1.0000
  H   H993      1.0  0.67939  0.41103  0.44952  1.0000
  C   C1238     1.0  0.58535  0.33369  0.36884  1.0000
  C   C1239     1.0  0.56433  0.29937  0.34264  1.0000
  C   C1240     1.0  0.86462  0.43471  0.50038  1.0000
  C   C1241     1.0  0.60900  0.10377  0.40259  1.0000
  H   H994      1.0  0.92624  0.27916  0.42439  1.0000
  H   H995      1.0  0.83842  0.39795  0.45878  1.0000
  C   C1242     1.0  0.71622  0.36371  0.36416  1.0000
  C   C1243     1.0  0.67043  0.30964  0.36620  1.0000
  C   C1244     1.0  0.49882  0.27912  0.51132  1.0000
  C   C1245     1.0  0.55071  0.19013  0.43460  1.0000
  C   C1246     1.0  0.62515  0.09408  0.38531  1.0000
  H   H996      1.0  0.71023  0.09570  0.39948  1.0000
  H   H997      1.0  0.68401  0.38186  0.34117  1.0000
  P   P43       1.0  0.94886  0.37295  0.49345  1.0000
  C   C1247     1.0  0.92781  0.34442  0.52840  1.0000
  H   H998      1.0  0.58107  0.48823  0.36512  1.0000
  C   C1248     1.0  0.69516  0.42005  0.43762  1.0000
  C   C1249     1.0  0.55472  0.03522  0.39779  1.0000
  H   H999      1.0  0.90810  0.32565  0.55548  1.0000
  C   C1250     1.0  0.53504  0.29070  0.35368  1.0000
  H   H1000     1.0  0.82819  0.00778  0.62272  1.0000
  C   C1251     1.0  0.54070  0.19557  0.55275  1.0000
  H   H1001     1.0  0.54948  0.07087  0.44228  1.0000
  C   C1252     1.0  0.90778  0.39427  0.48964  1.0000
  H   H1002     1.0  0.50977  0.20436  0.45437  1.0000
  C   C1253     1.0  0.63090  0.44947  0.47429  1.0000
  C   C1254     1.0  0.58998  0.32063  0.35023  1.0000
  C   C1255     1.0  0.52905  0.24031  0.49057  1.0000
  H   H1003     1.0  0.75451  0.39122  0.40506  1.0000
  C   C1256     1.0  0.72187  0.33830  0.37767  1.0000
  C   C1257     1.0  0.85807  0.49066  0.66182  1.0000
  C   C1258     1.0  0.98427  0.39846  0.48426  1.0000
  C   C1259     1.0  0.71602  0.46477  0.41702  1.0000
  C   C1260     1.0  0.54120  0.25574  0.55074  1.0000
  C   C1261     1.0  0.66614  0.10749  0.41770  1.0000
  H   H1004     1.0  0.92451  0.49118  0.51236  1.0000
  C   C1262     1.0  0.54640  0.13430  0.42123  1.0000
  H   H1005     1.0  0.90771  0.33195  0.52030  1.0000
  H   H1006     1.0  0.56033  0.04103  0.38280  1.0000
  C   C1263     1.0  0.57156  0.44367  0.45114  1.0000
  C   C1264     1.0  0.68205  0.09792  0.40039  1.0000
  H   H1007     1.0  0.98119  0.37097  0.41572  1.0000
  C   C1265     1.0  0.55264  0.06067  0.41164  1.0000
  C   C1266     1.0  0.91828  0.31276  0.48208  1.0000
  C   C1267     1.0  0.57135  0.43064  0.46986  1.0000
  H   H1008     1.0  0.54871  0.23522  0.47973  1.0000
  C   C1268     1.0  0.55580  0.32526  0.37972  1.0000
  C   C1269     1.0  0.54174  0.11402  0.38199  1.0000
  H   H1009     1.0  0.74371  0.33959  0.38755  1.0000
  H   H1010     1.0  0.69547  0.35061  0.52184  1.0000
  H   H1011     1.0  0.55225  0.33568  0.39398  1.0000
  C   C1270     1.0  0.60125  0.45994  0.44403  1.0000
  H   H1012     1.0  0.89437  0.32185  0.48863  1.0000
  H   H1013     1.0  0.61770  0.11644  0.43253  1.0000
  H   H1014     1.0  0.50156  0.07602  0.38330  1.0000
  H   H1015     1.0  0.67356  0.08308  0.37087  1.0000
  H   H1016     1.0  0.58853  0.39204  0.34731  1.0000
  H   H1017     1.0  0.88816  0.33261  0.66076  1.0000
  C   C1271     1.0  0.94862  0.33253  0.48178  1.0000
  C   C1272     1.0  0.51497  0.12962  0.43140  1.0000
  C   C1273     1.0  0.51995  0.18492  0.44510  1.0000
  H   H1018     1.0  0.55995  0.30966  0.66162  1.0000
  H   H1019     1.0  0.49864  0.22701  0.56258  1.0000
  H   H1020     1.0  0.60095  0.46889  0.42931  1.0000
  H   H1021     1.0  0.76022  0.32212  0.33834  1.0000
  C   C1274     1.0  0.50946  0.13334  0.34737  1.0000
  C   C1275     1.0  0.95223  0.35780  0.55961  1.0000
  C   C1276     1.0  0.50812  0.21429  0.49803  1.0000
  S   S168      1.0  0.65184  0.49277  0.34896  1.0000
  H   H1022     1.0  0.95143  0.35577  0.57522  1.0000
  C   C1277     1.0  0.75031  0.49596  0.48474  1.0000
  C   C1278     1.0  0.97890  0.31998  0.47280  1.0000
  C   C1279     1.0  0.97630  0.37898  0.55069  1.0000
  C   C1280     1.0  0.69597  0.49719  0.46658  1.0000
  C   C1281     1.0  0.95261  0.49253  0.51079  1.0000
  H   H1023     1.0  0.50761  0.27078  0.45439  1.0000
  C   C1282     1.0  0.98884  0.03186  0.58224  1.0000
  C   C1283     1.0  0.97128  0.27640  0.40574  1.0000
  H   H1024     1.0  0.52727  0.17271  0.55660  1.0000
  C   C1284     1.0  0.54484  0.01856  0.43661  1.0000
  C   C1285     1.0  0.73133  0.48792  0.46817  1.0000
  P   P44       1.0  0.62803  0.33186  0.33611  1.0000
  H   H1025     1.0  0.54189  0.01198  0.45170  1.0000
  S   S169      1.0  0.62628  0.01953  0.36001  1.0000
  C   C1286     1.0  0.71820  0.01858  0.35695  1.0000
  H   H1026     1.0  0.71675  0.49082  0.41291  1.0000
  H   H1027     1.0  0.71008  0.02483  0.37148  1.0000
  H   H1028     1.0  0.66811  0.26841  0.33627  1.0000
  C   C1287     1.0  0.99379  0.01899  0.56374  1.0000
  C   C1288     1.0  0.49648  0.10621  0.35786  1.0000
  H   H1029     1.0  0.55433  0.20332  0.66827  1.0000
  C   C1289     1.0  0.70487  0.28820  0.89447  1.0000
  H   H1030     1.0  0.67068  0.14376  0.72509  1.0000
  Fe  Fe85      1.0  0.81054  0.18725  0.72039  1.0000
  S   S170      1.0  0.85921  0.21842  0.72028  1.0000
  S   S171      1.0  0.76227  0.19015  0.74030  1.0000
  S   S172      1.0  0.51351  0.04542  0.97040  1.0000
  Fe  Fe86      1.0  0.88987  0.17024  0.71863  1.0000
  S   S173      1.0  0.93910  0.16640  0.73760  1.0000
  C   C1290     1.0  0.58977  0.26279  0.98088  1.0000
  S   S174      1.0  0.84127  0.13911  0.72089  1.0000
  Fe  Fe87      1.0  0.56919  0.05393  0.95904  1.0000
  S   S175      1.0  0.61594  0.02139  0.96433  1.0000
  H   H1031     1.0  0.91132  0.49234  0.77778  1.0000
  Fe  Fe88      1.0  0.61156  0.10344  0.93425  1.0000
  S   S176      1.0  0.66096  0.07335  0.93766  1.0000
  S   S177      1.0  0.61581  0.15538  0.92069  1.0000
  Fe  Fe89      1.0  0.62711  0.02831  0.93260  1.0000
  H   H1032     1.0  0.50724  0.03128  0.92716  1.0000
  Fe  Fe90      1.0  0.64621  0.06908  0.96891  1.0000
  S   S178      1.0  0.68692  0.07028  0.99311  1.0000
  S   S179      1.0  0.57864  0.05874  0.92683  1.0000
  S   S180      1.0  0.59837  0.10131  0.96602  1.0000
  Fe  Fe91      1.0  0.63224  0.30340  0.80354  1.0000
  S   S181      1.0  0.59059  0.26764  0.79424  1.0000
  S   S182      1.0  0.68625  0.30495  0.78920  1.0000
  Fe  Fe92      1.0  0.58518  0.33592  0.83438  1.0000
  S   S183      1.0  0.54096  0.30137  0.82684  1.0000
  S   S184      1.0  0.56956  0.36821  0.86027  1.0000
  Fe  Fe93      1.0  0.58087  0.26057  0.82612  1.0000
  S   S185      1.0  0.56730  0.20919  0.83822  1.0000
  Fe  Fe94      1.0  0.55408  0.31187  0.79583  1.0000
  C   C1291     1.0  0.51572  0.13096  0.99241  1.0000
  S   S186      1.0  0.62466  0.29394  0.83549  1.0000
  S   S187      1.0  0.59626  0.34864  0.80318  1.0000
  C   C1292     1.0  0.67013  0.29204  0.92366  1.0000
  H   H1033     1.0  0.88922  0.43559  0.77057  1.0000
  H   H1034     1.0  0.66936  0.01320  0.87235  1.0000
  S   S188      1.0  0.86829  0.26688  0.67301  1.0000
  C   C1293     1.0  0.55275  0.24677  0.90910  1.0000
  H   H1035     1.0  0.73013  0.28696  0.88738  1.0000
  H   H1036     1.0  0.96372  0.17854  0.83573  1.0000
  C   C1294     1.0  0.60398  0.16857  0.89710  1.0000
  C   C1295     1.0  0.61520  0.20000  0.89052  1.0000
  C   C1296     1.0  0.60440  0.21259  0.87250  1.0000
  C   C1297     1.0  0.58220  0.19389  0.86082  1.0000
  C   C1298     1.0  0.57166  0.16208  0.86715  1.0000
  C   C1299     1.0  0.58253  0.14941  0.88519  1.0000
  H   H1037     1.0  0.63199  0.21497  0.89946  1.0000
  H   H1038     1.0  0.61308  0.23681  0.86764  1.0000
  H   H1039     1.0  0.55474  0.14729  0.85811  1.0000
  H   H1040     1.0  0.57378  0.12515  0.89002  1.0000
  C   C1300     1.0  0.60163  0.47220  0.88252  1.0000
  C   C1301     1.0  0.57620  0.45330  0.89210  1.0000
  C   C1302     1.0  0.56658  0.42171  0.88496  1.0000
  C   C1303     1.0  0.58220  0.40859  0.86819  1.0000
  C   C1304     1.0  0.60726  0.42766  0.85846  1.0000
  C   C1305     1.0  0.61687  0.45925  0.86560  1.0000
  C   C1306     1.0  0.59497  0.28817  0.68261  1.0000
  H   H1041     1.0  0.54705  0.40724  0.89255  1.0000
  H   H1042     1.0  0.61944  0.41802  0.84553  1.0000
  H   H1043     1.0  0.63643  0.47372  0.85802  1.0000
  H   H1044     1.0  0.76887  0.24983  0.70863  1.0000
  Fe  Fe95      1.0  0.84004  0.14167  0.68837  1.0000
  C   C1307     1.0  0.52677  0.45728  0.97039  1.0000
  C   C1308     1.0  0.98870  0.13349  0.82614  1.0000
  C   C1309     1.0  0.63929  0.29162  0.91270  1.0000
  H   H1045     1.0  0.56585  0.43232  0.93767  1.0000
  H   H1046     1.0  0.93227  0.09361  0.73403  1.0000
  C   C1310     1.0  0.74263  0.22240  0.75435  1.0000
  C   C1311     1.0  0.71179  0.21524  0.76468  1.0000
  C   C1312     1.0  0.69401  0.24018  0.77520  1.0000
  C   C1313     1.0  0.70718  0.27267  0.77578  1.0000
  C   C1314     1.0  0.73826  0.27978  0.76562  1.0000
  C   C1315     1.0  0.75582  0.25491  0.75490  1.0000
  H   H1047     1.0  0.70143  0.19022  0.76442  1.0000
  H   H1048     1.0  0.67023  0.23421  0.78292  1.0000
  H   H1049     1.0  0.74874  0.30480  0.76595  1.0000
  H   H1050     1.0  0.77932  0.26101  0.74694  1.0000
  C   C1316     1.0  0.96152  0.13189  0.74824  1.0000
  H   H1051     1.0  0.67593  0.28748  0.86786  1.0000
  C   C1317     1.0  0.95281  0.09879  0.74426  1.0000
  H   H1052     1.0  0.53716  0.38414  0.76779  1.0000
  C   C1318     1.0  0.56881  0.28691  0.66855  1.0000
  C   C1319     1.0  0.66075  0.06164  0.88473  1.0000
  C   C1320     1.0  0.67881  0.03862  0.87338  1.0000
  C   C1321     1.0  0.70900  0.04836  0.86345  1.0000
  C   C1322     1.0  0.72147  0.08101  0.86513  1.0000
  C   C1323     1.0  0.70396  0.10402  0.87695  1.0000
  C   C1324     1.0  0.67306  0.09429  0.88641  1.0000
  P   P45       1.0  0.71969  0.14624  0.87938  1.0000
  C   C1325     1.0  0.71326  0.15887  0.90419  1.0000
  C   C1326     1.0  0.76593  0.14805  0.87375  1.0000
  C   C1327     1.0  0.77691  0.15177  0.85448  1.0000
  C   C1328     1.0  0.81242  0.15530  0.85005  1.0000
  C   C1329     1.0  0.83730  0.15468  0.86477  1.0000
  C   C1330     1.0  0.82672  0.15019  0.88391  1.0000
  C   C1331     1.0  0.79121  0.14692  0.88842  1.0000
  C   C1332     1.0  0.71918  0.13585  0.91920  1.0000
  C   C1333     1.0  0.71491  0.14530  0.93846  1.0000
  C   C1334     1.0  0.70455  0.17774  0.94292  1.0000
  C   C1335     1.0  0.69857  0.20077  0.92812  1.0000
  C   C1336     1.0  0.70292  0.19147  0.90881  1.0000
  C   C1337     1.0  0.69760  0.17325  0.86235  1.0000
  C   C1338     1.0  0.66905  0.16160  0.85162  1.0000
  C   C1339     1.0  0.65497  0.18112  0.83678  1.0000
  C   C1340     1.0  0.66877  0.21257  0.83274  1.0000
  C   C1341     1.0  0.69677  0.22463  0.84354  1.0000
  C   C1342     1.0  0.71120  0.20506  0.85828  1.0000
  H   H1053     1.0  0.63736  0.05397  0.89242  1.0000
  C   C1343     1.0  0.50692  0.13703  0.97314  1.0000
  H   H1054     1.0  0.50024  0.24657  0.86951  1.0000
  H   H1055     1.0  0.74470  0.08816  0.85727  1.0000
  H   H1056     1.0  0.65862  0.11184  0.89523  1.0000
  H   H1057     1.0  0.75801  0.15239  0.84285  1.0000
  H   H1058     1.0  0.82063  0.15869  0.83521  1.0000
  H   H1059     1.0  0.86480  0.15754  0.86133  1.0000
  H   H1060     1.0  0.84604  0.14958  0.89534  1.0000
  H   H1061     1.0  0.78374  0.14391  0.90338  1.0000
  H   H1062     1.0  0.72697  0.11047  0.91604  1.0000
  H   H1063     1.0  0.71913  0.12730  0.94996  1.0000
  H   H1064     1.0  0.70085  0.18485  0.95786  1.0000
  H   H1065     1.0  0.68998  0.22565  0.93165  1.0000
  H   H1066     1.0  0.69760  0.20958  0.89761  1.0000
  H   H1067     1.0  0.65756  0.13748  0.85452  1.0000
  H   H1068     1.0  0.63278  0.17212  0.82862  1.0000
  H   H1069     1.0  0.65758  0.22765  0.82129  1.0000
  H   H1070     1.0  0.70747  0.24901  0.84024  1.0000
  H   H1071     1.0  0.73344  0.21442  0.86622  1.0000
  C   C1344     1.0  0.51534  0.20510  0.71318  1.0000
  C   C1345     1.0  0.56564  0.22703  0.67232  1.0000
  H   H1072     1.0  0.53551  0.32941  0.93938  1.0000
  H   H1073     1.0  0.53247  0.25304  0.75248  1.0000
  P   P46       1.0  0.64027  0.26081  0.70994  1.0000
  C   C1346     1.0  0.63936  0.22345  0.72467  1.0000
  C   C1347     1.0  0.68292  0.26521  0.69881  1.0000
  C   C1348     1.0  0.51687  0.25621  0.88083  1.0000
  H   H1074     1.0  0.56291  0.33798  0.74539  1.0000
  C   C1349     1.0  0.71278  0.25479  0.70887  1.0000
  C   C1350     1.0  0.62164  0.22294  0.74247  1.0000
  C   C1351     1.0  0.62121  0.19396  0.75374  1.0000
  C   C1352     1.0  0.63850  0.16531  0.74739  1.0000
  C   C1353     1.0  0.74983  0.27215  0.68233  1.0000
  H   H1075     1.0  0.55856  0.36400  0.70229  1.0000
  C   C1354     1.0  0.63155  0.29586  0.72550  1.0000
  C   C1355     1.0  0.59687  0.30506  0.72958  1.0000
  H   H1076     1.0  0.55836  0.32740  0.89366  1.0000
  H   H1077     1.0  0.50571  0.26933  0.98078  1.0000
  H   H1078     1.0  0.62488  0.19261  0.96114  1.0000
  C   C1356     1.0  0.65898  0.31287  0.73456  1.0000
  H   H1079     1.0  0.58128  0.27264  0.99465  1.0000
  C   C1357     1.0  0.65174  0.33918  0.74714  1.0000
  C   C1358     1.0  0.56369  0.28019  0.90867  1.0000
  H   H1080     1.0  0.71031  0.24402  0.72309  1.0000
  H   H1081     1.0  0.60859  0.24491  0.74795  1.0000
  H   H1082     1.0  0.60810  0.19400  0.76764  1.0000
  H   H1083     1.0  0.63881  0.14309  0.75632  1.0000
  H   H1084     1.0  0.52332  0.41479  0.69560  1.0000
  S   S189      1.0  0.82244  0.09433  0.67277  1.0000
  H   H1085     1.0  0.57532  0.29126  0.72354  1.0000
  C   C1359     1.0  0.49920  0.40939  0.74970  1.0000
  H   H1086     1.0  0.99625  0.16358  0.76423  1.0000
  H   H1087     1.0  0.68593  0.30546  0.73238  1.0000
  C   C1360     1.0  0.54997  0.30166  0.89453  1.0000
  C   C1361     1.0  0.52535  0.45898  0.79437  1.0000
  H   H1088     1.0  0.72650  0.29049  0.92308  1.0000
  C   C1362     1.0  0.92796  0.14703  0.82014  1.0000
  C   C1363     1.0  0.92372  0.11708  0.80992  1.0000
  C   C1364     1.0  0.58974  0.33140  0.74211  1.0000
  P   P47       1.0  0.88110  0.10639  0.80054  1.0000
  C   C1365     1.0  0.86230  0.14405  0.79058  1.0000
  C   C1366     1.0  0.88342  0.07532  0.78173  1.0000
  C   C1367     1.0  0.89220  0.04226  0.78642  1.0000
  H   H1089     1.0  0.67094  0.19436  0.70488  1.0000
  H   H1090     1.0  0.53044  0.30890  0.70249  1.0000
  C   C1368     1.0  0.92325  0.25728  0.99307  1.0000
  C   C1369     1.0  0.87403  0.08313  0.76264  1.0000
  C   C1370     1.0  0.82651  0.15132  0.79248  1.0000
  C   C1371     1.0  0.81250  0.17990  0.78379  1.0000
  C   C1372     1.0  0.83402  0.20129  0.77316  1.0000
  C   C1373     1.0  0.86961  0.19423  0.77124  1.0000
  C   C1374     1.0  0.88370  0.16573  0.77988  1.0000
  C   C1375     1.0  0.85444  0.08854  0.81949  1.0000
  C   C1376     1.0  0.86610  0.08786  0.83870  1.0000
  C   C1377     1.0  0.58828  0.33871  0.92962  1.0000
  C   C1378     1.0  0.52869  0.48440  0.78050  1.0000
  S   S190      1.0  0.89065  0.17029  0.68603  1.0000
  C   C1379     1.0  0.82251  0.07330  0.81488  1.0000
  H   H1091     1.0  0.68670  0.14327  0.98761  1.0000
  H   H1092     1.0  0.90624  0.16413  0.82185  1.0000
  C   C1380     1.0  0.55819  0.48571  0.76855  1.0000
  H   H1093     1.0  0.89900  0.03554  0.80109  1.0000
  C   C1381     1.0  0.98459  0.10358  0.81618  1.0000
  H   H1094     1.0  0.86710  0.10828  0.75847  1.0000
  H   H1095     1.0  0.80914  0.13488  0.80025  1.0000
  H   H1096     1.0  0.78470  0.18510  0.78474  1.0000
  H   H1097     1.0  0.82292  0.22289  0.76599  1.0000
  H   H1098     1.0  0.88624  0.21030  0.76259  1.0000
  H   H1099     1.0  0.91119  0.16019  0.77772  1.0000
  H   H1100     1.0  0.89096  0.09863  0.84267  1.0000
  H   H1101     1.0  0.62222  0.22752  0.93205  1.0000
  H   H1102     1.0  0.61162  0.36854  0.76086  1.0000
  H   H1103     1.0  0.86911  0.42186  0.73754  1.0000
  C   C1382     1.0  0.67433  0.28843  0.88346  1.0000
  H   H1104     1.0  0.66450  0.28782  0.67223  1.0000
  C   C1383     1.0  0.97062  0.07237  0.75357  1.0000
  H   H1105     1.0  0.55103  0.41642  0.80757  1.0000
  C   C1384     1.0  0.80218  0.05837  0.82931  1.0000
  C   C1385     1.0  0.51213  0.38234  0.76067  1.0000
  S   S191      1.0  0.80586  0.18778  0.68791  1.0000
  C   C1386     1.0  0.95083  0.30951  0.98454  1.0000
  C   C1387     1.0  0.84578  0.07275  0.85308  1.0000
  C   C1388     1.0  0.98908  0.13811  0.76116  1.0000
  C   C1389     1.0  0.95231  0.09534  0.80808  1.0000
  C   C1390     1.0  0.89242  0.01764  0.77218  1.0000
  H   H1106     1.0  0.61847  0.29140  0.88358  1.0000
  H   H1107     1.0  0.57772  0.30774  0.96551  1.0000
  H   H1108     1.0  0.56392  0.46311  0.90495  1.0000
  Fe  Fe96      1.0  0.85657  0.21646  0.68768  1.0000
  C   C1391     1.0  0.65665  0.19451  0.71840  1.0000
  C   C1392     1.0  0.55522  0.34809  0.93662  1.0000
  H   H1109     1.0  0.63828  0.35744  0.91931  1.0000
  H   H1110     1.0  0.67300  0.35158  0.75453  1.0000
  C   C1393     1.0  0.64166  0.29050  0.89249  1.0000
  H   H1111     1.0  0.62372  0.41636  0.92469  1.0000
  C   C1394     1.0  0.61302  0.36359  0.92541  1.0000
  C   C1395     1.0  0.94432  0.27597  0.98061  1.0000
  H   H1112     1.0  0.54507  0.47650  0.96602  1.0000
  C   C1396     1.0  0.65634  0.16564  0.72976  1.0000
  C   C1397     1.0  0.51463  0.33069  0.69982  1.0000
  H   H1113     1.0  0.56181  0.43477  0.99089  1.0000
  H   H1114     1.0  0.54626  0.19734  0.73878  1.0000
  C   C1398     1.0  0.57214  0.40620  0.93570  1.0000
  H   H1115     1.0  0.51446  0.43197  0.74853  1.0000
  C   C1399     1.0  0.55250  0.43567  0.79658  1.0000
  C   C1400     1.0  0.58213  0.43728  0.78475  1.0000
  H   H1116     1.0  0.60477  0.21495  0.99266  1.0000
  C   C1401     1.0  0.70614  0.13697  0.99833  1.0000
  H   H1117     1.0  0.77574  0.27476  0.67603  1.0000
  H   H1118     1.0  0.60781  0.46326  0.76146  1.0000
  H   H1119     1.0  0.51763  0.30619  0.86934  1.0000
  C   C1402     1.0  0.61297  0.23771  0.94557  1.0000
  P   P48       1.0  0.59741  0.29530  0.92465  1.0000
  H   H1120     1.0  0.95706  0.26403  0.96848  1.0000
  H   H1121     1.0  0.91977  0.23081  0.99063  1.0000
  C   C1403     1.0  0.52949  0.21442  0.73093  1.0000
  C   C1404     1.0  0.61716  0.34854  0.75086  1.0000
  H   H1122     1.0  0.72267  0.03046  0.85452  1.0000
  C   C1405     1.0  0.60491  0.39717  0.92846  1.0000
  H   H1123     1.0  0.87095  0.46421  0.71181  1.0000
  H   H1124     1.0  0.54149  0.13792  0.99740  1.0000
  H   H1125     1.0  0.85492  0.07227  0.86787  1.0000
  H   H1126     1.0  0.60308  0.41935  0.78662  1.0000
  H   H1127     1.0  0.52168  0.38881  0.94509  1.0000
  C   C1406     1.0  0.50019  0.47904  0.83257  1.0000
  C   C1407     1.0  0.52679  0.28968  0.88066  1.0000
  H   H1128     1.0  0.79826  0.04621  0.85957  1.0000
  H   H1129     1.0  0.52129  0.18079  0.70725  1.0000
  C   C1408     1.0  0.87373  0.05833  0.74851  1.0000
  C   C1409     1.0  0.61466  0.21783  0.96213  1.0000
  C   C1410     1.0  0.88996  0.45440  0.75931  1.0000
  H   H1130     1.0  0.66895  0.29391  0.93924  1.0000
  C   C1411     1.0  0.74603  0.25816  0.70069  1.0000
  H   H1131     1.0  0.86670  0.06470  0.73379  1.0000
  H   H1132     1.0  0.96311  0.04692  0.75063  1.0000
  C   C1412     1.0  0.70278  0.29021  0.91456  1.0000
  H   H1133     1.0  0.81349  0.07275  0.80006  1.0000
  H   H1134     1.0  0.95027  0.07232  0.80014  1.0000
  C   C1413     1.0  0.59907  0.27012  0.94638  1.0000
  C   C1414     1.0  0.52948  0.23489  0.89520  1.0000
  C   C1415     1.0  0.60312  0.23036  0.97981  1.0000
  C   C1416     1.0  0.96040  0.15526  0.82809  1.0000
  C   C1417     1.0  0.60647  0.25883  0.69177  1.0000
  S   S192      1.0  0.50869  0.31692  0.77450  1.0000
  C   C1418     1.0  0.81382  0.05808  0.84841  1.0000
  C   C1419     1.0  0.58773  0.28265  0.96425  1.0000
  C   C1420     1.0  0.87863  0.44668  0.74070  1.0000
  C   C1421     1.0  0.51114  0.39043  0.69550  1.0000
  H   H1135     1.0  0.98143  0.22925  0.88127  1.0000
  C   C1422     1.0  0.51183  0.40992  0.99051  1.0000
  C   C1423     1.0  0.58486  0.46211  0.77064  1.0000
  C   C1424     1.0  0.54728  0.38168  0.93979  1.0000
  H   H1136     1.0  0.60033  0.20515  0.69305  1.0000
  C   C1425     1.0  0.53602  0.43393  0.98449  1.0000
  H   H1137     1.0  0.56306  0.22925  0.91949  1.0000
  H   H1138     1.0  0.98115  0.27104  0.90759  1.0000
  H   H1139     1.0  0.51941  0.39189  0.00140  1.0000
  C   C1426     1.0  0.72026  0.28278  0.67217  1.0000
  C   C1427     1.0  0.90234  0.48635  0.76338  1.0000
  C   C1428     1.0  0.68689  0.27935  0.68035  1.0000
  H   H1140     1.0  0.52598  0.14797  0.96341  1.0000
  C   C1429     1.0  0.52176  0.24570  0.73864  1.0000
  C   C1430     1.0  0.87972  0.47086  0.72611  1.0000
  H   H1141     1.0  0.80302  0.00645  0.68547  1.0000
  C   C1431     1.0  0.88314  0.02567  0.75323  1.0000
  H   H1142     1.0  0.52262  0.20868  0.89499  1.0000
  H   H1143     1.0  0.77759  0.04665  0.82561  1.0000
  H   H1144     1.0  0.50896  0.41252  0.84212  1.0000
  H   H1145     1.0  0.88339  0.00666  0.74217  1.0000
  C   C1432     1.0  0.50509  0.00775  0.91962  1.0000
  H   H1146     1.0  0.96873  0.32339  0.97542  1.0000
  H   H1147     1.0  0.60621  0.31204  0.68639  1.0000
  C   C1433     1.0  0.59180  0.22819  0.68639  1.0000
  C   C1434     1.0  0.53101  0.49804  0.83354  1.0000
  C   C1435     1.0  0.53083  0.36188  0.69940  1.0000
  C   C1436     1.0  0.49991  0.26764  0.72860  1.0000
  C   C1437     1.0  0.93609  0.32448  0.00086  1.0000
  H   H1148     1.0  0.85644  0.42322  0.00064  1.0000
  H   H1149     1.0  0.80912  0.52422  0.24074  1.0000
  C   C1438     1.0  0.61034  0.63933  0.00591  1.0000
  Fe  Fe97      1.0  0.58823  0.56982  0.29870  1.0000
  S   S193      1.0  0.62483  0.61310  0.29607  1.0000
  S   S194      1.0  0.53879  0.56486  0.28042  1.0000
  Fe  Fe98      1.0  0.66836  0.57532  0.29819  1.0000
  S   S195      1.0  0.71950  0.57931  0.28097  1.0000
  H   H1150     1.0  0.94893  0.77250  0.06671  1.0000
  S   S196      1.0  0.63193  0.53160  0.29846  1.0000
  H   H1151     1.0  0.94919  0.71620  0.08083  1.0000
  Fe  Fe99      1.0  0.82403  0.93478  0.20936  1.0000
  S   S197      1.0  0.87088  0.96626  0.21576  1.0000
  S   S198      1.0  0.76827  0.94486  0.22036  1.0000
  Fe  Fe100     1.0  0.86757  0.88503  0.18526  1.0000
  S   S199      1.0  0.91721  0.91401  0.18999  1.0000
  S   S200      1.0  0.87420  0.83413  0.17091  1.0000
  Fe  Fe101     1.0  0.90000  0.91791  0.22090  1.0000
  S   S201      1.0  0.93402  0.91332  0.24798  1.0000
  Fe  Fe102     1.0  0.88417  0.95965  0.18427  1.0000
  H   H1152     1.0  0.83130  0.92345  0.26885  1.0000
  S   S202      1.0  0.85193  0.88672  0.21665  1.0000
  S   S203      1.0  0.83566  0.93038  0.17732  1.0000
  Fe  Fe103     1.0  0.80116  0.68203  0.04482  1.0000
  S   S204      1.0  0.84378  0.64448  0.05028  1.0000
  S   S205      1.0  0.76137  0.68237  0.02007  1.0000
  Fe  Fe104     1.0  0.82649  0.72692  0.07851  1.0000
  S   S206      1.0  0.87020  0.69194  0.08649  1.0000
  S   S207      1.0  0.81344  0.77713  0.09218  1.0000
  Fe  Fe105     1.0  0.87926  0.68915  0.05421  1.0000
  S   S208      1.0  0.93348  0.69126  0.04029  1.0000
  Fe  Fe106     1.0  0.83100  0.65059  0.08191  1.0000
  S   S209      1.0  0.81405  0.60777  0.10185  1.0000
  S   S210      1.0  0.83767  0.72611  0.04661  1.0000
  S   S211      1.0  0.78638  0.68622  0.07611  1.0000
  H   H1153     1.0  0.83935  0.96327  0.11935  1.0000
  C   C1439     1.0  0.73893  0.61669  0.01488  1.0000
  C   C1440     1.0  0.86258  0.68876  0.14794  1.0000
  C   C1441     1.0  0.55226  0.61929  0.07050  1.0000
  C   C1442     1.0  0.88136  0.96617  0.07590  1.0000
  C   C1443     1.0  0.85799  0.81983  0.14850  1.0000
  C   C1444     1.0  0.83197  0.83694  0.13831  1.0000
  C   C1445     1.0  0.81911  0.82387  0.12087  1.0000
  C   C1446     1.0  0.83203  0.79362  0.11348  1.0000
  C   C1447     1.0  0.85874  0.77707  0.12338  1.0000
  C   C1448     1.0  0.87138  0.78995  0.14090  1.0000
  H   H1154     1.0  0.82139  0.85991  0.14403  1.0000
  H   H1155     1.0  0.79853  0.83691  0.11324  1.0000
  H   H1156     1.0  0.86955  0.75435  0.11751  1.0000
  H   H1157     1.0  0.89173  0.77677  0.14859  1.0000
  C   C1449     1.0  0.87419  0.53268  0.14009  1.0000
  C   C1450     1.0  0.89255  0.55582  0.12861  1.0000
  C   C1451     1.0  0.87467  0.57905  0.11689  1.0000
  C   C1452     1.0  0.83810  0.57923  0.11641  1.0000
  C   C1453     1.0  0.81974  0.55602  0.12786  1.0000
  C   C1454     1.0  0.83763  0.53291  0.13967  1.0000
  H   H1158     1.0  0.92083  0.55577  0.12880  1.0000
  H   H1159     1.0  0.88916  0.59668  0.10817  1.0000
  H   H1160     1.0  0.79147  0.55590  0.12758  1.0000
  H   H1161     1.0  0.97706  0.97112  0.06762  1.0000
  H   H1162     1.0  0.94039  0.92550  0.00440  1.0000
  C   C1455     1.0  0.95259  0.72601  0.02819  1.0000
  C   C1456     1.0  0.85608  0.91141  0.08181  1.0000
  C   C1457     1.0  0.51858  0.59812  0.26747  1.0000
  C   C1458     1.0  0.70205  0.72100  0.32925  1.0000
  H   H1163     1.0  0.56848  0.64054  0.07399  1.0000
  H   H1164     1.0  0.68667  0.51985  0.26491  1.0000
  H   H1165     1.0  0.94232  0.87899  0.04821  1.0000
  Fe  Fe107     1.0  0.62375  0.61325  0.32862  1.0000
  C   C1459     1.0  0.71334  0.52098  0.25973  1.0000
  C   C1460     1.0  0.57340  0.69724  0.29728  1.0000
  H   H1166     1.0  0.93940  0.99098  0.09832  1.0000
  H   H1167     1.0  0.78641  0.56858  0.26257  1.0000
  C   C1461     1.0  0.53094  0.63085  0.26854  1.0000
  H   H1168     1.0  0.73354  0.74026  0.23389  1.0000
  H   H1169     1.0  0.55411  0.63611  0.27686  1.0000
  C   C1462     1.0  0.73487  0.54732  0.26533  1.0000
  P   P49       1.0  0.60027  0.60630  0.04095  1.0000
  H   H1170     1.0  0.77063  0.91436  0.25770  1.0000
  H   H1171     1.0  0.67572  0.50665  0.03323  1.0000
  C   C1463     1.0  0.90760  0.65523  0.25580  1.0000
  H   H1172     1.0  0.97432  0.56572  0.15719  1.0000
  C   C1464     1.0  0.75215  0.77951  0.31131  1.0000
  C   C1465     1.0  0.59011  0.63731  0.02279  1.0000
  H   H1173     1.0  0.84747  0.73448  0.25031  1.0000
  C   C1466     1.0  0.87065  0.69964  0.16651  1.0000
  H   H1174     1.0  0.94749  0.77074  0.23174  1.0000
  C   C1467     1.0  0.50047  0.96490  0.00644  1.0000
  C   C1468     1.0  0.76950  0.54835  0.25834  1.0000
  C   C1469     1.0  0.96720  0.53817  0.18359  1.0000
  H   H1175     1.0  0.54629  0.65903  0.03824  1.0000
  H   H1176     1.0  0.84468  0.67205  0.01022  1.0000
  C   C1470     1.0  0.80324  0.53758  0.19304  1.0000
  C   C1471     1.0  0.77363  0.55278  0.20092  1.0000
  C   C1472     1.0  0.77512  0.58596  0.20690  1.0000
  C   C1473     1.0  0.80639  0.60377  0.20521  1.0000
  C   C1474     1.0  0.83664  0.58823  0.19805  1.0000
  C   C1475     1.0  0.83461  0.55523  0.19144  1.0000
  P   P50       1.0  0.87708  0.61133  0.19672  1.0000
  C   C1476     1.0  0.87124  0.64219  0.17791  1.0000
  C   C1477     1.0  0.88822  0.62902  0.21986  1.0000
  C   C1478     1.0  0.87452  0.67653  0.18154  1.0000
  H   H1177     1.0  0.98168  0.82873  0.04450  1.0000
  C   C1479     1.0  0.86212  0.63165  0.15930  1.0000
  C   C1480     1.0  0.88039  0.63212  0.25465  1.0000
  C   C1481     1.0  0.87094  0.61878  0.23678  1.0000
  C   C1482     1.0  0.93563  0.96973  0.04636  1.0000
  P   P51       1.0  0.71768  0.93590  0.32200  1.0000
  C   C1483     1.0  0.91274  0.58322  0.19137  1.0000
  H   H1178     1.0  0.96174  0.85428  0.22787  1.0000
  C   C1484     1.0  0.82028  0.53484  0.07184  1.0000
  C   C1485     1.0  0.94069  0.87112  0.10068  1.0000
  H   H1179     1.0  0.93993  0.80808  0.01710  1.0000
  C   C1486     1.0  0.92080  0.55764  0.20454  1.0000
  C   C1487     1.0  0.92576  0.91970  0.12868  1.0000
  H   H1180     1.0  0.74967  0.53862  0.20259  1.0000
  H   H1181     1.0  0.75208  0.59764  0.21304  1.0000
  H   H1182     1.0  0.80719  0.62947  0.20976  1.0000
  H   H1183     1.0  0.85708  0.54290  0.18511  1.0000
  C   C1488     1.0  0.92010  0.86251  0.04957  1.0000
  H   H1184     1.0  0.91519  0.66527  0.26968  1.0000
  C   C1489     1.0  0.91647  0.65118  0.22128  1.0000
  H   H1185     1.0  0.86705  0.62403  0.26766  1.0000
  H   H1186     1.0  0.85067  0.60000  0.23636  1.0000
  H   H1187     1.0  0.53351  0.70119  0.01335  1.0000
  H   H1188     1.0  0.85843  0.60539  0.15629  1.0000
  C   C1490     1.0  0.99488  0.84422  0.07354  1.0000
  Fe  Fe108     1.0  0.63222  0.53683  0.33086  1.0000
  C   C1491     1.0  0.51317  0.71125  0.30509  1.0000
  C   C1492     1.0  0.75326  0.97620  0.23668  1.0000
  H   H1189     1.0  0.90566  0.55457  0.21765  1.0000
  H   H1190     1.0  0.76179  0.51176  0.29789  1.0000
  C   C1493     1.0  0.95249  0.73353  0.11022  1.0000
  H   H1191     1.0  0.77695  0.71689  0.13726  1.0000
  C   C1494     1.0  0.92577  0.66459  0.23914  1.0000
  C   C1495     1.0  0.75355  0.93013  0.30515  1.0000
  H   H1192     1.0  0.87286  0.53678  0.08267  1.0000
  C   C1496     1.0  0.63686  0.50979  0.01090  1.0000
  H   H1193     1.0  0.89963  0.96120  0.02279  1.0000
  C   C1497     1.0  0.67650  0.93283  0.30929  1.0000
  C   C1498     1.0  0.65418  0.90539  0.31213  1.0000
  C   C1499     1.0  0.62327  0.90250  0.30154  1.0000
  C   C1500     1.0  0.61466  0.92659  0.28776  1.0000
  C   C1501     1.0  0.63690  0.95362  0.28462  1.0000
  C   C1502     1.0  0.66744  0.95703  0.29550  1.0000
  H   H1194     1.0  0.88360  0.92471  0.05603  1.0000
  C   C1503     1.0  0.96874  0.96160  0.05379  1.0000
  H   H1195     1.0  0.78682  0.68470  0.19604  1.0000
  C   C1504     1.0  0.92543  0.95622  0.02855  1.0000
  H   H1196     1.0  0.73864  0.77956  0.20263  1.0000
  C   C1505     1.0  0.93609  0.75716  0.02712  1.0000
  C   C1506     1.0  0.75414  0.83011  0.29215  1.0000
  C   C1507     1.0  0.98571  0.72223  0.01961  1.0000
  H   H1197     1.0  0.72118  0.56628  0.01001  1.0000
  H   H1198     1.0  0.87960  0.68582  0.19585  1.0000
  C   C1508     1.0  0.60890  0.52810  0.00343  1.0000
  H   H1199     1.0  0.95691  0.81465  0.12381  1.0000
  C   C1509     1.0  0.64252  0.54962  0.03686  1.0000
  H   H1200     1.0  0.85111  0.64661  0.13003  1.0000
  C   C1510     1.0  0.84942  0.52184  0.08138  1.0000
  C   C1511     1.0  0.69979  0.71367  0.30948  1.0000
  H   H1201     1.0  0.66041  0.88603  0.32240  1.0000
  H   H1202     1.0  0.60598  0.88156  0.30401  1.0000
  H   H1203     1.0  0.59070  0.92448  0.27953  1.0000
  H   H1204     1.0  0.63016  0.97228  0.27390  1.0000
  H   H1205     1.0  0.96718  0.94802  0.11564  1.0000
  C   C1512     1.0  0.81598  0.93289  0.29832  1.0000
  C   C1513     1.0  0.95063  0.73774  0.09023  1.0000
  H   H1206     1.0  0.59749  0.72639  0.27478  1.0000
  C   C1514     1.0  0.95482  0.76139  0.12221  1.0000
  H   H1207     1.0  0.76828  0.96875  0.17817  1.0000
  C   C1515     1.0  0.50894  0.56550  0.06145  1.0000
  C   C1516     1.0  0.87467  0.93338  0.06990  1.0000
  H   H1208     1.0  0.54527  0.76222  0.26973  1.0000
  C   C1517     1.0  0.95148  0.79792  0.09421  1.0000
  H   H1209     1.0  0.51599  0.94428  0.01177  1.0000
  H   H1210     1.0  0.65616  0.55751  0.04969  1.0000
  H   H1211     1.0  0.89651  0.87964  0.02310  1.0000
  H   H1212     1.0  0.86118  0.77336  0.19261  1.0000
  C   C1518     1.0  0.77550  0.91964  0.27276  1.0000
  H   H1213     1.0  0.82314  0.51519  0.14834  1.0000
  H   H1214     1.0  0.71078  0.86374  0.29595  1.0000
  C   C1519     1.0  0.78805  0.93570  0.31130  1.0000
  H   H1215     1.0  0.54325  0.67193  0.31888  1.0000
  H   H1216     1.0  0.75582  0.60995  0.02677  1.0000
  C   C1520     1.0  0.76721  0.99349  0.17185  1.0000
  C   C1521     1.0  0.86478  0.84254  0.03719  1.0000
  C   C1522     1.0  0.76892  0.79964  0.29761  1.0000
  C   C1523     1.0  0.88757  0.82051  0.06721  1.0000
  C   C1524     1.0  0.78250  0.52316  0.24602  1.0000
  C   C1525     1.0  0.95903  0.90145  0.10082  1.0000
  C   C1526     1.0  0.80970  0.92490  0.27904  1.0000
  C   C1527     1.0  0.97612  0.85742  0.24116  1.0000
  C   C1528     1.0  0.85801  0.65486  0.14439  1.0000
  H   H1217     1.0  0.97898  0.90668  0.09016  1.0000
  H   H1218     1.0  0.54542  0.55454  0.03895  1.0000
  H   H1219     1.0  0.71298  0.83518  0.20835  1.0000
  H   H1220     1.0  0.52217  0.68221  0.26048  1.0000
  C   C1529     1.0  0.95470  0.79350  0.11425  1.0000
  C   C1530     1.0  0.70924  0.65518  0.31635  1.0000
  C   C1531     1.0  0.90642  0.89025  0.12812  1.0000
  C   C1532     1.0  0.95270  0.78404  0.01763  1.0000
  H   H1221     1.0  0.88420  0.80411  0.07953  1.0000
  H   H1222     1.0  0.82901  0.68285  0.23064  1.0000
  C   C1533     1.0  0.61463  0.56840  0.02929  1.0000
  C   C1534     1.0  0.91746  0.84056  0.06532  1.0000
  C   C1535     1.0  0.52163  0.61367  0.08113  1.0000
  C   C1536     1.0  0.95034  0.76977  0.08225  1.0000
  H   H1223     1.0  0.73942  0.64356  0.26035  1.0000
  C   C1537     1.0  0.51451  0.73738  0.29154  1.0000
  C   C1538     1.0  0.59796  0.55744  0.01246  1.0000
  C   C1539     1.0  0.65365  0.52053  0.02763  1.0000
  H   H1224     1.0  0.82374  0.80406  0.24096  1.0000
  H   H1225     1.0  0.84251  0.93750  0.30307  1.0000
  C   C1540     1.0  0.56239  0.65991  0.02542  1.0000
  C   C1541     1.0  0.95976  0.56388  0.17056  1.0000
  C   C1542     1.0  0.84931  0.95493  0.10555  1.0000
  C   C1543     1.0  0.94787  0.53517  0.20062  1.0000
  C   C1544     1.0  0.89406  0.86314  0.03542  1.0000
  H   H1226     1.0  0.71252  0.62984  0.31130  1.0000
  H   H1227     1.0  0.61929  0.59455  0.08151  1.0000
  C   C1545     1.0  0.63606  0.62083  0.05572  1.0000
  C   C1546     1.0  0.66295  0.64014  0.04753  1.0000
  C   C1547     1.0  0.69189  0.64933  0.05858  1.0000
  C   C1548     1.0  0.69444  0.63914  0.07781  1.0000
  C   C1549     1.0  0.66797  0.61974  0.08605  1.0000
  C   C1550     1.0  0.63896  0.61046  0.07505  1.0000
  C   C1551     1.0  0.73673  0.65002  0.00896  1.0000
  H   H1228     1.0  0.66223  0.64764  0.03253  1.0000
  H   H1229     1.0  0.71266  0.66402  0.05209  1.0000
  H   H1230     1.0  0.71718  0.64596  0.08624  1.0000
  H   H1231     1.0  0.67025  0.61153  0.10090  1.0000
  C   C1552     1.0  0.78970  0.51603  0.07055  1.0000
  C   C1553     1.0  0.72059  0.78993  0.31984  1.0000
  H   H1232     1.0  0.87321  0.72607  0.16927  1.0000
  C   C1554     1.0  0.53947  0.57112  0.05077  1.0000
  H   H1233     1.0  0.80341  0.99879  0.24165  1.0000
  H   H1234     1.0  0.72132  0.91911  0.28018  1.0000
  H   H1235     1.0  0.59633  0.68188  0.29972  1.0000
  H   H1236     1.0  0.85128  0.88603  0.07721  1.0000
  H   H1237     1.0  0.80076  0.63796  0.24974  1.0000
  C   C1555     1.0  0.54476  0.74268  0.28057  1.0000
  H   H1238     1.0  0.68411  0.97841  0.29295  1.0000
  H   H1239     1.0  0.77529  0.67194  0.16195  1.0000
  S   S212      1.0  0.89824  0.50396  0.15446  1.0000
  H   H1240     1.0  0.94749  0.68184  0.24010  1.0000
  H   H1241     1.0  0.83856  0.80570  0.05472  1.0000
  C   C1556     1.0  0.74750  0.92239  0.28567  1.0000
  C   C1557     1.0  0.84352  0.92215  0.09967  1.0000
  C   C1558     1.0  0.57416  0.72252  0.28338  1.0000
  H   H1242     1.0  0.82119  0.55986  0.06585  1.0000
  H   H1243     1.0  0.80316  0.78818  0.18078  1.0000
  H   H1244     1.0  0.91073  0.76064  0.03377  1.0000
  H   H1245     1.0  0.79337  0.79159  0.29116  1.0000
  H   H1246     1.0  0.84449  0.84304  0.02631  1.0000
  H   H1247     1.0  0.92037  0.93818  0.13973  1.0000
  H   H1248     1.0  0.74251  0.87526  0.22998  1.0000
  H   H1249     1.0  0.82928  0.90505  0.10895  1.0000
  H   H1250     1.0  0.92732  0.60585  0.16401  1.0000
  H   H1251     1.0  0.85896  0.70660  0.13636  1.0000
  H   H1252     1.0  0.69967  0.95993  0.23495  1.0000
  C   C1559     1.0  0.98123  0.92785  0.02565  1.0000
  P   P52       1.0  0.95138  0.83893  0.08339  1.0000
  C   C1560     1.0  0.86146  0.82143  0.05315  1.0000
  H   H1253     1.0  0.92270  0.78470  0.19962  1.0000
  H   H1254     1.0  0.79047  0.77473  0.14690  1.0000
  H   H1255     1.0  0.88610  0.88602  0.13877  1.0000
  C   C1561     1.0  0.54308  0.69157  0.30810  1.0000
  H   H1256     1.0  0.70587  0.69478  0.25231  1.0000
  C   C1562     1.0  0.51272  0.65696  0.25926  1.0000
  C   C1563     1.0  0.50005  0.58672  0.07664  1.0000
  H   H1257     1.0  0.90980  0.74524  0.25687  1.0000
  C   C1564     1.0  0.78433  0.84140  0.23724  1.0000
  C   C1565     1.0  0.75335  0.85049  0.22796  1.0000
  C   C1566     1.0  0.73685  0.82795  0.21567  1.0000
  C   C1567     1.0  0.75161  0.79653  0.21239  1.0000
  C   C1568     1.0  0.78330  0.78754  0.22125  1.0000
  C   C1569     1.0  0.79925  0.81006  0.23397  1.0000
  P   P53       1.0  0.80325  0.74750  0.21627  1.0000
  C   C1570     1.0  0.78374  0.71543  0.23126  1.0000
  C   C1571     1.0  0.79580  0.73748  0.19115  1.0000
  C   C1572     1.0  0.78781  0.70470  0.18558  1.0000
  C   C1573     1.0  0.78101  0.69732  0.16623  1.0000
  C   C1574     1.0  0.78198  0.72257  0.15230  1.0000
  C   C1575     1.0  0.78983  0.75518  0.15771  1.0000
  C   C1576     1.0  0.79691  0.76266  0.17699  1.0000
  C   C1577     1.0  0.74884  0.71839  0.23742  1.0000
  C   C1578     1.0  0.73299  0.69261  0.24790  1.0000
  C   C1579     1.0  0.75182  0.66373  0.25238  1.0000
  C   C1580     1.0  0.78652  0.66059  0.24635  1.0000
  C   C1581     1.0  0.80241  0.68616  0.23569  1.0000
  C   C1582     1.0  0.84973  0.75157  0.22059  1.0000
  C   C1583     1.0  0.87144  0.76592  0.20648  1.0000
  C   C1584     1.0  0.90658  0.77247  0.21043  1.0000
  C   C1585     1.0  0.92045  0.76476  0.22853  1.0000
  C   C1586     1.0  0.89913  0.75044  0.24270  1.0000
  C   C1587     1.0  0.86385  0.74409  0.23883  1.0000
  H   H1258     1.0  0.79751  0.85915  0.24644  1.0000
  H   H1259     1.0  0.57211  0.75618  0.32295  1.0000
  C   C1588     1.0  0.91352  0.86619  0.11405  1.0000
  C   C1589     1.0  0.71745  0.97754  0.24144  1.0000
  H   H1260     1.0  0.93153  0.65790  0.20858  1.0000
  C   C1590     1.0  0.96793  0.88407  0.25337  1.0000
  C   C1591     1.0  0.77581  0.99938  0.24511  1.0000
  H   H1261     1.0  0.63315  0.73714  0.32083  1.0000
  C   C1592     1.0  0.99139  0.94073  0.04348  1.0000
  H   H1262     1.0  0.70166  0.67501  0.28789  1.0000
  C   C1593     1.0  0.93271  0.58644  0.17443  1.0000
  H   H1263     1.0  0.89816  0.84354  0.11381  1.0000
  C   C1594     1.0  0.95202  0.92530  0.11501  1.0000
  C   C1595     1.0  0.62710  0.75898  0.32934  1.0000
  C   C1596     1.0  0.94830  0.93566  0.01818  1.0000
  H   H1264     1.0  0.98744  0.52012  0.18031  1.0000
  H   H1265     1.0  0.83929  0.00003  0.14841  1.0000
  H   H1266     1.0  0.79327  0.94276  0.32609  1.0000
  S   S213      1.0  0.58516  0.57107  0.33125  1.0000
  H   H1267     1.0  0.51191  0.96400  0.12209  1.0000
  C   C1597     1.0  0.71925  0.59197  0.00533  1.0000
  C   C1598     1.0  0.56167  0.59783  0.05535  1.0000
  C   C1599     1.0  0.55507  0.68401  0.01134  1.0000
  S   S214      1.0  0.67059  0.57940  0.33060  1.0000
  H   H1268     1.0  0.51454  0.63024  0.09283  1.0000
  C   C1600     1.0  0.98548  0.77994  0.00862  1.0000
  H   H1269     1.0  0.80193  0.51187  0.18840  1.0000
  H   H1270     1.0  0.95332  0.51487  0.21057  1.0000
  H   H1271     1.0  0.71065  0.50306  0.31932  1.0000
  H   H1272     1.0  0.76702  0.52641  0.06334  1.0000
  H   H1273     1.0  0.63158  0.62197  0.00348  1.0000
  H   H1274     1.0  0.98091  0.90804  0.28020  1.0000
  C   C1601     1.0  0.75419  0.99804  0.15321  1.0000
  C   C1602     1.0  0.98699  0.88762  0.27061  1.0000
  H   H1275     1.0  0.57670  0.57169  0.00618  1.0000
  C   C1603     1.0  0.86790  0.97695  0.09366  1.0000
  P   P54       1.0  0.90532  0.99458  0.06042  1.0000
  C   C1604     1.0  0.70346  0.68083  0.30309  1.0000
  C   C1605     1.0  0.59231  0.76971  0.33050  1.0000
  C   C1606     1.0  0.72228  0.97801  0.33101  1.0000
  H   H1276     1.0  0.76381  0.75580  0.31525  1.0000
  H   H1277     1.0  0.95225  0.70866  0.11637  1.0000
  H   H1278     1.0  0.95652  0.75814  0.13770  1.0000
  H   H1279     1.0  0.68158  0.82914  0.32040  1.0000
  H   H1280     1.0  0.74575  0.97671  0.14490  1.0000
  H   H1281     1.0  0.76709  0.84568  0.28151  1.0000
  C   C1607     1.0  0.72255  0.84041  0.30038  1.0000
  C   C1608     1.0  0.70594  0.82056  0.31424  1.0000
  H   H1282     1.0  0.69524  0.73328  0.29901  1.0000
  H   H1283     1.0  0.74285  0.99785  0.30405  1.0000
  H   H1284     1.0  0.76861  0.88332  0.33311  1.0000
  C   C1609     1.0  0.58603  0.81013  0.55221  1.0000
  H   H1285     1.0  0.89528  0.79704  0.55305  1.0000
  Fe  Fe109     1.0  0.58959  0.81949  0.46180  1.0000
  S   S215      1.0  0.63929  0.79026  0.46554  1.0000
  S   S216      1.0  0.54545  0.82080  0.48437  1.0000
  Fe  Fe110     1.0  0.61438  0.84966  0.42300  1.0000
  S   S217      1.0  0.66557  0.82192  0.42427  1.0000
  S   S218      1.0  0.59542  0.87505  0.39516  1.0000
  Fe  Fe111     1.0  0.63383  0.77784  0.43397  1.0000
  S   S219      1.0  0.64412  0.72425  0.42454  1.0000
  Fe  Fe112     1.0  0.66743  0.83677  0.45579  1.0000
  S   S220      1.0  0.72209  0.84825  0.46808  1.0000
  S   S221      1.0  0.58249  0.80424  0.43086  1.0000
  S   S222      1.0  0.61778  0.86745  0.45387  1.0000
  C   C1610     1.0  0.77293  0.77577  0.37952  1.0000
  C   C1611     1.0  0.68017  0.51495  0.48174  1.0000
  Fe  Fe113     1.0  0.83864  0.93846  0.55127  1.0000
  S   S223      1.0  0.87923  0.89850  0.54781  1.0000
  S   S224      1.0  0.78674  0.94104  0.53448  1.0000
  Fe  Fe114     1.0  0.88047  0.97283  0.58390  1.0000
  S   S225      1.0  0.92293  0.93373  0.58258  1.0000
  C   C1612     1.0  0.52359  0.75458  0.48749  1.0000
  Fe  Fe115     1.0  0.91933  0.93953  0.55029  1.0000
  S   S226      1.0  0.97165  0.94068  0.53396  1.0000
  Fe  Fe116     1.0  0.87946  0.89621  0.58037  1.0000
  S   S227      1.0  0.87548  0.84323  0.59280  1.0000
  S   S228      1.0  0.87883  0.98001  0.55161  1.0000
  S   S229      1.0  0.83690  0.93480  0.58386  1.0000
  H   H1286     1.0  0.92018  0.89156  0.43012  1.0000
  C   C1613     1.0  0.96952  0.91367  0.42323  1.0000
  H   H1287     1.0  0.66948  0.55710  0.45175  1.0000
  C   C1614     1.0  0.50218  0.82587  0.55185  1.0000
  C   C1615     1.0  0.51779  0.87129  0.42606  1.0000
  C   C1616     1.0  0.89942  0.80685  0.65459  1.0000
  C   C1617     1.0  0.88478  0.78543  0.64099  1.0000
  C   C1618     1.0  0.87702  0.79721  0.62231  1.0000
  C   C1619     1.0  0.88431  0.83031  0.61687  1.0000
  C   C1620     1.0  0.89888  0.85177  0.63050  1.0000
  C   C1621     1.0  0.90636  0.84007  0.64927  1.0000
  H   H1288     1.0  0.87931  0.75982  0.64488  1.0000
  H   H1289     1.0  0.86480  0.78062  0.61217  1.0000
  H   H1290     1.0  0.90458  0.87731  0.62655  1.0000
  C   C1622     1.0  0.50751  0.76688  0.37308  1.0000
  C   C1623     1.0  0.87773  0.59758  0.64647  1.0000
  C   C1624     1.0  0.84146  0.59455  0.64463  1.0000
  C   C1625     1.0  0.82715  0.56940  0.63286  1.0000
  C   C1626     1.0  0.84877  0.54707  0.62264  1.0000
  C   C1627     1.0  0.88505  0.55036  0.62433  1.0000
  C   C1628     1.0  0.89937  0.57547  0.63614  1.0000
  C   C1629     1.0  0.51689  0.73332  0.37173  1.0000
  H   H1291     1.0  0.79905  0.56719  0.63163  1.0000
  C   C1630     1.0  0.85304  0.70685  0.60467  1.0000
  H   H1292     1.0  0.92746  0.57753  0.63744  1.0000
  C   C1631     1.0  0.63562  0.85225  0.53477  1.0000
  C   C1632     1.0  0.93903  0.92200  0.45371  1.0000
  C   C1633     1.0  0.71914  0.90567  0.34156  1.0000
  H   H1293     1.0  0.54455  0.74848  0.47762  1.0000
  S   S230      1.0  0.89759  0.62820  0.66147  1.0000
  C   C1634     1.0  0.73874  0.87326  0.48732  1.0000
  C   C1635     1.0  0.71883  0.89814  0.49629  1.0000
  C   C1636     1.0  0.73387  0.91840  0.51072  1.0000
  C   C1637     1.0  0.76880  0.91385  0.51666  1.0000
  C   C1638     1.0  0.78850  0.88858  0.50795  1.0000
  C   C1639     1.0  0.77367  0.86869  0.49329  1.0000
  H   H1294     1.0  0.69208  0.90222  0.49184  1.0000
  H   H1295     1.0  0.71836  0.93790  0.51728  1.0000
  H   H1296     1.0  0.81522  0.88461  0.51242  1.0000
  H   H1297     1.0  0.78942  0.84962  0.48649  1.0000
  C   C1640     1.0  0.62061  0.68001  0.36475  1.0000
  C   C1641     1.0  0.64166  0.66276  0.37790  1.0000
  C   C1642     1.0  0.64851  0.67657  0.39619  1.0000
  C   C1643     1.0  0.63462  0.70778  0.40144  1.0000
  C   C1644     1.0  0.61347  0.72492  0.38830  1.0000
  C   C1645     1.0  0.60655  0.71103  0.37009  1.0000
  H   H1298     1.0  0.65289  0.63900  0.37390  1.0000
  H   H1299     1.0  0.66494  0.66316  0.40627  1.0000
  H   H1300     1.0  0.60259  0.74892  0.39214  1.0000
  H   H1301     1.0  0.59004  0.72433  0.36009  1.0000
  C   C1646     1.0  0.61894  0.97852  0.36885  1.0000
  C   C1647     1.0  0.63132  0.97016  0.38736  1.0000
  C   C1648     1.0  0.62483  0.93852  0.39553  1.0000
  C   C1649     1.0  0.60558  0.91489  0.38532  1.0000
  C   C1650     1.0  0.59355  0.92306  0.36669  1.0000
  C   C1651     1.0  0.60031  0.95464  0.35844  1.0000
  H   H1302     1.0  0.64565  0.98851  0.39556  1.0000
  H   H1303     1.0  0.63430  0.93264  0.40985  1.0000
  H   H1304     1.0  0.57871  0.90495  0.35862  1.0000
  C   C1652     1.0  0.86525  0.89603  0.45716  1.0000
  H   H1305     1.0  0.93971  0.99736  0.51347  1.0000
  H   H1306     1.0  0.54353  0.81877  0.59821  1.0000
  C   C1653     1.0  0.55741  0.74279  0.54926  1.0000
  C   C1654     1.0  0.50625  0.71447  0.35587  1.0000
  C   C1655     1.0  0.99467  0.94952  0.44746  1.0000
  H   H1307     1.0  0.65544  0.85985  0.56343  1.0000
  C   C1656     1.0  0.88800  0.95408  0.47986  1.0000
  H   H1308     1.0  0.92120  0.53847  0.54527  1.0000
  C   C1657     1.0  0.58345  0.79715  0.34187  1.0000
  C   C1658     1.0  0.50708  0.74889  0.44011  1.0000
  H   H1309     1.0  0.55648  0.80518  0.34294  1.0000
  H   H1310     1.0  0.61227  0.74833  0.54184  1.0000
  H   H1311     1.0  0.60253  0.83515  0.36102  1.0000
  H   H1312     1.0  0.84016  0.82069  0.43917  1.0000
  C   C1659     1.0  0.53269  0.88899  0.58547  1.0000
  H   H1313     1.0  0.50749  0.67651  0.53577  1.0000
  S   S231      1.0  0.82887  0.51586  0.60805  1.0000
  C   C1660     1.0  0.75379  0.77069  0.39647  1.0000
  C   C1661     1.0  0.70154  0.76162  0.37756  1.0000
  H   H1314     1.0  0.83689  0.98423  0.51622  1.0000
  H   H1315     1.0  0.61553  0.69626  0.52325  1.0000
  C   C1662     1.0  0.58609  0.81507  0.53216  1.0000
  H   H1316     1.0  0.50304  0.72888  0.55361  1.0000
  C   C1663     1.0  0.61107  0.82658  0.56351  1.0000
  H   H1317     1.0  0.60446  0.89108  0.61433  1.0000
  H   H1318     1.0  0.52954  0.66682  0.43994  1.0000
  C   C1664     1.0  0.65336  0.77590  0.33949  1.0000
  H   H1319     1.0  0.96530  0.95511  0.47358  1.0000
  C   C1665     1.0  0.49791  0.89909  0.66092  1.0000
  C   C1666     1.0  0.93280  0.84445  0.51960  1.0000
  H   H1320     1.0  0.53351  0.72214  0.38267  1.0000
  C   C1667     1.0  0.89890  0.84375  0.51215  1.0000
  C   C1668     1.0  0.52803  0.72209  0.54746  1.0000
  C   C1669     1.0  0.89355  0.58236  0.58148  1.0000
  H   H1321     1.0  0.95056  0.51989  0.48392  1.0000
  C   C1670     1.0  0.79245  0.84589  0.64536  1.0000
  C   C1671     1.0  0.72039  0.76711  0.36045  1.0000
  H   H1322     1.0  0.67405  0.75546  0.37713  1.0000
  C   C1672     1.0  0.94137  0.55561  0.54051  1.0000
  H   H1323     1.0  0.76651  0.77199  0.41041  1.0000
  C   C1673     1.0  0.95988  0.68787  0.64018  1.0000
  C   C1674     1.0  0.80103  0.81207  0.64502  1.0000
  H   H1324     1.0  0.60533  0.71453  0.61645  1.0000
  H   H1325     1.0  0.50501  0.70391  0.48976  1.0000
  C   C1675     1.0  0.63785  0.53900  0.39974  1.0000
  H   H1326     1.0  0.52535  0.85254  0.66592  1.0000
  P   P55       1.0  0.90184  0.91491  0.46951  1.0000
  C   C1676     1.0  0.91437  0.88701  0.48892  1.0000
  C   C1677     1.0  0.85369  0.98432  0.50361  1.0000
  H   H1327     1.0  0.93970  0.82906  0.53188  1.0000
  C   C1678     1.0  0.97591  0.55059  0.54634  1.0000
  C   C1679     1.0  0.59118  0.70333  0.53016  1.0000
  P   P56       1.0  0.55521  0.78120  0.56283  1.0000
  C   C1680     1.0  0.50128  0.72930  0.49457  1.0000
  C   C1681     1.0  0.94838  0.88740  0.49649  1.0000
  C   C1682     1.0  0.95749  0.86619  0.51173  1.0000
  P   P57       1.0  0.89430  0.69537  0.59373  1.0000
  C   C1683     1.0  0.51304  0.68882  0.43956  1.0000
  C   C1684     1.0  0.88963  0.86507  0.49699  1.0000
  H   H1328     1.0  0.94963  0.58622  0.58059  1.0000
  H   H1329     1.0  0.70662  0.69952  0.35793  1.0000
  C   C1685     1.0  0.65773  0.51839  0.43095  1.0000
  C   C1686     1.0  0.56463  0.78953  0.62141  1.0000
  H   H1330     1.0  0.61068  0.83942  0.50793  1.0000
  H   H1331     1.0  0.56328  0.66004  0.52025  1.0000
  H   H1332     1.0  0.82982  0.93796  0.46092  1.0000
  H   H1333     1.0  0.65507  0.86811  0.52795  1.0000
  H   H1334     1.0  0.98226  0.52974  0.55571  1.0000
  C   C1687     1.0  0.96400  0.74451  0.62838  1.0000
  C   C1688     1.0  0.60938  0.81400  0.35207  1.0000
  H   H1335     1.0  0.55647  0.72289  0.44113  1.0000
  H   H1336     1.0  0.65375  0.60350  0.43013  1.0000
  H   H1337     1.0  0.86047  0.93132  0.50393  1.0000
  C   C1689     1.0  0.69277  0.88103  0.37029  1.0000
  C   C1690     1.0  0.58417  0.74362  0.59300  1.0000
  H   H1338     1.0  0.96781  0.90466  0.49122  1.0000
  C   C1691     1.0  0.90154  0.71822  0.57143  1.0000
  C   C1692     1.0  0.95939  0.60372  0.52179  1.0000
  C   C1693     1.0  0.58911  0.73301  0.54062  1.0000
  C   C1694     1.0  0.80359  0.89618  0.44861  1.0000
  H   H1339     1.0  0.71352  0.64197  0.34639  1.0000
  H   H1340     1.0  0.52554  0.88942  0.57035  1.0000
  C   C1695     1.0  0.51873  0.78764  0.49320  1.0000
  H   H1341     1.0  0.86290  0.86483  0.49192  1.0000
  H   H1342     1.0  0.78824  0.85920  0.63192  1.0000
  H   H1343     1.0  0.77188  0.77747  0.34870  1.0000
  C   C1696     1.0  0.89384  0.65104  0.58909  1.0000
  C   C1697     1.0  0.57714  0.88986  0.61025  1.0000
  C   C1698     1.0  0.92523  0.59958  0.58241  1.0000
  H   H1344     1.0  0.51695  0.78163  0.38507  1.0000
  H   H1345     1.0  0.99182  0.59574  0.48660  1.0000
  H   H1346     1.0  0.55692  0.80722  0.63241  1.0000
  H   H1347     1.0  0.77067  0.84406  0.36025  1.0000
  H   H1348     1.0  0.88743  0.76643  0.58322  1.0000
  C   C1699     1.0  0.56788  0.89026  0.59075  1.0000
  H   H1349     1.0  0.59185  0.72545  0.58228  1.0000
  H   H1350     1.0  0.83735  0.64609  0.59025  1.0000
  H   H1351     1.0  0.62960  0.53412  0.38505  1.0000
  C   C1700     1.0  0.96750  0.50902  0.49473  1.0000
  H   H1352     1.0  0.78372  0.88896  0.66275  1.0000
  C   C1701     1.0  0.84630  0.69841  0.62403  1.0000
  H   H1353     1.0  0.80069  0.78094  0.38031  1.0000
  H   H1354     1.0  0.97337  0.76981  0.63007  1.0000
  H   H1355     1.0  0.55284  0.98241  0.39248  1.0000
  C   C1702     1.0  0.91561  0.71908  0.53715  1.0000
  C   C1703     1.0  0.80621  0.86310  0.44258  1.0000
  H   H1356     1.0  0.52114  0.83778  0.54252  1.0000
  C   C1704     1.0  0.86210  0.63359  0.58797  1.0000
  H   H1357     1.0  0.70345  0.75885  0.40859  1.0000
  C   C1705     1.0  0.51122  0.79782  0.56296  1.0000
  H   H1358     1.0  0.67159  0.88012  0.38073  1.0000
  C   C1706     1.0  0.89468  0.98432  0.47022  1.0000
  C   C1707     1.0  0.52823  0.72042  0.44023  1.0000
  H   H1359     1.0  0.77837  0.90859  0.44840  1.0000
  C   C1708     1.0  0.75639  0.77381  0.36156  1.0000
  H   H1360     1.0  0.65280  0.52183  0.48098  1.0000
  H   H1361     1.0  0.91770  0.85684  0.65970  1.0000
  C   C1709     1.0  0.97317  0.72011  0.64188  1.0000
  H   H1362     1.0  0.87933  0.82769  0.51861  1.0000
  H   H1363     1.0  0.52121  0.87437  0.45701  1.0000
  H   H1364     1.0  0.89330  0.55564  0.57915  1.0000
  H   H1365     1.0  0.97087  0.90236  0.40907  1.0000
  H   H1366     1.0  0.51930  0.77302  0.44128  1.0000
  C   C1710     1.0  0.91156  0.70150  0.55449  1.0000
  H   H1367     1.0  0.95256  0.62448  0.51250  1.0000
  C   C1711     1.0  0.74846  0.86061  0.35873  1.0000
  H   H1368     1.0  0.80932  0.70006  0.64746  1.0000
  C   C1712     1.0  0.82689  0.72303  0.59391  1.0000
  H   H1369     1.0  0.68680  0.53593  0.51011  1.0000
  C   C1713     1.0  0.93305  0.58229  0.52834  1.0000
  P   P58       1.0  0.69872  0.76360  0.33735  1.0000
  H   H1370     1.0  0.89210  0.84925  0.45228  1.0000
  C   C1714     1.0  0.73426  0.51320  0.49983  1.0000
  C   C1715     1.0  0.96641  0.99455  0.50852  1.0000
  H   H1371     1.0  0.76433  0.73059  0.62869  1.0000
  H   H1372     1.0  0.95015  0.64685  0.58676  1.0000
  H   H1373     1.0  0.81567  0.76918  0.66190  1.0000
  C   C1716     1.0  0.64638  0.51245  0.41199  1.0000
  C   C1717     1.0  0.93700  0.68013  0.62517  1.0000
  H   H1374     1.0  0.59066  0.96072  0.34419  1.0000
  H   H1375     1.0  0.86548  0.68500  0.63255  1.0000
  C   C1718     1.0  0.79021  0.86274  0.66296  1.0000
  C   C1719     1.0  0.92541  0.63384  0.58605  1.0000
  H   H1376     1.0  0.77536  0.74481  0.59430  1.0000
  C   C1720     1.0  0.71817  0.76343  0.39546  1.0000
  C   C1721     1.0  0.96623  0.94315  0.45962  1.0000
  C   C1722     1.0  0.79517  0.73187  0.60261  1.0000
  H   H1377     1.0  0.93396  0.75648  0.60343  1.0000
  H   H1378     1.0  0.70166  0.96824  0.35975  1.0000
  H   H1379     1.0  0.90621  0.58613  0.52389  1.0000
  C   C1723     1.0  0.92745  0.70452  0.61154  1.0000
  C   C1724     1.0  0.90997  0.75350  0.53657  1.0000
  H   H1380     1.0  0.61210  0.82291  0.57896  1.0000
  H   H1381     1.0  0.55899  0.88888  0.63950  1.0000
  C   C1725     1.0  0.61071  0.83607  0.52349  1.0000
  C   C1726     1.0  0.89588  0.75283  0.57062  1.0000
  C   C1727     1.0  0.64034  0.57177  0.40632  1.0000
  C   C1728     1.0  0.86711  0.95430  0.49654  1.0000
  H   H1382     1.0  0.91590  0.67486  0.55446  1.0000
  H   H1383     1.0  0.98339  0.86779  0.51797  1.0000
  C   C1729     1.0  0.90015  0.77036  0.55333  1.0000
  C   C1730     1.0  0.65159  0.57801  0.42512  1.0000
  C   C1731     1.0  0.50669  0.88757  0.59968  1.0000
  H   H1384     1.0  0.58797  0.89187  0.57972  1.0000
  C   C1732     1.0  0.86771  0.86284  0.45088  1.0000
  H   H1385     1.0  0.74882  0.51826  0.51291  1.0000
  C   C1733     1.0  0.51574  0.88746  0.61933  1.0000
  C   C1734     1.0  0.98732  0.96911  0.51617  1.0000
  C   C1735     1.0  0.86205  0.59936  0.58424  1.0000
  H   H1386     1.0  0.63373  0.59231  0.39678  1.0000
  H   H1387     1.0  0.83761  0.58565  0.58402  1.0000
  C   C1736     1.0  0.78895  0.72388  0.62196  1.0000
  C   C1737     1.0  0.58204  0.76019  0.62660  1.0000
  H   H1388     1.0  0.54360  0.96755  0.42686  1.0000
  C   C1738     1.0  0.55700  0.79595  0.60203  1.0000
  C   C1739     1.0  0.71313  0.98624  0.35007  1.0000
  H   H1389     1.0  0.91292  0.76704  0.52311  1.0000
  C   C1740     1.0  0.63576  0.84756  0.55477  1.0000
  H   H1390     1.0  0.66922  0.92041  0.35382  1.0000
  H   H1391     1.0  0.92304  0.70594  0.52413  1.0000
  H   H1392     1.0  0.83075  0.72883  0.57880  1.0000
  C   C1741     1.0  0.81437  0.70689  0.63258  1.0000
  H   H1393     1.0  0.98981  0.72640  0.65396  1.0000
  C   C1742     1.0  0.66037  0.55148  0.43740  1.0000
  H   H1394     1.0  0.90209  0.53343  0.61664  1.0000
  H   H1395     1.0  0.92572  0.65540  0.62480  1.0000
  C   C1743     1.0  0.94084  0.90745  0.43532  1.0000
  C   C1744     1.0  0.94139  0.73676  0.61322  1.0000
  H   H1396     1.0  0.56743  0.80218  0.52316  1.0000
  H   H1397     1.0  0.80338  0.79924  0.63135  1.0000
  C   C1745     1.0  0.56651  0.77295  0.58769  1.0000
  C   C1746     1.0  0.50895  0.86206  0.44489  1.0000
  C   C1747     1.0  0.80793  0.79514  0.66224  1.0000
  H   H1398     1.0  0.51063  0.86141  0.39591  1.0000
  C   C1748     1.0  0.59187  0.73731  0.61241  1.0000
  H   H1399     1.0  0.82443  0.61152  0.65227  1.0000
  C   C1749     1.0  0.83295  0.91268  0.45582  1.0000
  C   C1750     1.0  0.53039  0.69218  0.53725  1.0000
  C   C1751     1.0  0.69928  0.52290  0.49828  1.0000
  H   H1400     1.0  0.72215  0.84192  0.38413  1.0000
  C   C1752     1.0  0.71021  0.66209  0.33608  1.0000
  H   H1401     1.0  0.58789  0.75513  0.64163  1.0000
  C   C1753     1.0  0.56182  0.68292  0.52847  1.0000
  H   H1402     1.0  0.90948  0.98488  0.45690  1.0000
  C   C1754     1.0  0.99436  0.59814  0.52707  1.0000
  H   H1403     1.0  0.96609  0.66909  0.65094  1.0000
  C   C1755     1.0  0.54583  0.99351  0.42264  1.0000
  H   H1404     1.0  0.53683  0.89085  0.42353  1.0000
  H   H1405     1.0  0.78302  0.85014  0.43768  1.0000
  C   C1756     1.0  0.55120  0.88855  0.62451  1.0000
  C   C1757     1.0  0.50298  0.85454  0.41046  1.0000
  C   C1758     1.0  0.69164  0.90396  0.35505  1.0000
  C   C1759     1.0  0.83832  0.84651  0.44355  1.0000
  C   C1760     1.0  0.72124  0.85947  0.37219  1.0000
  S   S232      1.0  0.61142  0.66446  0.34140  1.0000
  C   C1761     1.0  0.74735  0.88338  0.34340  1.0000
  H   H1406     1.0  0.51552  0.68899  0.35457  1.0000
  H   H1407     1.0  0.99607  0.60470  0.45165  1.0000
  C   C1762     1.0  0.64418  0.80349  0.35088  1.0000
  H   H1408     1.0  0.66390  0.81690  0.35886  1.0000
  C   C1763     1.0  0.70635  0.69485  0.34256  1.0000
  H   H1409     1.0  0.99473  0.74484  0.53175  1.0000
  H   H1410     1.0  0.97638  0.99984  0.55838  1.0000
  H   H1411     1.0  0.73157  0.77263  0.85447  1.0000
  H   H1412     1.0  0.52318  0.74155  0.82122  1.0000
  Fe  Fe117     1.0  0.84378  0.70517  0.71648  1.0000
  S   S233      1.0  0.88935  0.73833  0.72321  1.0000
  S   S234      1.0  0.79060  0.70705  0.73199  1.0000
  C   C1764     1.0  0.82620  0.78493  0.89492  1.0000
  Fe  Fe118     1.0  0.92238  0.69170  0.72114  1.0000
  S   S235      1.0  0.97116  0.68312  0.73956  1.0000
  C   C1765     1.0  0.51495  0.74700  0.80668  1.0000
  S   S236      1.0  0.87663  0.65790  0.71657  1.0000
  Fe  Fe119     1.0  0.55029  0.55970  0.95055  1.0000
  S   S237      1.0  0.59722  0.52578  0.94837  1.0000
  P   P59       1.0  0.51614  0.90915  0.93325  1.0000
  Fe  Fe120     1.0  0.58761  0.61647  0.92822  1.0000
  S   S238      1.0  0.63667  0.58609  0.92476  1.0000
  S   S239      1.0  0.58575  0.67188  0.92000  1.0000
  Fe  Fe121     1.0  0.60081  0.54311  0.91749  1.0000
  C   C1766     1.0  0.69488  0.63352  0.98394  1.0000
  Fe  Fe122     1.0  0.62904  0.57168  0.95584  1.0000
  S   S240      1.0  0.67330  0.56791  0.97809  1.0000
  S   S241      1.0  0.55214  0.57473  0.91902  1.0000
  S   S242      1.0  0.58167  0.60413  0.95991  1.0000
  Fe  Fe123     1.0  0.66204  0.81838  0.79893  1.0000
  S   S243      1.0  0.62015  0.78237  0.79050  1.0000
  S   S244      1.0  0.71838  0.81598  0.78717  1.0000
  Fe  Fe124     1.0  0.61217  0.85659  0.82629  1.0000
  S   S245      1.0  0.56794  0.82136  0.81974  1.0000
  S   S246      1.0  0.59256  0.90065  0.84442  1.0000
  Fe  Fe125     1.0  0.60743  0.78039  0.82226  1.0000
  S   S247      1.0  0.59429  0.72875  0.83400  1.0000
  Fe  Fe126     1.0  0.58385  0.82683  0.78869  1.0000
  S   S248      1.0  0.54323  0.82907  0.76428  1.0000
  S   S249      1.0  0.65101  0.81472  0.83107  1.0000
  S   S250      1.0  0.62676  0.86344  0.79487  1.0000
  C   C1767     1.0  0.50945  0.94732  0.91991  1.0000
  C   C1768     1.0  0.71047  0.64808  0.93093  1.0000
  H   H1413     1.0  0.54379  0.86706  0.69902  1.0000
  H   H1414     1.0  0.91047  0.82641  0.74940  1.0000
  Fe  Fe127     1.0  0.88419  0.66724  0.68460  1.0000
  H   H1415     1.0  0.88293  0.75293  0.98689  1.0000
  H   H1416     1.0  0.67402  0.68670  0.87476  1.0000
  C   C1769     1.0  0.58971  0.68727  0.89603  1.0000
  C   C1770     1.0  0.59573  0.72152  0.89287  1.0000
  C   C1771     1.0  0.59825  0.73460  0.87398  1.0000
  C   C1772     1.0  0.59366  0.71368  0.85809  1.0000
  C   C1773     1.0  0.58771  0.67953  0.86127  1.0000
  C   C1774     1.0  0.58613  0.66631  0.88010  1.0000
  H   H1417     1.0  0.59861  0.73797  0.90509  1.0000
  H   H1418     1.0  0.60313  0.76083  0.87169  1.0000
  H   H1419     1.0  0.58426  0.66314  0.84907  1.0000
  H   H1420     1.0  0.58149  0.63996  0.88230  1.0000
  C   C1775     1.0  0.63315  0.96118  0.89618  1.0000
  C   C1776     1.0  0.60102  0.96878  0.88761  1.0000
  C   C1777     1.0  0.58918  0.95002  0.87174  1.0000
  C   C1778     1.0  0.60912  0.92337  0.86435  1.0000
  C   C1779     1.0  0.64099  0.91550  0.87310  1.0000
  C   C1780     1.0  0.65291  0.93437  0.88890  1.0000
  H   H1421     1.0  0.80585  0.81687  0.91723  1.0000
  H   H1422     1.0  0.56443  0.95625  0.86511  1.0000
  H   H1423     1.0  0.65661  0.89514  0.86758  1.0000
  C   C1781     1.0  0.94010  0.70375  0.89411  1.0000
  H   H1424     1.0  0.65577  0.65941  0.93426  1.0000
  C   C1782     1.0  0.60790  0.92426  0.97531  1.0000
  H   H1425     1.0  0.57567  0.89951  0.99647  1.0000
  H   H1426     1.0  0.71611  0.75838  0.82095  1.0000
  H   H1427     1.0  0.54011  0.90156  0.77057  1.0000
  C   C1783     1.0  0.51476  0.86122  0.75588  1.0000
  H   H1428     1.0  0.93729  0.62119  0.75294  1.0000
  C   C1784     1.0  0.77091  0.73834  0.74684  1.0000
  C   C1785     1.0  0.78863  0.76722  0.75249  1.0000
  C   C1786     1.0  0.77224  0.79049  0.76488  1.0000
  C   C1787     1.0  0.73777  0.78563  0.77157  1.0000
  C   C1788     1.0  0.71997  0.75693  0.76578  1.0000
  C   C1789     1.0  0.73650  0.73346  0.75359  1.0000
  H   H1429     1.0  0.81511  0.77140  0.74752  1.0000
  H   H1430     1.0  0.78631  0.81245  0.76935  1.0000
  H   H1431     1.0  0.69353  0.75267  0.77077  1.0000
  H   H1432     1.0  0.72248  0.71125  0.74940  1.0000
  C   C1790     1.0  0.71449  0.65822  0.99348  1.0000
  H   H1433     1.0  0.74177  0.91793  0.69396  1.0000
  C   C1791     1.0  0.96329  0.62239  0.75900  1.0000
  H   H1434     1.0  0.51179  0.89550  0.80201  1.0000
  S   S251      1.0  0.90960  0.79321  0.67829  1.0000
  H   H1435     1.0  0.80477  0.59803  0.74807  1.0000
  H   H1436     1.0  0.52969  0.78942  0.91760  1.0000
  H   H1437     1.0  0.91313  0.53525  0.75225  1.0000
  C   C1792     1.0  0.92289  0.50800  0.67744  1.0000
  H   H1438     1.0  0.53001  0.51830  0.88117  1.0000
  P   P60       1.0  0.95700  0.73706  0.79825  1.0000
  C   C1793     1.0  0.96230  0.77098  0.81510  1.0000
  C   C1794     1.0  0.91106  0.72952  0.79375  1.0000
  C   C1795     1.0  0.88508  0.74400  0.80542  1.0000
  C   C1796     1.0  0.84966  0.73968  0.80098  1.0000
  C   C1797     1.0  0.83995  0.72087  0.78493  1.0000
  C   C1798     1.0  0.86559  0.70633  0.77330  1.0000
  C   C1799     1.0  0.90097  0.71057  0.77768  1.0000
  C   C1800     1.0  0.50179  0.74215  0.87082  1.0000
  C   C1801     1.0  0.96428  0.54292  0.72173  1.0000
  C   C1802     1.0  0.97052  0.82334  0.84151  1.0000
  C   C1803     1.0  0.99486  0.64996  0.98886  1.0000
  H   H1439     1.0  0.95755  0.73961  0.84049  1.0000
  H   H1440     1.0  0.61897  0.66504  0.97897  1.0000
  H   H1441     1.0  0.94822  0.51461  0.68318  1.0000
  H   H1442     1.0  0.80719  0.61578  0.68698  1.0000
  H   H1443     1.0  0.67779  0.92830  0.89544  1.0000
  H   H1444     1.0  0.85609  0.57617  0.68359  1.0000
  C   C1804     1.0  0.96223  0.66873  0.80663  1.0000
  H   H1445     1.0  0.51966  0.77752  0.84973  1.0000
  C   C1805     1.0  0.51281  0.97807  0.92933  1.0000
  H   H1446     1.0  0.80149  0.65081  0.98684  1.0000
  H   H1447     1.0  0.96738  0.80945  0.79322  1.0000
  H   H1448     1.0  0.93110  0.77363  0.76449  1.0000
  H   H1449     1.0  0.89197  0.75899  0.81776  1.0000
  H   H1450     1.0  0.82960  0.75121  0.80980  1.0000
  H   H1451     1.0  0.81254  0.71777  0.78136  1.0000
  H   H1452     1.0  0.85795  0.69209  0.76071  1.0000
  H   H1453     1.0  0.92049  0.69938  0.76837  1.0000
  S   S252      1.0  0.65024  0.98460  0.91569  1.0000
  C   C1806     1.0  0.96749  0.60852  0.70818  1.0000
  H   H1454     1.0  0.89987  0.99234  0.77584  1.0000
  H   H1455     1.0  0.53454  0.52498  0.99756  1.0000
  H   H1456     1.0  0.95772  0.78758  0.73301  1.0000
  H   H1457     1.0  0.89975  0.69744  0.99893  1.0000
  H   H1458     1.0  0.56584  0.52597  0.85186  1.0000
  H   H1459     1.0  0.75231  0.90365  0.73158  1.0000
  H   H1460     1.0  0.90052  0.74189  0.89245  1.0000
  H   H1461     1.0  0.93810  0.66536  0.79881  1.0000
  C   C1807     1.0  0.97299  0.77476  0.74391  1.0000
  C   C1808     1.0  0.97694  0.74801  0.77541  1.0000
  H   H1462     1.0  0.52090  0.97927  0.94431  1.0000
  H   H1463     1.0  0.59645  0.52015  0.99025  1.0000
  H   H1464     1.0  0.91812  0.85197  0.97515  1.0000
  C   C1809     1.0  0.69716  0.60017  0.98978  1.0000
  H   H1465     1.0  0.96403  0.77026  0.94453  1.0000
  C   C1810     1.0  0.91595  0.72621  0.90191  1.0000
  H   H1466     1.0  0.62942  0.92834  0.98517  1.0000
  C   C1811     1.0  0.80140  0.98015  0.68918  1.0000
  H   H1467     1.0  0.55820  0.79997  0.88598  1.0000
  H   H1468     1.0  0.89294  0.74599  0.92780  1.0000
  H   H1469     1.0  0.65927  0.67292  0.84121  1.0000
  H   H1470     1.0  0.56974  0.70435  0.98361  1.0000
  C   C1812     1.0  0.96595  0.69463  0.97112  1.0000
  C   C1813     1.0  0.90337  0.51061  0.74885  1.0000
  C   C1814     1.0  0.50508  0.89299  0.83278  1.0000
  C   C1815     1.0  0.53409  0.81482  0.91278  1.0000
  C   C1816     1.0  0.79748  0.91195  0.69849  1.0000
  C   C1817     1.0  0.93672  0.59016  0.70610  1.0000
  C   C1818     1.0  0.79706  0.84589  0.68038  1.0000
  C   C1819     1.0  0.58249  0.93073  0.94354  1.0000
  C   C1820     1.0  0.54979  0.90306  0.96895  1.0000
  H   H1471     1.0  0.80311  0.85588  0.74503  1.0000
  H   H1472     1.0  0.78166  0.62725  0.71924  1.0000
  H   H1473     1.0  0.85396  0.91480  0.70068  1.0000
  P   P61       1.0  0.79512  0.86758  0.70322  1.0000
  C   C1821     1.0  0.54150  0.51219  0.85100  1.0000
  C   C1822     1.0  0.94549  0.77912  0.95516  1.0000
  C   C1823     1.0  0.52392  0.84165  0.92440  1.0000
  H   H1474     1.0  0.70212  0.79041  0.72506  1.0000
  H   H1475     1.0  0.54042  0.72976  0.76073  1.0000
  C   C1824     1.0  0.84325  0.56988  0.73211  1.0000
  C   C1825     1.0  0.52484  0.73973  0.77244  1.0000
  H   H1476     1.0  0.94346  0.70197  0.87862  1.0000
  H   H1477     1.0  0.76520  0.64260  0.92461  1.0000
  C   C1826     1.0  0.84462  0.58007  0.69768  1.0000
  C   C1827     1.0  0.88794  0.69136  0.96852  1.0000
  H   H1478     1.0  0.81275  0.79859  0.69299  1.0000
  C   C1828     1.0  0.53420  0.73313  0.79153  1.0000
  C   C1829     1.0  0.61044  0.93523  0.95621  1.0000
  H   H1479     1.0  0.75242  0.80639  0.70504  1.0000
  H   H1480     1.0  0.97885  0.66612  0.90034  1.0000
  C   C1830     1.0  0.74331  0.68584  0.91043  1.0000
  H   H1481     1.0  0.57025  0.85789  0.87541  1.0000
  H   H1482     1.0  0.83562  0.51077  0.68766  1.0000
  C   C1831     1.0  0.91173  0.72846  0.92193  1.0000
  H   H1483     1.0  0.63399  0.94764  0.95123  1.0000
  S   S253      1.0  0.84783  0.71176  0.68404  1.0000
  C   C1832     1.0  0.52949  0.87460  0.91818  1.0000
  H   H1484     1.0  0.62000  0.84313  0.91662  1.0000
  C   C1833     1.0  0.93178  0.70830  0.93432  1.0000
  C   C1834     1.0  0.65266  0.80191  0.92541  1.0000
  H   H1485     1.0  0.54311  0.98620  0.98981  1.0000
  C   C1835     1.0  0.81565  0.59264  0.73397  1.0000
  C   C1836     1.0  0.86325  0.67919  0.95531  1.0000
  C   C1837     1.0  0.95997  0.68347  0.90633  1.0000
  H   H1486     1.0  0.87925  0.81275  0.99280  1.0000
  Fe  Fe128     1.0  0.89524  0.74249  0.69087  1.0000
  H   H1487     1.0  0.85290  0.83761  0.76473  1.0000
  C   C1838     1.0  0.80000  0.79717  0.90708  1.0000
  C   C1839     1.0  0.96576  0.79076  0.84818  1.0000
  C   C1840     1.0  0.96431  0.66480  0.98181  1.0000
  C   C1841     1.0  0.66782  0.79456  0.88619  1.0000
  H   H1488     1.0  0.67321  0.79229  0.87095  1.0000
  C   C1842     1.0  0.76613  0.78417  0.90614  1.0000
  C   C1843     1.0  0.95579  0.68560  0.92634  1.0000
  C   C1844     1.0  0.89749  0.80345  0.98211  1.0000
  C   C1845     1.0  0.85623  0.84086  0.74931  1.0000
  C   C1846     1.0  0.93456  0.55748  0.71323  1.0000
  C   C1847     1.0  0.54739  0.88018  0.90075  1.0000
  H   H1489     1.0  0.81320  0.65518  0.95176  1.0000
  C   C1848     1.0  0.51900  0.91517  0.69855  1.0000
  C   C1849     1.0  0.88858  0.83440  0.74068  1.0000
  H   H1490     1.0  0.65753  0.70871  0.91312  1.0000
  H   H1491     1.0  0.83880  0.75000  0.87237  1.0000
  C   C1850     1.0  0.97561  0.59653  0.77112  1.0000
  H   H1492     1.0  0.91466  0.60160  0.69897  1.0000
  H   H1493     1.0  0.58489  0.93972  0.92883  1.0000
  C   C1851     1.0  0.55025  0.82070  0.89499  1.0000
  H   H1494     1.0  0.96033  0.83049  0.95110  1.0000
  C   C1852     1.0  0.68144  0.69500  0.91572  1.0000
  C   C1853     1.0  0.60327  0.66373  0.99199  1.0000
  C   C1854     1.0  0.82791  0.85113  0.73802  1.0000
  H   H1495     1.0  0.55417  0.90516  0.89619  1.0000
  C   C1855     1.0  0.67566  0.77684  0.91934  1.0000
  C   C1856     1.0  0.88119  0.68823  0.98840  1.0000
  H   H1496     1.0  0.86764  0.68102  0.93994  1.0000
  S   S254      1.0  0.93184  0.69904  0.68946  1.0000
  C   C1857     1.0  0.74195  0.65750  0.92226  1.0000
  H   H1497     1.0  0.96865  0.63406  0.70309  1.0000
  H   H1498     1.0  0.52644  0.92112  0.71323  1.0000
  C   C1858     1.0  0.51828  0.87663  0.67176  1.0000
  C   C1859     1.0  0.52877  0.88469  0.69049  1.0000
  C   C1860     1.0  0.55178  0.91498  0.94989  1.0000
  H   H1499     1.0  0.85313  0.55785  0.74495  1.0000
  C   C1861     1.0  0.82567  0.66185  0.98169  1.0000
  C   C1862     1.0  0.81687  0.60260  0.69955  1.0000
  C   C1863     1.0  0.85795  0.56332  0.71390  1.0000
  C   C1864     1.0  0.68028  0.66689  0.92768  1.0000
  C   C1865     1.0  0.98486  0.64954  0.75462  1.0000
  C   C1866     1.0  0.97096  0.82988  0.82168  1.0000
  C   C1867     1.0  0.91929  0.82552  0.97217  1.0000
  C   C1868     1.0  0.52128  0.50778  0.86760  1.0000
  C   C1869     1.0  0.82996  0.92825  0.69790  1.0000
  H   H1500     1.0  0.70929  0.62600  0.94001  1.0000
  C   C1870     1.0  0.51895  0.89463  0.76108  1.0000
  H   H1501     1.0  0.63360  0.83660  0.88181  1.0000
  C   C1871     1.0  0.95794  0.76651  0.76170  1.0000
  C   C1872     1.0  0.83229  0.66444  0.96192  1.0000
  C   C1873     1.0  0.76701  0.93012  0.69415  1.0000
  H   H1502     1.0  0.67987  0.70863  0.81428  1.0000
  C   C1874     1.0  0.89992  0.76917  0.97876  1.0000
  C   C1875     1.0  0.68333  0.77285  0.89964  1.0000
  H   H1503     1.0  0.68766  0.76080  0.93006  1.0000
  H   H1504     1.0  0.95877  0.57565  0.77443  1.0000
  C   C1876     1.0  0.64512  0.81978  0.89231  1.0000
  C   C1877     1.0  0.75818  0.75882  0.89296  1.0000
  C   C1878     1.0  0.83184  0.96220  0.69328  1.0000
  H   H1505     1.0  0.77936  0.72655  0.87079  1.0000
  P   P62       1.0  0.92711  0.71238  0.96022  1.0000
  C   C1879     1.0  0.83168  0.85472  0.71794  1.0000
  C   C1880     1.0  0.85970  0.50589  0.67991  1.0000
  C   C1881     1.0  0.57762  0.90808  0.98166  1.0000
  H   H1506     1.0  0.52636  0.74176  0.87853  1.0000
  H   H1507     1.0  0.76793  0.69243  0.90380  1.0000
  C   C1882     1.0  0.92417  0.75660  0.96532  1.0000
  C   C1883     1.0  0.55705  0.85335  0.88904  1.0000
  H   H1508     1.0  0.64679  0.80479  0.94062  1.0000
  H   H1509     1.0  0.55693  0.71785  0.79469  1.0000
  C   C1884     1.0  0.80633  0.81199  0.67984  1.0000
  C   C1885     1.0  0.71306  0.70502  0.90716  1.0000
  H   H1510     1.0  0.51186  0.83667  0.93828  1.0000
  H   H1511     1.0  0.74629  0.79402  0.91572  1.0000
  C   C1886     1.0  0.94311  0.81338  0.95862  1.0000
  C   C1887     1.0  0.81859  0.75952  0.88184  1.0000
  H   H1512     1.0  0.93971  0.65252  0.98462  1.0000
  H   H1513     1.0  0.85233  0.79524  0.89560  1.0000
  C   C1888     1.0  0.89212  0.51512  0.68775  1.0000
  C   C1889     1.0  0.63751  0.82346  0.91191  1.0000
  C   C1890     1.0  0.71206  0.86998  0.74070  1.0000
  C   C1891     1.0  0.69782  0.83813  0.73891  1.0000
  C   C1892     1.0  0.71232  0.81555  0.72584  1.0000
  C   C1893     1.0  0.74099  0.82482  0.71448  1.0000
  C   C1894     1.0  0.75524  0.85698  0.71595  1.0000
  C   C1895     1.0  0.74077  0.87935  0.72937  1.0000
  C   C1896     1.0  0.89258  0.83805  0.72075  1.0000
  C   C1897     1.0  0.86427  0.84811  0.70940  1.0000
  H   H1514     1.0  0.70147  0.88693  0.75137  1.0000
  H   H1515     1.0  0.67637  0.83051  0.74819  1.0000
  H   H1516     1.0  0.99327  0.62729  0.99735  1.0000
  H   H1517     1.0  0.67806  0.64026  0.97204  1.0000
  C   C1898     1.0  0.78476  0.74642  0.88090  1.0000
  H   H1518     1.0  0.91746  0.83256  0.71392  1.0000
  H   H1519     1.0  0.86783  0.85044  0.69392  1.0000
  C   C1899     1.0  0.67604  0.69404  0.84416  1.0000
  C   C1900     1.0  0.68757  0.71423  0.82896  1.0000
  C   C1901     1.0  0.70792  0.74230  0.83276  1.0000
  C   C1902     1.0  0.71664  0.75023  0.85178  1.0000
  C   C1903     1.0  0.70517  0.73001  0.86717  1.0000
  C   C1904     1.0  0.68446  0.70202  0.86322  1.0000
  P   P63       1.0  0.71454  0.74165  0.89181  1.0000
  H   H1520     1.0  0.51681  0.91719  0.83523  1.0000
  C   C1905     1.0  0.80246  0.60899  0.71771  1.0000
  H   H1521     1.0  0.52683  0.89003  0.97410  1.0000
  C   C1906     1.0  0.97780  0.70026  0.80828  1.0000
  P   P64       1.0  0.89412  0.53441  0.71128  1.0000
  C   C1907     1.0  0.85010  0.67373  0.99490  1.0000
  H   H1522     1.0  0.71254  0.68389  0.98877  1.0000
  H   H1523     1.0  0.85698  0.97460  0.69260  1.0000
  H   H1524     1.0  0.96657  0.61626  0.81315  1.0000
  H   H1525     1.0  0.58548  0.98925  0.89307  1.0000
  C   C1908     1.0  0.96145  0.76469  0.83506  1.0000
  H   H1526     1.0  0.96546  0.78573  0.86354  1.0000
  C   C1909     1.0  0.50717  0.52007  0.99987  1.0000
  C   C1910     1.0  0.49779  0.76237  0.85450  1.0000
  H   H1527     1.0  0.50870  0.50336  0.77896  1.0000
  H   H1528     1.0  0.97162  0.66964  0.93545  1.0000
  C   C1911     1.0  0.96693  0.80383  0.80850  1.0000
  S   S255      1.0  0.61507  0.51214  0.89082  1.0000
  C   C1912     1.0  0.76900  0.96411  0.68962  1.0000
  C   C1913     1.0  0.97822  0.64070  0.81484  1.0000
  C   C1914     1.0  0.51595  0.98867  0.99398  1.0000
  H   H1529     1.0  0.56044  0.50515  0.75773  1.0000
  H   H1530     1.0  0.74547  0.97802  0.68624  1.0000
  H   H1531     1.0  0.96383  0.51740  0.72683  1.0000
  H   H1532     1.0  0.54756  0.50151  0.82102  1.0000
  C   C1915     1.0  0.89217  0.50303  0.73006  1.0000
  H   H1533     1.0  0.97447  0.85519  0.81651  1.0000
  C   C1916     1.0  0.49874  0.93762  0.68791  1.0000
  C   C1917     1.0  0.50245  0.88067  0.81403  1.0000
  C   C1918     1.0  0.57550  0.68590  0.99462  1.0000
  H   H1534     1.0  0.97397  0.84352  0.85171  1.0000
  H   H1535     1.0  0.50012  0.94510  0.75749  1.0000
  C   C1919     1.0  0.99496  0.56144  0.72394  1.0000
  C   C1920     1.0  0.49690  0.94672  0.90088  1.0000
  H   H1536     1.0  0.49648  0.88305  0.86291  1.0000
  S   S256      1.0  0.49644  0.54530  0.96275  1.0000
