data_image0
_chemical_formula_structural       FeS2FeS2FeSFeS3FeS2FeS2FeSFeS3FeS2FeSHFeSFeS3C3HC7H4C4HCHC2HC4H2CHCH2CHC2HC6H8C2HC6H6C2HC3HCHCH2CHC3H2CHC4HC5HC3H4CHPHCH3PCH3C6PHC4H4C4HCHC4HC2H2CHC5HCH4C2H3C7HCH3CHC4H3CH6C5HCH5CHCHCSC2H2C2HPHC5HCHC3HC2H3CH2C4H5C6PC18H18C2HCH10CHC2HCHC2HPC2HCHCHFeS2FeS2FeSFeS3FeSCFeS2FeSFeS3FeS2FeS2Fe2S3C3H5CH2C3HCH3C6H4C2HCH6C6H4CHCHPSCHC3H2C2HC7PC3H3C9HCH3CH3C2H9C3HCHC5HCHCHC6HCH2C4H2C3H3C2H3CHCHP2C2H2CHCH2C3HC2HC3SCHC3H3CH2CHC4H2C2H4PHCHCH4C2HC3H3CH3C2HC4H2C3HC9HCH2C2H2C2H2CH2CH2CH2CHC3HCHCH3C2HCH3CHCH2C2H6CHFeS2FeS2FeSFeS3FeS2FeS2FeSFeS3CFeS2FeS2FeSFeHS2CH4C3H2CHC6H4C6H6CPHC4HC6H4C5H3CHC2HCH2C4H2CHCH4C2HCH4C2H2C2HCH3CHCPHPCHC2H2C2PHCHCHC5HC4HC2HCH2CH2C4HC2H3CHC2PC4H2CH5CH2C2HC6H6C9H2CHC4H2CH2C3H2C2HC6HC2H2CHC2HCH2C4H2CHC2H3PC2HC6H4C2HCHC3H2CH2C8H2CHCH4C2HCHCHC2HC2HCH2C2HC5HCH2C2HC3SC3HPHCH4C2H2C3H2C2H3C3HC3SH6CH2CHC3FeS2FeS2Fe2S3FeS2FeS2FeCFeS3FeS2FeS2FeSFeS3C3H2CHCHCHC2HC3HC2H4CHC6H4C3H2C6H4C5HCH3CH2PH3PC2H4C3H5C4SHCH2CH2C9HC5H3C2H5C4PCH2CH5CH5CHCHC5H4CH4C2HCH2C5HC3HC7HC3HCH4CH5C2H2C6PC18H13CH6C2HCHC2HCH3C3H2C4H3CH4C3H2CHCFeS2FeS2FeSFeS3FeS2FeS2FeSFeS3FeCHFeS2Fe2S3HC2H2C2HCHC6H4C4H2C3H3C7H4C2SHCH2C3HCHCHC3H2CHCH2CH4C3H2C2HCH3CH3C2H3C3H2CHC2H2C3HCH4CHC3HCPC2H2C4HC6H3CH2C3H3C3H5CH2CHC5SH2C2PHPC7HC5HC3H4C2HC3HCH2C2H3CHCHC2H3C4HC6HC2H4CH2C3H3C2HPH2C2FeS2FeS2FeSFeS3FeS2FeS2FeSFeS3H2FeS2FeS2FeSFeS3HC6H3C8H4C3HCH4C3HCH3C6H6C3HCH2C2HSHC2PH2CH2C3H2C6HC2H2CH3C2HC2HCPH2CH2CH2CH2CHC7PHC6H3CH7C3H3C9H3C3HCHCHC2PHCH3CH4C5H2CH2C2H5CH3CPH2C4HC4H2C2HCH3C7H4C6PHC7H2C2H6CHCH4C3H2CHCHC2PC12H3CH6CH3PCH2CHC13H2CHCH4C3HC4HC7HC7HCPCH5CH2C2HFeSHFeS2FeSFeS3FeS2FeS2FeSFeS3FeS2FeS2CFeS3C3H2CHSC3H2C2HCH2C6H4C6H4C2H4CH2C4HCH3C8FeCHCHCH3C3HCHC2H3C3H2PC14H7CHC2H2C2H3CH5C2HC3H5C2HC3HCH2C2HCHCH4C6H2CHC2HC4H2CHC9PHC10H3CH3CHCHCH2CH4CPCHCHCHC8H2CH2C2H6CHC2H2CHCH3C4PH2C2H2C2H3PC6H4CPHCH2CH3C6HC3H2C5H2CHCHCH4CHCFeS2FeS2FeSFeS2FeS2FeS2FeSFeS3FeS2FeS2FeSFeS3C3HCHCH3C6HCH2C3H2C6H4C6H3C4H2C6H5C3H3C4HC8H2C3H4CH3C4HCH4CH2CHCHCSHCHC3HCH2CHC2H10CHCH2C3HC2H2CHC4H4CHC4H3C3HCH4CHCH3C2HCH3C2H3C3H2C3H3CPC2PHC16H2CH3CH5CH4CHCPH2C4HC2H3C9HC2H4CHC3SC4PC2H2C2HC3PHCH2CH3C3H2C2H3CHCHC2HC5H3PC4HC2HC2HC2H5C4HC3HC4H2CFeS2FeS2FeSFeS3FeS2FeS2FeSFeS3FeSCFeS2FeSFeCS2HCH4C2HC2H2C2HC8H4C2HC7H4C4HC2H2PC3HPC3H3C8H2CH2PH3CH3SCHCH2C3PC2HCH3C2PHC2HCHC3HC2HPCHCHC2HC3HC2H2CH2CHC4HCPHC2HCH2C3HC2HCHCHCH6C11H2CH6C2H3C2HC2H2C4HCH3C3HCH4C6HCH2CH4C4HC5H2C5HC5H2CH2CHC2H3C2HC4H2CH4C2HC6H2CH2C2HCHCH3C2H4C3H2C3H2FeS2FeS2FeSFeS3FeS2FeS2FeSFeS2FeS2FeS2FeSFeS3C3H2C2H2CH4CH4C6H4C6H4CHC2H3C5H2CHC7H3C2HCHPC10H2C7HCH11C2PH3CHC2HC3HCSC4H2C4HC2H2C3HCH3CH2C3H3CSHCHC2HC3H4C3H2C3H6C3H6C4HC2HC3HC3HCHC5HCH2CPCHC2HC2H2C3H2C2HC2HPHC4H3C2HC2H2CH2C3HCPHCH2C5HCH3C2HCHC6H3C2HCHC8HCHCHCH2CHC2HCHCH2C2H3CHCH4CH2C2PHC3H2CH2CHC3FeS2FeS2FeSFeS3FeS2FeS2FeSFeS3FeS2FeS2FeSFeHS2HCHPCH3C2H2C6H4C4H7CHC4H2C6H5C5H2C4H4C2HC3HCHCH4C2HC3PC16H9CHCHC4H2C6HC2H4CHCHCH2CH2CHCH2C2H3C4H3C4H3C2H2C2HC2HC8H4C2H3CHC2HCH2CH3C2HCH2C2HC5H7C6PCHC3HC6HCHC2H2C4H3CHCHCHC2HC3HC4H5C2H3C2H2PH2CH2C3H2FeS2FeS2FeHFeS3FeS2FeS2FeSFeS3FeS2FeS2FeSFeS3CSCH3C2H2CHC2HC7H4C3H2C6H4C2HCHC4H2CHCHCPCHCPHC3HCH2CH2C3H2C3H2C2HC4H2C5H3C4HCH2CH3C2HCH2C2HCH2C2H2CHC4HCSCHC5H2C2PC2HC7H7CHPC3HCPH2CHCH3C5HC2HCH2C2HC4HCH3C7HC4HC7H2CHCH6C6H2CH2CHCHCH4C2HC2H2CH4CH2C3HC3H2CHC2HC2HC2HCHCHC4H4CHCHCHCHCHC2PCHCHC3H2C4H2CHC6H2CH2C2H2CH2C3HCHC3HC4PH5C2HC2HCHC2H3C5HC2H2C2HPFeS2FeS2FeSFeS3FeS2FeS2FeSFeS3FeS2FeS2FeSFeCS2C2H2C2HCH2CHCH3C3H2CHCH2C6H4C3HC2H3C6H4CHC2HC2HCHC7H3PCHC2HCH6CHC3H3C5H2C4HC2HC2H2C3H6C4HC2H2C3HC2H6CH2CHC3HC5HC4H2CHC3HC6HCH3CHCH2CHC10HCHCHPHC2HC6HCH2C2H2CH3C2HCH5CPC6PC15H5CH11CH3CH4C2H3C2HC6HCHCHC2HCPC4HC2H3C2HCHCHCH2CSCH2C2H6FeS2FeS2FeCFeS3FeS2FeS2FeCFeS3FeS2FeS2FeSFeS3C3HC2H3C5HCHC6H4CHC6H4C2HCHCH2C3H4CHC3H3C5HSHPHC6HPHCHC6H3C3H3C5HC2H2C2H4C6HC4PHCH2CHCHPHCHC3H2CH3C2HC3H5C3HCHC5HC2HPCHCHCH3C4HC4H2C2HC5H5C3H2C7HC2H3C6H2C2H4C2HCH4CHCHCH2C3H2C2HCHC6PC2HC2HC12H5CH2CH13CH3C5H3CH2CHC3H2CHSH5C5PCHC4HFeS2FeS2FeSFeS3FeS2FeSCFeSFeS3CFeS2FeS2FeSFeHS2C4H2C6H4C2SH2CH2CH2C2HC3HC2H4C6H4C4H3C2H6C2HCHCHC3PHCH3SC4H3C2H2CHCH2CH3CH3CH4C5HC3HCH2CHCHC6HC9H3C2H6C2H3C2H2C2HC9H2C2H5C2HCH3C6PC4HC3HC9H8CH4CH6C4H2C2H2CH2CHC2H2CHC4PH2C6H2CHC3H2PC3HC2H2C2H2PC2H2C2PC3HC5HCPHCHCHCHC2FeSFeS2FeSFeS3FeS2FeS2FeSFeS3FeS2FeS2FeHFeS3C2HC3H2CHC2H3C7H4CHCH3C4H2C6H7C5HCPC4H2CH4C4H3C7H2CHC4H5C6HC3HC2H2C3HCH2CH2CHCH4CHC2SPHC6H2C2H2CHPCH2CH2C2HCH3C2HC5H3C7HCH3CH2C3H2C6HPCSH2C3H3C5H2CH2C2HCHC2H2CH2CH3C2H4C5HCH2C2HPCHC2H5CHCH2C
_chemical_formula_sum              "Fe192 S384 H2304 C2880 P96"
_cell_length_a       52.9984
_cell_length_b       53.0115
_cell_length_c       53.0004
_cell_angle_alpha    83.0336
_cell_angle_beta     83.1893
_cell_angle_gamma    83.283

_space_group_name_H-M_alt    "P 1"
_space_group_IT_number       1

loop_
  _space_group_symop_operation_xyz
  'x, y, z'

loop_
  _atom_site_type_symbol
  _atom_site_label
  _atom_site_symmetry_multiplicity
  _atom_site_fract_x
  _atom_site_fract_y
  _atom_site_fract_z
  _atom_site_occupancy
  Fe  Fe1       1.0  0.12447  0.14087  0.35787  1.0000
  S   S1        1.0  0.11902  0.15768  0.39518  1.0000
  S   S2        1.0  0.16394  0.13725  0.33477  1.0000
  Fe  Fe2       1.0  0.06602  0.13341  0.36038  1.0000
  S   S3        1.0  0.05790  0.14856  0.39835  1.0000
  S   S4        1.0  0.03407  0.12007  0.34073  1.0000
  Fe  Fe3       1.0  0.08313  0.17881  0.38132  1.0000
  S   S5        1.0  0.06665  0.21935  0.38584  1.0000
  Fe  Fe4       1.0  0.09438  0.12580  0.40806  1.0000
  S   S6        1.0  0.09787  0.10197  0.44569  1.0000
  S   S7        1.0  0.09012  0.16477  0.34271  1.0000
  S   S8        1.0  0.10124  0.10776  0.37141  1.0000
  Fe  Fe5       1.0  0.10476  0.39493  0.38427  1.0000
  S   S9        1.0  0.09304  0.35565  0.39584  1.0000
  S   S10       1.0  0.11340  0.42058  0.41359  1.0000
  Fe  Fe6       1.0  0.09689  0.39264  0.32647  1.0000
  S   S11       1.0  0.08370  0.35360  0.33508  1.0000
  S   S12       1.0  0.10030  0.41364  0.28558  1.0000
  Fe  Fe7       1.0  0.06215  0.36802  0.37037  1.0000
  S   S13       1.0  0.02286  0.35914  0.38625  1.0000
  Fe  Fe8       1.0  0.11597  0.34496  0.35960  1.0000
  S   S14       1.0  0.13961  0.30701  0.35737  1.0000
  S   S15       1.0  0.07221  0.40817  0.36027  1.0000
  S   S16       1.0  0.13085  0.38336  0.34943  1.0000
  Fe  Fe9       1.0  0.11172  0.38980  0.13649  1.0000
  S   S17       1.0  0.13962  0.41868  0.13416  1.0000
  S   S18       1.0  0.09809  0.37133  0.17682  1.0000
  Fe  Fe10      1.0  0.11342  0.39441  0.07594  1.0000
  S   S19       1.0  0.14116  0.42376  0.07108  1.0000
  H   H1        1.0  0.01549  0.10349  0.39189  1.0000
  Fe  Fe11      1.0  0.16092  0.39884  0.10178  1.0000
  S   S20       1.0  0.20327  0.38619  0.09725  1.0000
  Fe  Fe12      1.0  0.11673  0.44026  0.10374  1.0000
  S   S21       1.0  0.10311  0.48209  0.10152  1.0000
  S   S22       1.0  0.13450  0.36814  0.10539  1.0000
  S   S23       1.0  0.08742  0.41253  0.10745  1.0000
  C   C1        1.0  0.22395  0.40920  0.09968  1.0000
  C   C2        1.0  0.21485  0.43213  0.10972  1.0000
  C   C3        1.0  0.03803  0.08370  0.42067  1.0000
  H   H2        1.0  0.19486  0.43578  0.11654  1.0000
  C   C4        1.0  0.25001  0.40440  0.09143  1.0000
  C   C5        1.0  0.09930  0.40140  0.25561  1.0000
  C   C6        1.0  0.10655  0.41642  0.23266  1.0000
  C   C7        1.0  0.10637  0.40746  0.20860  1.0000
  C   C8        1.0  0.09873  0.38338  0.20694  1.0000
  C   C9        1.0  0.09105  0.36851  0.22988  1.0000
  C   C10       1.0  0.09120  0.37748  0.25398  1.0000
  H   H3        1.0  0.11215  0.43525  0.23342  1.0000
  H   H4        1.0  0.11178  0.41927  0.19120  1.0000
  H   H5        1.0  0.08471  0.34999  0.22899  1.0000
  H   H6        1.0  0.08481  0.36592  0.27130  1.0000
  C   C11       1.0  0.11382  0.41931  0.44755  1.0000
  C   C12       1.0  0.12163  0.44049  0.45684  1.0000
  C   C13       1.0  0.12239  0.44135  0.48313  1.0000
  C   C14       1.0  0.01243  0.30269  0.44122  1.0000
  H   H7        1.0  0.03073  0.24385  0.47130  1.0000
  C   C15       1.0  0.10670  0.39872  0.46539  1.0000
  H   H8        1.0  0.12735  0.45645  0.44351  1.0000
  C   C16       1.0  0.04082  0.39696  0.50576  1.0000
  C   C17       1.0  0.10760  0.39954  0.49209  1.0000
  H   H9        1.0  0.10059  0.38225  0.45860  1.0000
  C   C18       1.0  0.16506  0.49508  0.13300  1.0000
  C   C19       1.0  0.19644  0.13698  0.37273  1.0000
  C   C20       1.0  0.19423  0.13588  0.34684  1.0000
  C   C21       1.0  0.21671  0.13442  0.32975  1.0000
  H   H10       1.0  0.17940  0.13792  0.38610  1.0000
  H   H11       1.0  0.21533  0.13338  0.30971  1.0000
  C   C22       1.0  0.02982  0.41701  0.48968  1.0000
  H   H12       1.0  0.06226  0.47878  0.25540  1.0000
  C   C23       1.0  0.14823  0.24760  0.42810  1.0000
  H   H13       1.0  0.11447  0.09167  0.49590  1.0000
  H   H14       1.0  0.18783  0.34587  0.18456  1.0000
  C   C24       1.0  0.10169  0.12227  0.46828  1.0000
  H   H15       1.0  0.18287  0.48440  0.13753  1.0000
  C   C25       1.0  0.09678  0.14873  0.46273  1.0000
  C   C26       1.0  0.12483  0.49723  0.11514  1.0000
  H   H16       1.0  0.08957  0.15668  0.44492  1.0000
  C   C27       1.0  0.08725  0.24325  0.37672  1.0000
  C   C28       1.0  0.11299  0.23732  0.36803  1.0000
  C   C29       1.0  0.12916  0.25693  0.36178  1.0000
  C   C30       1.0  0.11948  0.28242  0.36409  1.0000
  C   C31       1.0  0.09362  0.28826  0.37221  1.0000
  C   C32       1.0  0.07761  0.26875  0.37855  1.0000
  H   H17       1.0  0.12039  0.21764  0.36642  1.0000
  H   H18       1.0  0.14914  0.25236  0.35535  1.0000
  H   H19       1.0  0.08594  0.30780  0.37407  1.0000
  H   H20       1.0  0.05776  0.27347  0.38515  1.0000
  H   H21       1.0  0.07757  0.50134  0.05055  1.0000
  H   H22       1.0  0.05380  0.44147  0.23514  1.0000
  H   H23       1.0  0.18929  0.18366  0.49266  1.0000
  H   H24       1.0  0.19997  0.38259  0.15395  1.0000
  C   C33       1.0  0.21397  0.50246  0.06372  1.0000
  C   C34       1.0  0.11034  0.11210  0.49168  1.0000
  H   H25       1.0  0.13749  0.32931  0.22679  1.0000
  C   C35       1.0  0.11438  0.12843  0.50937  1.0000
  C   C36       1.0  0.16895  0.13158  0.45618  1.0000
  C   C37       1.0  0.12497  0.26274  0.43216  1.0000
  C   C38       1.0  0.22065  0.13767  0.38119  1.0000
  C   C39       1.0  0.19469  0.40899  0.18245  1.0000
  C   C40       1.0  0.11408  0.49403  0.19300  1.0000
  H   H26       1.0  0.06226  0.25263  0.50468  1.0000
  H   H27       1.0  0.22117  0.45920  0.25247  1.0000
  H   H28       1.0  0.21749  0.46013  0.29907  1.0000
  H   H29       1.0  0.16208  0.11735  0.44634  1.0000
  H   H30       1.0  0.11389  0.46737  0.16551  1.0000
  H   H31       1.0  0.04475  0.16618  0.50082  1.0000
  C   C41       1.0  0.13362  0.49916  0.03465  1.0000
  C   C42       1.0  0.04225  0.04871  0.50344  1.0000
  H   H32       1.0  0.20164  0.29736  0.22563  1.0000
  C   C43       1.0  0.17263  0.15572  0.44336  1.0000
  C   C44       1.0  0.14819  0.48531  0.22050  1.0000
  C   C45       1.0  0.06877  0.04886  0.50312  1.0000
  H   H33       1.0  0.23331  0.50247  0.15482  1.0000
  C   C46       1.0  0.17302  0.20279  0.39066  1.0000
  H   H34       1.0  0.05674  0.06622  0.45295  1.0000
  C   C47       1.0  0.18782  0.36435  0.19127  1.0000
  H   H35       1.0  0.25472  0.07962  0.38264  1.0000
  H   H36       1.0  0.16668  0.42830  0.01790  1.0000
  C   C48       1.0  0.21541  0.46467  0.01968  1.0000
  H   H37       1.0  0.12843  0.45805  0.48962  1.0000
  C   C49       1.0  0.19234  0.20438  0.40621  1.0000
  C   C50       1.0  0.24308  0.13679  0.36399  1.0000
  C   C51       1.0  0.07017  0.48599  0.41619  1.0000
  H   H38       1.0  0.22493  0.46748  0.11991  1.0000
  H   H39       1.0  0.08944  0.26791  0.45612  1.0000
  C   C52       1.0  0.23500  0.31779  0.21690  1.0000
  H   H40       1.0  0.05432  0.47738  0.33169  1.0000
  C   C53       1.0  0.10967  0.15491  0.50376  1.0000
  C   C54       1.0  0.01493  0.45609  0.22969  1.0000
  C   C55       1.0  0.11391  0.23547  0.47094  1.0000
  C   C56       1.0  0.23894  0.30053  0.16861  1.0000
  H   H41       1.0  0.24875  0.36924  0.16367  1.0000
  C   C57       1.0  0.19479  0.38503  0.17401  1.0000
  C   C58       1.0  0.03983  0.07767  0.44685  1.0000
  C   C59       1.0  0.15434  0.22608  0.44538  1.0000
  C   C60       1.0  0.06683  0.48348  0.48176  1.0000
  C   C61       1.0  0.25676  0.31627  0.17395  1.0000
  H   H42       1.0  0.24062  0.42674  0.21944  1.0000
  C   C62       1.0  0.07346  0.48530  0.04145  1.0000
  C   C63       1.0  0.23504  0.48641  0.16950  1.0000
  C   C64       1.0  0.02004  0.28440  0.46111  1.0000
  H   H43       1.0  0.17885  0.44668  0.32621  1.0000
  H   H44       1.0  0.21559  0.06216  0.40477  1.0000
  H   H45       1.0  0.00850  0.44290  0.40544  1.0000
  H   H46       1.0  0.25192  0.44939  0.03297  1.0000
  C   C65       1.0  0.06374  0.44264  0.01940  1.0000
  H   H47       1.0  0.21801  0.01858  0.42747  1.0000
  P   P1        1.0  0.18624  0.44416  0.21826  1.0000
  H   H48       1.0  0.22193  0.13943  0.40110  1.0000
  C   C66       1.0  0.06121  0.46579  0.05637  1.0000
  H   H49       1.0  0.19851  0.39449  0.03471  1.0000
  H   H50       1.0  0.20537  0.28176  0.18290  1.0000
  H   H51       1.0  0.02888  0.47602  0.37481  1.0000
  P   P2        1.0  0.18419  0.20625  0.44011  1.0000
  C   C67       1.0  0.18015  0.39169  0.22549  1.0000
  H   H52       1.0  0.06384  0.47279  0.46648  1.0000
  H   H53       1.0  0.06776  0.45517  0.39392  1.0000
  H   H54       1.0  0.00984  0.37039  0.45105  1.0000
  C   C68       1.0  0.08203  0.48808  0.30040  1.0000
  C   C69       1.0  0.18067  0.36763  0.21702  1.0000
  C   C70       1.0  0.03892  0.45714  0.23769  1.0000
  C   C71       1.0  0.06679  0.47077  0.50649  1.0000
  C   C72       1.0  0.02012  0.25103  0.43340  1.0000
  C   C73       1.0  0.20638  0.24487  0.45845  1.0000
  P   P3        1.0  0.02210  0.07846  0.49859  1.0000
  H   H55       1.0  0.08908  0.46845  0.29752  1.0000
  C   C74       1.0  0.24097  0.13470  0.33826  1.0000
  C   C75       1.0  0.23894  0.44376  0.20593  1.0000
  C   C76       1.0  0.20228  0.45359  0.29038  1.0000
  C   C77       1.0  0.23203  0.20395  0.45775  1.0000
  H   H56       1.0  0.15818  0.49206  0.06481  1.0000
  H   H57       1.0  0.24371  0.19910  0.36106  1.0000
  H   H58       1.0  0.16429  0.19770  0.35311  1.0000
  H   H59       1.0  0.02855  0.13256  0.48087  1.0000
  C   C78       1.0  0.09967  0.32834  0.49187  1.0000
  C   C79       1.0  0.23534  0.02578  0.41789  1.0000
  C   C80       1.0  0.22599  0.25483  0.46834  1.0000
  C   C81       1.0  0.03728  0.48541  0.38831  1.0000
  H   H60       1.0  0.02383  0.23111  0.42993  1.0000
  C   C82       1.0  0.18537  0.43310  0.02076  1.0000
  H   H61       1.0  0.03716  0.41966  0.46968  1.0000
  C   C83       1.0  0.22743  0.41999  0.03389  1.0000
  C   C84       1.0  0.05910  0.47369  0.39905  1.0000
  C   C85       1.0  0.18080  0.17452  0.45610  1.0000
  C   C86       1.0  0.15792  0.46358  0.20829  1.0000
  H   H62       1.0  0.05638  0.38392  0.49818  1.0000
  C   C87       1.0  0.13710  0.22031  0.46695  1.0000
  C   C88       1.0  0.22389  0.20088  0.36919  1.0000
  H   H63       1.0  0.14340  0.37039  0.28843  1.0000
  H   H64       1.0  0.20661  0.48400  0.06630  1.0000
  C   C89       1.0  0.01148  0.26921  0.41420  1.0000
  H   H65       1.0  0.17525  0.35160  0.23041  1.0000
  C   C90       1.0  0.00939  0.43352  0.49937  1.0000
  C   C91       1.0  0.24851  0.32899  0.08515  1.0000
  C   C92       1.0  0.21480  0.45676  0.20207  1.0000
  C   C93       1.0  0.20455  0.19919  0.35392  1.0000
  C   C94       1.0  0.20439  0.45276  0.26390  1.0000
  H   H66       1.0  0.15750  0.49059  0.23587  1.0000
  C   C95       1.0  0.10770  0.25655  0.45343  1.0000
  H   H67       1.0  0.12279  0.50643  0.46710  1.0000
  H   H68       1.0  0.19993  0.42485  0.16866  1.0000
  H   H69       1.0  0.18310  0.35838  0.30958  1.0000
  H   H70       1.0  0.08743  0.47679  0.42386  1.0000
  C   C96       1.0  0.02435  0.25850  0.45679  1.0000
  C   C97       1.0  0.14541  0.45737  0.18831  1.0000
  H   H71       1.0  0.18911  0.25720  0.45492  1.0000
  H   H72       1.0  0.05629  0.46684  0.07671  1.0000
  H   H73       1.0  0.00961  0.32285  0.44371  1.0000
  C   C98       1.0  0.02615  0.21469  0.31683  1.0000
  C   C99       1.0  0.02806  0.18875  0.31297  1.0000
  C   C100      1.0  0.04928  0.17775  0.29838  1.0000
  C   C101      1.0  0.06892  0.19246  0.28774  1.0000
  C   C102      1.0  0.06738  0.21817  0.29180  1.0000
  C   C103      1.0  0.04609  0.22929  0.30626  1.0000
  C   C104      1.0  0.03516  0.12798  0.49959  1.0000
  H   H74       1.0  0.23098  0.33846  0.07823  1.0000
  C   C105      1.0  0.18479  0.44411  0.25256  1.0000
  H   H75       1.0  0.10799  0.50393  0.27016  1.0000
  H   H76       1.0  0.22369  0.27460  0.47226  1.0000
  H   H77       1.0  0.14372  0.43234  0.30629  1.0000
  C   C106      1.0  0.01038  0.38502  0.34093  1.0000
  H   H78       1.0  0.16869  0.15964  0.42367  1.0000
  C   C107      1.0  0.16075  0.43796  0.29450  1.0000
  C   C108      1.0  0.17915  0.20007  0.36468  1.0000
  C   C109      1.0  0.18435  0.16904  0.48212  1.0000
  C   C110      1.0  0.23180  0.45020  0.11133  1.0000
  H   H79       1.0  0.16123  0.25259  0.41133  1.0000
  H   H80       1.0  0.14715  0.43116  0.25968  1.0000
  H   H81       1.0  0.04825  0.42861  0.05724  1.0000
  C   C111      1.0  0.21705  0.30253  0.21128  1.0000
  H   H82       1.0  0.03269  0.40469  0.42549  1.0000
  H   H83       1.0  0.05063  0.15764  0.29572  1.0000
  H   H84       1.0  0.08551  0.18373  0.27675  1.0000
  H   H85       1.0  0.08261  0.22955  0.28361  1.0000
  H   H86       1.0  0.04518  0.24929  0.30871  1.0000
  H   H87       1.0  0.20936  0.19617  0.33400  1.0000
  C   C112      1.0  0.16281  0.43714  0.26807  1.0000
  C   C113      1.0  0.18706  0.41263  0.20822  1.0000
  C   C114      1.0  0.23339  0.44525  0.02906  1.0000
  C   C115      1.0  0.05660  0.44433  0.04541  1.0000
  C   C116      1.0  0.17526  0.34436  0.30034  1.0000
  H   H88       1.0  0.12021  0.27908  0.41854  1.0000
  C   C117      1.0  0.20338  0.41394  0.02999  1.0000
  H   H89       1.0  0.23334  0.20395  0.40663  1.0000
  H   H90       1.0  0.15233  0.44095  0.17838  1.0000
  H   H91       1.0  0.15324  0.20295  0.39873  1.0000
  H   H92       1.0  0.23477  0.18427  0.45343  1.0000
  H   H93       1.0  0.09748  0.50597  0.18671  1.0000
  C   C118      1.0  0.21308  0.47812  0.18384  1.0000
  H   H94       1.0  0.14121  0.20385  0.48056  1.0000
  C   C119      1.0  0.02430  0.49825  0.25291  1.0000
  H   H95       1.0  0.10065  0.23036  0.48741  1.0000
  C   C120      1.0  0.17318  0.12609  0.48188  1.0000
  S   S24       1.0  0.09846  0.38248  0.04038  1.0000
  C   C121      1.0  0.25586  0.06041  0.39258  1.0000
  C   C122      1.0  0.23384  0.05054  0.40510  1.0000
  H   H96       1.0  0.25797  0.13406  0.32475  1.0000
  H   H97       1.0  0.19467  0.48792  0.18023  1.0000
  C   C123      1.0  0.08454  0.02589  0.50639  1.0000
  C   C124      1.0  0.20927  0.21934  0.45306  1.0000
  H   H98       1.0  0.03067  0.38504  0.33540  1.0000
  P   P4        1.0  0.02338  0.29429  0.49195  1.0000
  H   H99       1.0  0.01238  0.17768  0.41388  1.0000
  C   C125      1.0  0.02030  0.08692  0.46473  1.0000
  C   C126      1.0  0.11540  0.42104  0.50110  1.0000
  C   C127      1.0  0.05317  0.30785  0.49166  1.0000
  C   C128      1.0  0.08148  0.48335  0.01546  1.0000
  C   C129      1.0  0.09270  0.50826  0.28493  1.0000
  H   H100      1.0  0.00869  0.44744  0.32238  1.0000
  C   C130      1.0  0.03194  0.02519  0.50583  1.0000
  H   H101      1.0  0.02297  0.19081  0.36778  1.0000
  C   C131      1.0  0.21908  0.29385  0.18718  1.0000
  C   C132      1.0  0.21787  0.20339  0.39524  1.0000
  C   C133      1.0  0.12343  0.47236  0.18095  1.0000
  H   H102      1.0  0.02721  0.00888  0.38508  1.0000
  C   C134      1.0  0.06638  0.31752  0.46863  1.0000
  C   C135      1.0  0.08961  0.32760  0.46879  1.0000
  H   H103      1.0  0.05341  0.07696  0.40694  1.0000
  H   H104      1.0  0.15401  0.46552  0.11369  1.0000
  H   H105      1.0  0.09674  0.18541  0.47607  1.0000
  C   C136      1.0  0.19121  0.45839  0.01595  1.0000
  H   H106      1.0  0.06077  0.42561  0.01122  1.0000
  H   H107      1.0  0.23358  0.32433  0.23567  1.0000
  C   C137      1.0  0.04363  0.47822  0.24920  1.0000
  C   C138      1.0  0.10086  0.16503  0.48041  1.0000
  C   C139      1.0  0.18051  0.44609  0.30569  1.0000
  C   C140      1.0  0.14847  0.48412  0.11997  1.0000
  H   H108      1.0  0.05902  0.31721  0.45048  1.0000
  H   H109      1.0  0.09987  0.33486  0.45096  1.0000
  H   H110      1.0  0.17422  0.39374  0.24541  1.0000
  H   H111      1.0  0.07730  0.06676  0.50005  1.0000
  H   H112      1.0  0.13219  0.47901  0.03447  1.0000
  C   C141      1.0  0.18360  0.21616  0.27758  1.0000
  C   C142      1.0  0.16817  0.20182  0.29568  1.0000
  C   C143      1.0  0.14407  0.21256  0.30509  1.0000
  C   C144      1.0  0.13527  0.23762  0.29629  1.0000
  C   C145      1.0  0.15031  0.25191  0.27744  1.0000
  C   C146      1.0  0.17475  0.24112  0.26849  1.0000
  P   P5        1.0  0.13873  0.28390  0.26482  1.0000
  C   C147      1.0  0.10470  0.28967  0.27331  1.0000
  C   C148      1.0  0.15372  0.30749  0.27818  1.0000
  C   C149      1.0  0.17622  0.30085  0.29013  1.0000
  C   C150      1.0  0.18692  0.31926  0.30113  1.0000
  C   C151      1.0  0.01673  0.09890  0.41216  1.0000
  C   C152      1.0  0.15289  0.35110  0.28852  1.0000
  C   C153      1.0  0.14214  0.33272  0.27762  1.0000
  C   C154      1.0  0.09532  0.29567  0.29799  1.0000
  C   C155      1.0  0.06909  0.30114  0.30448  1.0000
  C   C156      1.0  0.05205  0.30089  0.28634  1.0000
  C   C157      1.0  0.06118  0.29458  0.26185  1.0000
  C   C158      1.0  0.08740  0.28888  0.25533  1.0000
  C   C159      1.0  0.14432  0.28792  0.23025  1.0000
  C   C160      1.0  0.14837  0.26654  0.21637  1.0000
  C   C161      1.0  0.15099  0.26977  0.18962  1.0000
  C   C162      1.0  0.14913  0.29431  0.17650  1.0000
  C   C163      1.0  0.14461  0.31561  0.19012  1.0000
  C   C164      1.0  0.14211  0.31248  0.21684  1.0000
  H   H113      1.0  0.20238  0.20780  0.27055  1.0000
  H   H114      1.0  0.17495  0.18239  0.30256  1.0000
  H   H115      1.0  0.13226  0.20141  0.31933  1.0000
  H   H116      1.0  0.11676  0.24557  0.30432  1.0000
  H   H117      1.0  0.18690  0.25195  0.25437  1.0000
  H   H118      1.0  0.18514  0.28142  0.29183  1.0000
  H   H119      1.0  0.20373  0.31383  0.31114  1.0000
  H   H120      1.0  0.12440  0.33804  0.26932  1.0000
  H   H121      1.0  0.10830  0.29637  0.31219  1.0000
  H   H122      1.0  0.06213  0.30590  0.32354  1.0000
  H   H123      1.0  0.03176  0.30562  0.29119  1.0000
  H   H124      1.0  0.04794  0.29443  0.24778  1.0000
  H   H125      1.0  0.09398  0.28427  0.23616  1.0000
  H   H126      1.0  0.14876  0.24734  0.22604  1.0000
  H   H127      1.0  0.15385  0.25323  0.17903  1.0000
  H   H128      1.0  0.15053  0.29689  0.15577  1.0000
  H   H129      1.0  0.14223  0.33462  0.17993  1.0000
  H   H130      1.0  0.25465  0.41496  0.15961  1.0000
  C   C165      1.0  0.18068  0.14488  0.49492  1.0000
  C   C166      1.0  0.25165  0.21402  0.46749  1.0000
  H   H131      1.0  0.24127  0.40507  0.04118  1.0000
  C   C167      1.0  0.06235  0.49312  0.31966  1.0000
  H   H132      1.0  0.02683  0.26198  0.35362  1.0000
  H   H133      1.0  0.10497  0.02624  0.50626  1.0000
  H   H134      1.0  0.01256  0.48182  0.50884  1.0000
  H   H135      1.0  0.01821  0.05420  0.36792  1.0000
  H   H136      1.0  0.01123  0.43959  0.22097  1.0000
  H   H137      1.0  0.20778  0.50698  0.10394  1.0000
  H   H138      1.0  0.16971  0.10756  0.49192  1.0000
  H   H139      1.0  0.11762  0.33628  0.49194  1.0000
  H   H140      1.0  0.24052  0.34382  0.12150  1.0000
  H   H141      1.0  0.01172  0.02444  0.50530  1.0000
  C   C168      1.0  0.24860  0.23942  0.47286  1.0000
  H   H142      1.0  0.01301  0.17699  0.32094  1.0000
  C   C169      1.0  0.25392  0.33191  0.10977  1.0000
  C   C170      1.0  0.12642  0.50048  0.21279  1.0000
  H   H143      1.0  0.25108  0.15000  0.49419  1.0000
  C   C171      1.0  0.01198  0.40664  0.42811  1.0000
  H   H144      1.0  0.24046  0.29319  0.15023  1.0000
  C   C172      1.0  0.01266  0.27437  0.34349  1.0000
  C   C173      1.0  0.14823  0.50651  0.05225  1.0000
  H   H145      1.0  0.02314  0.30877  0.35583  1.0000
  P   P6        1.0  0.22359  0.49709  0.01137  1.0000
  C   C174      1.0  0.01069  0.30077  0.34475  1.0000
  C   C175      1.0  0.00856  0.01889  0.38989  1.0000
  H   H146      1.0  0.10226  0.38365  0.50568  1.0000
  C   C176      1.0  0.25493  0.32444  0.19839  1.0000
  H   H147      1.0  0.16773  0.50684  0.44929  1.0000
  C   C177      1.0  0.25762  0.44597  0.10198  1.0000
  H   H148      1.0  0.25727  0.38648  0.08411  1.0000
  Fe  Fe13      1.0  0.11638  0.15572  0.56567  1.0000
  S   S25       1.0  0.11739  0.11369  0.57939  1.0000
  S   S26       1.0  0.11406  0.17557  0.52594  1.0000
  Fe  Fe14      1.0  0.11438  0.17077  0.61866  1.0000
  S   S27       1.0  0.11457  0.13035  0.63644  1.0000
  S   S28       1.0  0.11236  0.20253  0.64335  1.0000
  Fe  Fe15      1.0  0.14624  0.12183  0.60509  1.0000
  S   S29       1.0  0.18344  0.09822  0.61645  1.0000
  Fe  Fe16      1.0  0.08579  0.12669  0.60907  1.0000
  S   S30       1.0  0.04842  0.10875  0.62298  1.0000
  S   S31       1.0  0.14705  0.16281  0.58889  1.0000
  S   S32       1.0  0.08371  0.16801  0.59390  1.0000
  Fe  Fe17      1.0  0.10928  0.39772  0.57100  1.0000
  S   S33       1.0  0.08647  0.36506  0.57067  1.0000
  C   C178      1.0  0.05690  0.24195  0.59159  1.0000
  Fe  Fe18      1.0  0.11715  0.38312  0.62942  1.0000
  S   S34       1.0  0.09553  0.34877  0.63159  1.0000
  S   S35       1.0  0.13610  0.39243  0.66397  1.0000
  Fe  Fe19      1.0  0.11640  0.34244  0.59306  1.0000
  S   S36       1.0  0.13374  0.30627  0.57703  1.0000
  Fe  Fe20      1.0  0.06804  0.37506  0.60891  1.0000
  S   S37       1.0  0.02574  0.37855  0.62073  1.0000
  S   S38       1.0  0.14045  0.37467  0.59194  1.0000
  S   S39       1.0  0.08852  0.40997  0.60818  1.0000
  Fe  Fe21      1.0  0.13018  0.39261  0.81962  1.0000
  S   S40       1.0  0.16720  0.41025  0.81295  1.0000
  S   S41       1.0  0.11051  0.38063  0.78672  1.0000
  Fe  Fe22      1.0  0.12457  0.39922  0.87896  1.0000
  S   S42       1.0  0.16062  0.41813  0.87507  1.0000
  S   S43       1.0  0.10016  0.39194  0.91772  1.0000
  Fe  Fe23      1.0  0.14742  0.43882  0.83860  1.0000
  Fe  Fe24      1.0  0.17678  0.38773  0.84995  1.0000
  S   S44       1.0  0.21440  0.36491  0.85708  1.0000
  S   S45       1.0  0.10974  0.42252  0.84401  1.0000
  S   S46       1.0  0.14127  0.36736  0.85519  1.0000
  C   C179      1.0  0.07646  0.49592  0.78796  1.0000
  C   C180      1.0  0.05470  0.38941  0.83499  1.0000
  C   C181      1.0  0.11875  0.40062  0.99004  1.0000
  H   H149      1.0  0.06093  0.15646  0.54332  1.0000
  H   H150      1.0  0.06939  0.25989  0.69326  1.0000
  H   H151      1.0  0.22037  0.26032  0.53991  1.0000
  H   H152      1.0  0.16436  0.44146  0.96235  1.0000
  H   H153      1.0  0.22238  0.41747  0.83739  1.0000
  C   C182      1.0  0.06444  0.28027  0.68997  1.0000
  H   H154      1.0  0.16090  0.46587  0.68276  1.0000
  H   H155      1.0  0.24202  0.14345  0.63863  1.0000
  C   C183      1.0  0.08518  0.37531  0.96763  1.0000
  C   C184      1.0  0.10241  0.38967  0.95150  1.0000
  C   C185      1.0  0.11923  0.40245  0.96288  1.0000
  H   H156      1.0  0.06095  0.21218  0.53315  1.0000
  C   C186      1.0  0.19639  0.19568  0.60453  1.0000
  H   H157      1.0  0.07189  0.36552  0.95937  1.0000
  H   H158      1.0  0.13247  0.41369  0.95067  1.0000
  H   H159      1.0  0.17682  0.47301  0.00939  1.0000
  C   C187      1.0  0.12812  0.38931  0.69803  1.0000
  C   C188      1.0  0.14678  0.39279  0.71378  1.0000
  C   C189      1.0  0.14166  0.39065  0.74074  1.0000
  C   C190      1.0  0.11774  0.38464  0.75258  1.0000
  C   C191      1.0  0.09907  0.38094  0.73684  1.0000
  C   C192      1.0  0.10413  0.38342  0.70982  1.0000
  H   H160      1.0  0.16554  0.39678  0.70504  1.0000
  H   H161      1.0  0.15638  0.39321  0.75240  1.0000
  H   H162      1.0  0.08048  0.37624  0.74563  1.0000
  H   H163      1.0  0.08942  0.38088  0.69812  1.0000
  C   C193      1.0  0.21638  0.10311  0.60761  1.0000
  C   C194      1.0  0.23495  0.09140  0.62353  1.0000
  H   H164      1.0  0.01264  0.13428  0.58497  1.0000
  C   C195      1.0  0.22467  0.11729  0.58473  1.0000
  H   H165      1.0  0.22891  0.08008  0.64112  1.0000
  H   H166      1.0  0.17489  0.50720  0.63342  1.0000
  H   H167      1.0  0.21084  0.12617  0.57206  1.0000
  H   H168      1.0  0.20081  0.33055  0.82305  1.0000
  H   H169      1.0  0.11388  0.44715  0.69963  1.0000
  H   H170      1.0  0.09258  0.28834  0.71331  1.0000
  C   C196      1.0  0.11752  0.23158  0.62502  1.0000
  C   C197      1.0  0.12431  0.23228  0.59869  1.0000
  C   C198      1.0  0.12910  0.25540  0.58420  1.0000
  C   C199      1.0  0.12691  0.27794  0.59588  1.0000
  C   C200      1.0  0.11979  0.27739  0.62220  1.0000
  C   C201      1.0  0.11512  0.25416  0.63678  1.0000
  H   H171      1.0  0.12568  0.21508  0.58940  1.0000
  H   H172      1.0  0.13420  0.25590  0.56384  1.0000
  H   H173      1.0  0.11815  0.29474  0.63133  1.0000
  H   H174      1.0  0.10957  0.25371  0.65710  1.0000
  C   C202      1.0  0.21629  0.28593  0.63813  1.0000
  H   H175      1.0  0.07528  0.30180  0.57750  1.0000
  C   C203      1.0  0.07769  0.29637  0.70144  1.0000
  H   H176      1.0  0.02101  0.20296  0.56052  1.0000
  P   P7        1.0  0.09991  0.50727  0.99711  1.0000
  S   S47       1.0  0.14774  0.48069  0.82559  1.0000
  C   C204      1.0  0.02296  0.26660  0.51551  1.0000
  H   H177      1.0  0.25705  0.12991  0.55992  1.0000
  C   C205      1.0  0.18511  0.26057  0.52397  1.0000
  C   C206      1.0  0.25292  0.18540  0.54359  1.0000
  C   C207      1.0  0.06707  0.36673  0.87478  1.0000
  H   H178      1.0  0.04069  0.34036  0.58527  1.0000
  H   H179      1.0  0.16810  0.18598  0.63587  1.0000
  C   C208      1.0  0.20644  0.22292  0.54669  1.0000
  C   C209      1.0  0.02860  0.18919  0.70280  1.0000
  H   H180      1.0  0.18317  0.21002  0.59542  1.0000
  C   C210      1.0  0.08654  0.31896  0.51488  1.0000
  C   C211      1.0  0.14277  0.20738  0.69489  1.0000
  C   C212      1.0  0.15618  0.18346  0.70050  1.0000
  C   C213      1.0  0.18267  0.18134  0.70079  1.0000
  C   C214      1.0  0.19582  0.20307  0.69511  1.0000
  C   C215      1.0  0.18245  0.22718  0.68918  1.0000
  C   C216      1.0  0.15582  0.22912  0.68909  1.0000
  P   P8        1.0  0.19871  0.25572  0.68175  1.0000
  C   C217      1.0  0.17965  0.27998  0.69907  1.0000
  C   C218      1.0  0.10143  0.38588  0.00601  1.0000
  C   C219      1.0  0.09165  0.46597  0.67018  1.0000
  H   H181      1.0  0.07963  0.35250  0.88501  1.0000
  H   H182      1.0  0.13406  0.49171  0.63077  1.0000
  H   H183      1.0  0.22805  0.31140  0.60502  1.0000
  C   C220      1.0  0.25618  0.49559  0.99668  1.0000
  C   C221      1.0  0.17019  0.30334  0.68627  1.0000
  C   C222      1.0  0.15478  0.32152  0.69979  1.0000
  C   C223      1.0  0.14851  0.31658  0.72613  1.0000
  C   C224      1.0  0.15735  0.29319  0.73896  1.0000
  C   C225      1.0  0.17268  0.27486  0.72547  1.0000
  C   C226      1.0  0.20137  0.26600  0.64786  1.0000
  C   C227      1.0  0.18802  0.25521  0.63120  1.0000
  C   C228      1.0  0.01538  0.41577  0.97814  1.0000
  H   H184      1.0  0.15079  0.20979  0.52712  1.0000
  C   C229      1.0  0.04449  0.24422  0.61609  1.0000
  H   H185      1.0  0.16036  0.45778  0.91693  1.0000
  H   H186      1.0  0.12224  0.20897  0.69446  1.0000
  H   H187      1.0  0.14602  0.16657  0.70439  1.0000
  C   C230      1.0  0.11964  0.49238  0.97138  1.0000
  H   H188      1.0  0.07222  0.47334  0.54562  1.0000
  H   H189      1.0  0.14513  0.24744  0.68433  1.0000
  H   H190      1.0  0.02309  0.41852  0.83806  1.0000
  C   C231      1.0  0.24053  0.40721  0.84164  1.0000
  C   C232      1.0  0.11091  0.48836  0.69920  1.0000
  H   H191      1.0  0.24732  0.50328  0.95732  1.0000
  H   H192      1.0  0.19698  0.15180  0.65696  1.0000
  H   H193      1.0  0.17422  0.30766  0.66582  1.0000
  H   H194      1.0  0.14760  0.33946  0.68971  1.0000
  H   H195      1.0  0.13666  0.33086  0.73653  1.0000
  H   H196      1.0  0.15212  0.28926  0.75934  1.0000
  H   H197      1.0  0.17903  0.25665  0.73558  1.0000
  H   H198      1.0  0.17618  0.23997  0.63806  1.0000
  H   H199      1.0  0.17882  0.25654  0.59249  1.0000
  C   C233      1.0  0.04486  0.24896  0.51675  1.0000
  C   C234      1.0  0.13650  0.47051  0.97716  1.0000
  C   C235      1.0  0.16563  0.24637  0.51995  1.0000
  H   H200      1.0  0.07124  0.36204  0.00619  1.0000
  C   C236      1.0  0.16534  0.49601  0.84403  1.0000
  H   H201      1.0  0.06742  0.22706  0.66361  1.0000
  C   C237      1.0  0.03169  0.39366  0.53164  1.0000
  C   C238      1.0  0.03984  0.31727  0.67019  1.0000
  C   C239      1.0  0.04764  0.38138  0.88838  1.0000
  C   C240      1.0  0.23215  0.38505  0.95285  1.0000
  C   C241      1.0  0.18903  0.43508  0.74493  1.0000
  H   H202      1.0  0.18408  0.36595  0.99734  1.0000
  C   C242      1.0  0.05053  0.19674  0.68786  1.0000
  H   H203      1.0  0.18615  0.46153  0.85981  1.0000
  C   C243      1.0  0.08147  0.48932  0.65832  1.0000
  H   H204      1.0  0.04488  0.07876  0.54637  1.0000
  C   C244      1.0  0.21886  0.38784  0.93107  1.0000
  C   C245      1.0  0.19367  0.38181  0.93310  1.0000
  C   C246      1.0  0.18129  0.37369  0.95693  1.0000
  C   C247      1.0  0.19390  0.37205  0.97886  1.0000
  C   C248      1.0  0.21929  0.37762  0.97687  1.0000
  C   C249      1.0  0.22937  0.15835  0.62935  1.0000
  H   H205      1.0  0.08572  0.35941  0.83759  1.0000
  C   C250      1.0  0.16685  0.47079  0.57656  1.0000
  H   H206      1.0  0.05417  0.30588  0.62080  1.0000
  H   H207      1.0  0.04646  0.45070  0.86968  1.0000
  C   C251      1.0  0.19072  0.44031  0.69878  1.0000
  C   C252      1.0  0.15480  0.48812  0.59340  1.0000
  C   C253      1.0  0.07146  0.48360  0.52669  1.0000
  C   C254      1.0  0.16858  0.44451  0.58424  1.0000
  H   H208      1.0  0.08207  0.45997  0.98442  1.0000
  H   H209      1.0  0.02871  0.16998  0.71254  1.0000
  C   C255      1.0  0.14397  0.47872  0.61771  1.0000
  C   C256      1.0  0.07245  0.47071  0.79722  1.0000
  C   C257      1.0  0.02164  0.22081  0.54820  1.0000
  H   H210      1.0  0.22826  0.39371  0.91229  1.0000
  H   H211      1.0  0.18395  0.38281  0.91606  1.0000
  H   H212      1.0  0.16199  0.36836  0.95835  1.0000
  C   C258      1.0  0.14908  0.46739  0.93210  1.0000
  C   C259      1.0  0.21715  0.29551  0.61230  1.0000
  H   H213      1.0  0.01781  0.34099  0.51837  1.0000
  H   H214      1.0  0.11270  0.43961  0.75364  1.0000
  H   H215      1.0  0.14713  0.50752  0.76860  1.0000
  C   C260      1.0  0.05372  0.11698  0.54740  1.0000
  H   H216      1.0  0.16035  0.41510  0.61492  1.0000
  C   C261      1.0  0.04464  0.09775  0.53620  1.0000
  H   H217      1.0  0.01500  0.31311  0.56569  1.0000
  P   P9        1.0  0.23300  0.20727  0.56326  1.0000
  P   P10       1.0  0.02818  0.27004  0.65909  1.0000
  C   C262      1.0  0.05039  0.22144  0.67519  1.0000
  C   C263      1.0  0.02821  0.48883  0.86240  1.0000
  H   H218      1.0  0.04520  0.37768  0.90902  1.0000
  H   H219      1.0  0.05328  0.30177  0.53281  1.0000
  C   C264      1.0  0.13196  0.48875  0.92603  1.0000
  H   H220      1.0  0.21629  0.20079  0.69550  1.0000
  C   C265      1.0  0.19746  0.50321  0.96811  1.0000
  H   H221      1.0  0.25435  0.35197  0.91638  1.0000
  H   H222      1.0  0.06101  0.11268  0.56588  1.0000
  C   C266      1.0  0.20556  0.24889  0.53711  1.0000
  C   C267      1.0  0.04381  0.26708  0.62722  1.0000
  C   C268      1.0  0.25329  0.28787  0.81201  1.0000
  H   H223      1.0  0.20869  0.48349  0.88764  1.0000
  C   C269      1.0  0.24270  0.27213  0.79742  1.0000
  C   C270      1.0  0.20354  0.28493  0.59592  1.0000
  H   H224      1.0  0.23463  0.43947  0.94740  1.0000
  C   C271      1.0  0.21252  0.31425  0.81580  1.0000
  C   C272      1.0  0.02020  0.34204  0.58948  1.0000
  C   C273      1.0  0.14626  0.45249  0.62547  1.0000
  S   S48       1.0  0.11626  0.42469  0.53421  1.0000
  C   C274      1.0  0.08548  0.45055  0.78467  1.0000
  H   H225      1.0  0.04591  0.49668  0.85480  1.0000
  C   C275      1.0  0.23089  0.24964  0.69094  1.0000
  C   C276      1.0  0.18255  0.48196  0.85984  1.0000
  C   C277      1.0  0.10279  0.45550  0.76309  1.0000
  H   H226      1.0  0.21835  0.41619  0.72000  1.0000
  H   H227      1.0  0.04917  0.42499  0.91976  1.0000
  H   H228      1.0  0.12173  0.12050  0.52700  1.0000
  C   C278      1.0  0.21728  0.27753  0.79201  1.0000
  H   H229      1.0  0.09444  0.31957  0.53276  1.0000
  H   H230      1.0  0.24545  0.32134  0.83268  1.0000
  C   C279      1.0  0.05341  0.14171  0.53483  1.0000
  H   H231      1.0  0.13842  0.44525  0.64440  1.0000
  C   C280      1.0  0.18937  0.26456  0.60529  1.0000
  C   C281      1.0  0.23789  0.30892  0.82125  1.0000
  C   C282      1.0  0.22152  0.19015  0.59328  1.0000
  C   C283      1.0  0.15863  0.43542  0.60880  1.0000
  H   H232      1.0  0.08241  0.43099  0.79179  1.0000
  H   H233      1.0  0.03591  0.22795  0.62643  1.0000
  C   C284      1.0  0.07183  0.32284  0.69754  1.0000
  C   C285      1.0  0.05288  0.33328  0.68197  1.0000
  H   H234      1.0  0.08218  0.33525  0.70639  1.0000
  H   H235      1.0  0.04863  0.35384  0.67847  1.0000
  H   H236      1.0  0.18249  0.30284  0.79710  1.0000
  H   H237      1.0  0.08840  0.44816  0.66351  1.0000
  P   P11       1.0  0.12933  0.48715  0.72596  1.0000
  H   H238      1.0  0.05934  0.46671  0.81413  1.0000
  C   C286      1.0  0.24317  0.17502  0.52402  1.0000
  H   H239      1.0  0.13015  0.49567  0.90612  1.0000
  C   C287      1.0  0.06637  0.28581  0.58811  1.0000
  H   H240      1.0  0.18641  0.18905  0.55063  1.0000
  H   H241      1.0  0.17751  0.43115  0.57107  1.0000
  H   H242      1.0  0.20361  0.29271  0.57604  1.0000
  H   H243      1.0  0.22420  0.27148  0.72365  1.0000
  C   C288      1.0  0.20104  0.42925  0.72112  1.0000
  C   C289      1.0  0.18642  0.20899  0.54307  1.0000
  H   H244      1.0  0.01294  0.48935  0.92463  1.0000
  C   C290      1.0  0.04411  0.22600  0.53277  1.0000
  C   C291      1.0  0.06335  0.30879  0.51481  1.0000
  C   C292      1.0  0.07607  0.46208  0.00438  1.0000
  H   H245      1.0  0.20003  0.43582  0.68030  1.0000
  H   H246      1.0  0.23944  0.04369  0.58931  1.0000
  H   H247      1.0  0.20708  0.48473  0.96408  1.0000
  C   C293      1.0  0.24942  0.23461  0.67644  1.0000
  H   H248      1.0  0.19719  0.42678  0.76225  1.0000
  H   H249      1.0  0.22843  0.09443  0.77620  1.0000
  H   H250      1.0  0.02454  0.03727  0.56339  1.0000
  C   C294      1.0  0.16621  0.22065  0.52967  1.0000
  C   C295      1.0  0.04527  0.29058  0.67435  1.0000
  H   H251      1.0  0.10367  0.50085  0.58573  1.0000
  C   C296      1.0  0.08477  0.37339  0.99436  1.0000
  C   C297      1.0  0.25307  0.23042  0.57000  1.0000
  C   C298      1.0  0.20221  0.29862  0.80117  1.0000
  C   C299      1.0  0.02842  0.46273  0.87073  1.0000
  H   H252      1.0  0.15787  0.45656  0.76513  1.0000
  H   H253      1.0  0.24936  0.07561  0.55247  1.0000
  C   C300      1.0  0.19555  0.49446  0.87539  1.0000
  C   C301      1.0  0.16827  0.45703  0.70027  1.0000
  C   C302      1.0  0.10731  0.48072  0.75401  1.0000
  H   H254      1.0  0.17476  0.47734  0.55745  1.0000
  C   C303      1.0  0.25309  0.23677  0.59497  1.0000
  C   C304      1.0  0.15575  0.46250  0.72417  1.0000
  C   C305      1.0  0.16655  0.45176  0.74650  1.0000
  C   C306      1.0  0.05457  0.28796  0.61288  1.0000
  C   C307      1.0  0.10626  0.46546  0.69057  1.0000
  C   C308      1.0  0.03293  0.42152  0.93375  1.0000
  C   C309      1.0  0.20407  0.16317  0.63978  1.0000
  C   C310      1.0  0.24596  0.08234  0.77179  1.0000
  C   C311      1.0  0.23776  0.25939  0.71239  1.0000
  H   H255      1.0  0.13750  0.46229  0.99669  1.0000
  C   C312      1.0  0.03192  0.40054  0.87536  1.0000
  H   H256      1.0  0.20920  0.26525  0.78089  1.0000
  H   H257      1.0  0.24458  0.22690  0.65981  1.0000
  C   C313      1.0  0.24177  0.38147  0.85159  1.0000
  C   C314      1.0  0.01503  0.10902  0.61995  1.0000
  H   H258      1.0  0.25388  0.25560  0.79027  1.0000
  H   H259      1.0  0.07038  0.48972  0.64235  1.0000
  C   C315      1.0  0.18774  0.18220  0.62768  1.0000
  C   C316      1.0  0.07058  0.37071  0.84811  1.0000
  H   H260      1.0  0.01039  0.08364  0.65464  1.0000
  H   H261      1.0  0.02571  0.32585  0.65761  1.0000
  C   C317      1.0  0.03540  0.40427  0.84853  1.0000
  H   H262      1.0  0.05750  0.39233  0.81429  1.0000
  H   H263      1.0  0.04006  0.37800  0.54411  1.0000
  C   C318      1.0  0.15145  0.45836  0.95767  1.0000
  H   H264      1.0  0.22659  0.29461  0.65071  1.0000
  H   H265      1.0  0.05860  0.22386  0.58373  1.0000
  C   C319      1.0  0.25754  0.04131  0.57746  1.0000
  H   H266      1.0  0.07778  0.26081  0.55874  1.0000
  H   H267      1.0  0.25382  0.26621  0.91051  1.0000
  C   C320      1.0  0.23812  0.17182  0.60625  1.0000
  H   H268      1.0  0.06766  0.18344  0.68581  1.0000
  C   C321      1.0  0.02830  0.23875  0.67702  1.0000
  C   C322      1.0  0.06772  0.26276  0.57753  1.0000
  C   C323      1.0  0.25301  0.46421  0.91747  1.0000
  H   H269      1.0  0.19304  0.16276  0.70521  1.0000
  C   C324      1.0  0.00955  0.41714  0.92601  1.0000
  H   H270      1.0  0.23607  0.05170  0.80053  1.0000
  C   C325      1.0  0.25068  0.44100  0.93280  1.0000
  H   H271      1.0  0.22874  0.37579  0.99406  1.0000
  H   H272      1.0  0.05421  0.42344  0.96544  1.0000
  H   H273      1.0  0.24047  0.22857  0.61058  1.0000
  C   C326      1.0  0.25101  0.11951  0.57791  1.0000
  C   C327      1.0  0.25030  0.05829  0.78553  1.0000
  H   H274      1.0  0.13166  0.41055  0.99860  1.0000
  C   C328      1.0  0.03583  0.42078  0.95971  1.0000
  H   H275      1.0  0.02172  0.16126  0.65012  1.0000
  H   H276      1.0  0.17792  0.50778  0.93428  1.0000
  H   H277      1.0  0.23875  0.48037  0.91997  1.0000
  C   C329      1.0  0.03507  0.10314  0.51229  1.0000
  H   H278      1.0  0.22356  0.17962  0.52025  1.0000
  C   C330      1.0  0.01161  0.41038  0.54153  1.0000
  H   H279      1.0  0.18422  0.28072  0.51706  1.0000
  H   H280      1.0  0.01542  0.18904  0.60996  1.0000
  C   C331      1.0  0.09368  0.50096  0.76628  1.0000
  C   C332      1.0  0.11723  0.50116  0.94551  1.0000
  H   H281      1.0  0.18287  0.14090  0.51514  1.0000
  H   H282      1.0  0.25769  0.16732  0.59836  1.0000
  H   H283      1.0  0.24785  0.50204  0.83903  1.0000
  H   H284      1.0  0.01792  0.41437  0.99827  1.0000
  H   H285      1.0  0.25114  0.28539  0.86625  1.0000
  H   H286      1.0  0.14975  0.25543  0.50985  1.0000
  C   C333      1.0  0.04422  0.14719  0.51091  1.0000
  H   H287      1.0  0.06407  0.45063  0.50992  1.0000
  Fe  Fe25      1.0  0.11373  0.64197  0.38733  1.0000
  S   S49       1.0  0.13102  0.60149  0.39190  1.0000
  S   S50       1.0  0.07209  0.65275  0.38373  1.0000
  Fe  Fe26      1.0  0.16465  0.66211  0.38866  1.0000
  S   S51       1.0  0.18519  0.62260  0.39295  1.0000
  S   S52       1.0  0.18687  0.69471  0.39218  1.0000
  Fe  Fe27      1.0  0.16167  0.61546  0.36171  1.0000
  S   S53       1.0  0.17544  0.59706  0.32436  1.0000
  Fe  Fe28      1.0  0.15179  0.61414  0.42254  1.0000
  S   S54       1.0  0.14756  0.59494  0.46418  1.0000
  S   S55       1.0  0.14319  0.65557  0.35644  1.0000
  S   S56       1.0  0.13255  0.65399  0.41886  1.0000
  Fe  Fe29      1.0  0.15821  0.84270  0.38294  1.0000
  S   S57       1.0  0.15208  0.88375  0.36685  1.0000
  S   S58       1.0  0.15523  0.82779  0.42450  1.0000
  Fe  Fe30      1.0  0.16800  0.82453  0.33061  1.0000
  S   S59       1.0  0.16218  0.86433  0.31075  1.0000
  S   S60       1.0  0.17563  0.78995  0.30910  1.0000
  Fe  Fe31      1.0  0.18720  0.87406  0.33950  1.0000
  S   S61       1.0  0.22228  0.89718  0.33040  1.0000
  Fe  Fe32      1.0  0.12781  0.86907  0.34052  1.0000
  S   S62       1.0  0.08659  0.88757  0.33673  1.0000
  S   S63       1.0  0.19423  0.83390  0.35751  1.0000
  S   S64       1.0  0.13270  0.82860  0.35818  1.0000
  C   C334      1.0  0.22158  0.76525  0.02143  1.0000
  Fe  Fe33      1.0  0.16102  0.62485  0.17191  1.0000
  S   S65       1.0  0.19629  0.59754  0.17005  1.0000
  S   S66       1.0  0.14589  0.63886  0.21090  1.0000
  Fe  Fe34      1.0  0.15514  0.62230  0.11386  1.0000
  S   S67       1.0  0.18999  0.59458  0.10930  1.0000
  S   S68       1.0  0.13081  0.63296  0.08014  1.0000
  Fe  Fe35      1.0  0.17528  0.57594  0.14734  1.0000
  S   S69       1.0  0.18035  0.53364  0.15496  1.0000
  Fe  Fe36      1.0  0.20781  0.61906  0.13233  1.0000
  H   H288      1.0  0.22467  0.99921  0.47523  1.0000
  S   S70       1.0  0.13876  0.60161  0.15112  1.0000
  S   S71       1.0  0.17388  0.64878  0.13498  1.0000
  C   C335      1.0  0.07620  0.52204  0.49754  1.0000
  H   H289      1.0  0.24135  0.56798  0.05676  1.0000
  H   H290      1.0  0.10052  0.78380  0.46035  1.0000
  H   H291      1.0  0.19066  0.54668  0.01160  1.0000
  H   H292      1.0  0.08051  0.54175  0.49431  1.0000
  C   C336      1.0  0.13559  0.53352  0.13390  1.0000
  C   C337      1.0  0.14879  0.53233  0.05472  1.0000
  C   C338      1.0  0.06354  0.60386  0.44169  1.0000
  H   H293      1.0  0.09995  0.53204  0.11862  1.0000
  H   H294      1.0  0.13053  0.55258  0.13924  1.0000
  C   C339      1.0  0.11837  0.52199  0.12201  1.0000
  H   H295      1.0  0.22710  0.67327  0.12223  1.0000
  C   C340      1.0  0.13887  0.84901  0.44525  1.0000
  C   C341      1.0  0.12930  0.83922  0.46969  1.0000
  C   C342      1.0  0.11662  0.85566  0.48691  1.0000
  C   C343      1.0  0.11376  0.88207  0.47997  1.0000
  C   C344      1.0  0.12326  0.89198  0.45547  1.0000
  C   C345      1.0  0.13583  0.87543  0.43811  1.0000
  H   H296      1.0  0.13159  0.81884  0.47534  1.0000
  H   H297      1.0  0.18145  0.51474  0.29270  1.0000
  H   H298      1.0  0.12125  0.91238  0.45001  1.0000
  H   H299      1.0  0.14360  0.88318  0.41949  1.0000
  C   C346      1.0  0.16821  0.60971  0.29263  1.0000
  C   C347      1.0  0.17938  0.59711  0.27143  1.0000
  C   C348      1.0  0.17330  0.60602  0.24631  1.0000
  C   C349      1.0  0.15554  0.62742  0.24198  1.0000
  C   C350      1.0  0.14466  0.64015  0.26309  1.0000
  C   C351      1.0  0.15119  0.63163  0.28805  1.0000
  H   H300      1.0  0.19267  0.58022  0.27448  1.0000
  H   H301      1.0  0.18204  0.59614  0.23032  1.0000
  H   H302      1.0  0.13092  0.65670  0.26013  1.0000
  H   H303      1.0  0.14243  0.64173  0.30387  1.0000
  H   H304      1.0  0.02903  0.61308  0.02685  1.0000
  H   H305      1.0  0.05168  0.64072  0.29462  1.0000
  C   C352      1.0  0.03136  0.81928  0.41679  1.0000
  P   P12       1.0  0.07437  0.52560  0.44502  1.0000
  H   H306      1.0  0.13297  0.76363  0.36471  1.0000
  C   C353      1.0  0.12035  0.54358  0.02158  1.0000
  C   C354      1.0  0.01765  0.76432  0.46917  1.0000
  C   C355      1.0  0.18375  0.88151  0.50107  1.0000
  C   C356      1.0  0.06391  0.53862  0.30807  1.0000
  H   H307      1.0  0.18380  0.62833  0.47770  1.0000
  C   C357      1.0  0.18430  0.72050  0.36829  1.0000
  C   C358      1.0  0.19457  0.74292  0.37130  1.0000
  C   C359      1.0  0.19229  0.76409  0.35289  1.0000
  C   C360      1.0  0.18007  0.76284  0.33119  1.0000
  C   C361      1.0  0.17045  0.74017  0.32773  1.0000
  C   C362      1.0  0.17238  0.71905  0.34638  1.0000
  H   H308      1.0  0.20388  0.74410  0.38816  1.0000
  H   H309      1.0  0.20013  0.78132  0.35552  1.0000
  H   H310      1.0  0.16091  0.73922  0.31101  1.0000
  H   H311      1.0  0.16479  0.70171  0.34376  1.0000
  C   C363      1.0  0.20901  0.82484  0.48158  1.0000
  C   C364      1.0  0.04885  0.58518  0.37126  1.0000
  C   C365      1.0  0.06351  0.60329  0.37795  1.0000
  C   C366      1.0  0.05463  0.62935  0.37532  1.0000
  C   C367      1.0  0.19796  0.93833  0.45130  1.0000
  H   H312      1.0  0.22029  0.54221  0.18735  1.0000
  H   H313      1.0  0.05549  0.56506  0.37385  1.0000
  H   H314      1.0  0.08135  0.59698  0.38557  1.0000
  C   C368      1.0  0.09586  0.69954  0.47403  1.0000
  H   H315      1.0  0.14186  0.76858  0.44307  1.0000
  C   C369      1.0  0.05749  0.87402  0.33461  1.0000
  C   C370      1.0  0.04883  0.87466  0.31055  1.0000
  H   H316      1.0  0.19737  0.65217  0.18760  1.0000
  C   C371      1.0  0.04001  0.86891  0.35642  1.0000
  H   H317      1.0  0.06154  0.87946  0.29355  1.0000
  H   H318      1.0  0.04596  0.86929  0.37517  1.0000
  C   C372      1.0  0.21015  0.65456  0.20143  1.0000
  C   C373      1.0  0.09179  0.77692  0.47896  1.0000
  C   C374      1.0  0.20198  0.67079  0.22039  1.0000
  C   C375      1.0  0.05322  0.51838  0.32341  1.0000
  H   H319      1.0  0.18994  0.95958  0.38932  1.0000
  H   H320      1.0  0.20312  0.52074  0.24852  1.0000
  C   C376      1.0  0.02269  0.58807  0.45631  1.0000
  H   H321      1.0  0.17198  0.61252  0.04166  1.0000
  C   C377      1.0  0.14530  0.55336  0.23862  1.0000
  H   H322      1.0  0.21958  0.89474  0.27330  1.0000
  H   H323      1.0  0.02846  0.62798  0.44878  1.0000
  H   H324      1.0  0.12866  0.67138  0.47908  1.0000
  H   H325      1.0  0.03990  0.94880  0.38527  1.0000
  C   C378      1.0  0.07155  0.50927  0.47707  1.0000
  C   C379      1.0  0.13676  0.72881  0.24955  1.0000
  H   H326      1.0  0.03799  0.76536  0.46443  1.0000
  C   C380      1.0  0.03769  0.80367  0.39703  1.0000
  H   H327      1.0  0.25796  0.91348  0.28041  1.0000
  H   H328      1.0  0.20943  0.69411  0.50773  1.0000
  H   H329      1.0  0.04611  0.82856  0.42348  1.0000
  H   H330      1.0  0.17970  0.54543  0.21388  1.0000
  C   C381      1.0  0.09483  0.75091  0.48846  1.0000
  C   C382      1.0  0.19228  0.69435  0.07917  1.0000
  H   H331      1.0  0.06038  0.69448  0.41946  1.0000
  H   H332      1.0  0.21933  0.56396  0.22662  1.0000
  C   C383      1.0  0.09853  0.75681  0.32660  1.0000
  C   C384      1.0  0.06937  0.70284  0.47256  1.0000
  H   H333      1.0  0.20358  0.69046  0.46250  1.0000
  C   C385      1.0  0.21465  0.51527  0.08517  1.0000
  H   H334      1.0  0.17885  0.52538  0.40461  1.0000
  H   H335      1.0  0.15552  0.67795  0.03666  1.0000
  H   H336      1.0  0.01569  0.73543  0.32897  1.0000
  C   C386      1.0  0.22028  0.94930  0.45343  1.0000
  H   H337      1.0  0.21535  0.53546  0.50788  1.0000
  C   C387      1.0  0.23462  0.89730  0.25767  1.0000
  P   P13       1.0  0.11347  0.72723  0.47000  1.0000
  H   H338      1.0  0.20887  0.63391  0.05016  1.0000
  P   P14       1.0  0.09883  0.55969  0.26974  1.0000
  C   C388      1.0  0.20773  0.86835  0.43352  1.0000
  H   H339      1.0  0.14962  0.78448  0.39758  1.0000
  C   C389      1.0  0.22310  0.51344  0.03942  1.0000
  C   C390      1.0  0.21265  0.70232  0.03577  1.0000
  H   H340      1.0  0.07498  0.61972  0.43601  1.0000
  H   H341      1.0  0.03485  0.68443  0.47518  1.0000
  C   C391      1.0  0.12712  0.51465  0.44758  1.0000
  C   C392      1.0  0.10464  0.78157  0.31803  1.0000
  P   P15       1.0  0.20888  0.69640  0.26197  1.0000
  H   H342      1.0  0.10159  0.60351  0.23063  1.0000
  C   C393      1.0  0.17133  0.52537  0.27753  1.0000
  H   H343      1.0  0.03803  0.52244  0.33841  1.0000
  C   C394      1.0  0.09414  0.65360  0.48130  1.0000
  H   H344      1.0  0.10149  0.70907  0.42272  1.0000
  C   C395      1.0  0.04779  0.00223  0.50901  1.0000
  C   C396      1.0  0.06012  0.55679  0.20769  1.0000
  C   C397      1.0  0.22392  0.72559  0.25261  1.0000
  C   C398      1.0  0.23239  0.88938  0.23392  1.0000
  C   C399      1.0  0.21625  0.65570  0.29975  1.0000
  H   H345      1.0  0.10107  0.72323  0.27252  1.0000
  C   C400      1.0  0.03735  0.98652  0.43902  1.0000
  C   C401      1.0  0.25209  0.89215  0.21408  1.0000
  C   C402      1.0  0.02330  0.87110  0.30817  1.0000
  C   C403      1.0  0.17465  0.70469  0.26542  1.0000
  H   H346      1.0  0.04998  0.81532  0.34081  1.0000
  C   C404      1.0  0.06016  0.55813  0.44712  1.0000
  C   C405      1.0  0.03411  0.56295  0.45571  1.0000
  H   H347      1.0  0.25142  0.61786  0.06382  1.0000
  C   C406      1.0  0.02415  0.93459  0.35516  1.0000
  H   H348      1.0  0.11220  0.74062  0.32249  1.0000
  H   H349      1.0  0.16983  0.93336  0.42660  1.0000
  C   C407      1.0  0.08709  0.80256  0.32328  1.0000
  H   H350      1.0  0.06246  0.73726  0.39518  1.0000
  H   H351      1.0  0.05693  0.64066  0.48328  1.0000
  C   C408      1.0  0.10821  0.67470  0.47821  1.0000
  C   C409      1.0  0.18113  0.78281  0.48221  1.0000
  C   C410      1.0  0.13966  0.53504  0.39703  1.0000
  C   C411      1.0  0.18809  0.69900  0.47502  1.0000
  H   H352      1.0  0.21904  0.62466  0.32990  1.0000
  C   C412      1.0  0.06353  0.79882  0.33728  1.0000
  C   C413      1.0  0.19823  0.95704  0.40732  1.0000
  H   H353      1.0  0.18243  0.54453  0.47745  1.0000
  H   H354      1.0  0.02955  0.54097  0.41505  1.0000
  H   H355      1.0  0.23176  0.65126  0.36078  1.0000
  C   C414      1.0  0.19969  0.78831  0.46190  1.0000
  H   H356      1.0  0.05764  0.58407  0.17416  1.0000
  C   C415      1.0  0.01264  0.60882  0.01838  1.0000
  C   C416      1.0  0.21372  0.80913  0.46165  1.0000
  P   P16       1.0  0.22655  0.85233  0.48038  1.0000
  C   C417      1.0  0.23690  0.55072  0.19110  1.0000
  C   C418      1.0  0.17171  0.62255  0.49484  1.0000
  C   C419      1.0  0.02533  0.59316  0.36180  1.0000
  C   C420      1.0  0.23311  0.53714  0.03702  1.0000
  H   H357      1.0  0.02465  0.65736  0.36267  1.0000
  H   H358      1.0  0.10925  0.55852  0.01074  1.0000
  C   C421      1.0  0.24617  0.88613  0.44015  1.0000
  H   H359      1.0  0.07981  0.64505  0.32761  1.0000
  H   H360      1.0  0.20263  0.77692  0.44595  1.0000
  H   H361      1.0  0.22882  0.94541  0.47124  1.0000
  H   H362      1.0  0.22766  0.81343  0.44549  1.0000
  H   H363      1.0  0.21545  0.88086  0.23104  1.0000
  C   C422      1.0  0.17193  0.68510  0.06995  1.0000
  H   H364      1.0  0.18936  0.92649  0.46737  1.0000
  H   H365      1.0  0.17335  0.87406  0.48765  1.0000
  C   C423      1.0  0.13237  0.62727  0.04725  1.0000
  C   C424      1.0  0.20812  0.88179  0.40918  1.0000
  H   H366      1.0  0.19234  0.85668  0.44013  1.0000
  C   C425      1.0  0.13259  0.54945  0.26339  1.0000
  C   C426      1.0  0.09325  0.58706  0.28771  1.0000
  C   C427      1.0  0.10842  0.58921  0.30715  1.0000
  C   C428      1.0  0.10329  0.60987  0.32169  1.0000
  C   C429      1.0  0.08332  0.62876  0.31668  1.0000
  C   C430      1.0  0.22493  0.77080  0.25613  1.0000
  H   H367      1.0  0.19344  0.88004  0.39718  1.0000
  H   H368      1.0  0.20757  0.80410  0.02765  1.0000
  H   H369      1.0  0.12439  0.57523  0.31109  1.0000
  H   H370      1.0  0.11522  0.61154  0.33652  1.0000
  H   H371      1.0  0.11037  0.72481  0.37731  1.0000
  H   H372      1.0  0.13588  0.56411  0.22311  1.0000
  C   C431      1.0  0.22303  0.78898  0.02990  1.0000
  C   C432      1.0  0.16320  0.72211  0.24693  1.0000
  C   C433      1.0  0.07271  0.55419  0.07533  1.0000
  C   C434      1.0  0.08259  0.57599  0.08081  1.0000
  C   C435      1.0  0.06692  0.59901  0.08163  1.0000
  C   C436      1.0  0.04136  0.60032  0.07692  1.0000
  C   C437      1.0  0.22423  0.62755  0.03618  1.0000
  C   C438      1.0  0.04711  0.55537  0.07070  1.0000
  C   C439      1.0  0.22748  0.89734  0.40027  1.0000
  H   H373      1.0  0.24657  0.71428  0.10974  1.0000
  H   H374      1.0  0.05668  0.55798  0.31164  1.0000
  C   C440      1.0  0.24158  0.74562  0.02423  1.0000
  H   H375      1.0  0.17472  0.73054  0.23052  1.0000
  C   C441      1.0  0.15880  0.51990  0.13968  1.0000
  C   C442      1.0  0.24730  0.67311  0.11616  1.0000
  C   C443      1.0  0.03116  0.57846  0.07158  1.0000
  C   C444      1.0  0.13480  0.55082  0.03943  1.0000
  H   H376      1.0  0.02828  0.51413  0.26225  1.0000
  H   H377      1.0  0.09176  0.82181  0.31655  1.0000
  C   C445      1.0  0.15460  0.61766  0.03264  1.0000
  H   H378      1.0  0.25418  0.70932  0.22622  1.0000
  H   H379      1.0  0.09266  0.64098  0.04598  1.0000
  C   C446      1.0  0.12918  0.75658  0.38468  1.0000
  C   C447      1.0  0.12156  0.71810  0.27056  1.0000
  C   C448      1.0  0.05532  0.68170  0.47596  1.0000
  H   H380      1.0  0.10240  0.57510  0.08452  1.0000
  H   H381      1.0  0.07473  0.61587  0.08587  1.0000
  C   C449      1.0  0.24824  0.61854  0.04384  1.0000
  C   C450      1.0  0.11403  0.53502  0.40704  1.0000
  H   H382      1.0  0.18283  0.68050  0.22086  1.0000
  C   C451      1.0  0.02665  0.50951  0.39455  1.0000
  C   C452      1.0  0.24425  0.79310  0.04163  1.0000
  C   C453      1.0  0.25083  0.64414  0.21856  1.0000
  C   C454      1.0  0.15900  0.52504  0.41230  1.0000
  C   C455      1.0  0.22862  0.65957  0.34155  1.0000
  C   C456      1.0  0.14420  0.71819  0.48182  1.0000
  H   H383      1.0  0.06958  0.99658  0.45550  1.0000
  C   C457      1.0  0.15213  0.60733  0.49333  1.0000
  C   C458      1.0  0.05755  0.77405  0.34664  1.0000
  H   H384      1.0  0.13687  0.54266  0.49309  1.0000
  H   H385      1.0  0.21672  0.78798  0.26457  1.0000
  C   C459      1.0  0.02525  0.73862  0.38202  1.0000
  H   H386      1.0  0.19666  0.74822  0.27675  1.0000
  C   C460      1.0  0.25640  0.90825  0.26157  1.0000
  C   C461      1.0  0.08977  0.59043  0.22456  1.0000
  H   H387      1.0  0.08412  0.61380  0.18914  1.0000
  C   C462      1.0  0.19162  0.69375  0.02661  1.0000
  H   H388      1.0  0.12104  0.69220  0.30524  1.0000
  H   H389      1.0  0.15621  0.67845  0.08312  1.0000
  C   C463      1.0  0.07993  0.59630  0.20098  1.0000
  C   C464      1.0  0.07245  0.60558  0.28357  1.0000
  C   C465      1.0  0.11615  0.73498  0.39183  1.0000
  C   C466      1.0  0.23101  0.68548  0.33441  1.0000
  H   H390      1.0  0.15948  0.53795  0.06900  1.0000
  H   H391      1.0  0.05750  0.80062  0.38924  1.0000
  C   C467      1.0  0.07010  0.55077  0.23123  1.0000
  H   H392      1.0  0.09531  0.57579  0.43530  1.0000
  C   C468      1.0  0.22048  0.96816  0.40940  1.0000
  C   C469      1.0  0.08488  0.56762  0.23990  1.0000
  H   H393      1.0  0.25560  0.66249  0.25144  1.0000
  H   H394      1.0  0.20478  0.76211  0.01287  1.0000
  H   H395      1.0  0.11923  0.51742  0.22190  1.0000
  P   P17       1.0  0.02681  0.76974  0.36426  1.0000
  C   C470      1.0  0.10992  0.63331  0.03527  1.0000
  C   C471      1.0  0.15921  0.69399  0.28646  1.0000
  H   H396      1.0  0.01017  0.51904  0.38569  1.0000
  C   C472      1.0  0.06509  0.57952  0.19254  1.0000
  C   C473      1.0  0.01426  0.86517  0.35403  1.0000
  C   C474      1.0  0.07495  0.75299  0.34063  1.0000
  C   C475      1.0  0.24659  0.89941  0.41564  1.0000
  C   C476      1.0  0.13279  0.70069  0.28900  1.0000
  C   C477      1.0  0.22705  0.86997  0.44900  1.0000
  H   H397      1.0  0.07036  0.73365  0.34660  1.0000
  H   H398      1.0  0.22673  0.71698  0.30548  1.0000
  H   H399      1.0  0.19225  0.69507  0.09950  1.0000
  H   H400      1.0  0.20973  0.64401  0.28690  1.0000
  C   C478      1.0  0.22578  0.69665  0.31005  1.0000
  C   C479      1.0  0.18356  0.52886  0.25271  1.0000
  H   H401      1.0  0.08708  0.95149  0.46652  1.0000
  C   C480      1.0  0.03501  0.94114  0.43884  1.0000
  H   H402      1.0  0.10380  0.63448  0.48436  1.0000
  C   C481      1.0  0.16462  0.70746  0.46574  1.0000
  C   C482      1.0  0.13397  0.75938  0.42905  1.0000
  C   C483      1.0  0.17049  0.54280  0.23327  1.0000
  H   H403      1.0  0.02957  0.61843  0.07741  1.0000
  H   H404      1.0  0.06644  0.53292  0.24243  1.0000
  C   C484      1.0  0.23135  0.96488  0.43265  1.0000
  H   H405      1.0  0.05958  0.72178  0.46899  1.0000
  H   H406      1.0  0.22922  0.97924  0.39281  1.0000
  C   C485      1.0  0.11943  0.73869  0.43655  1.0000
  C   C486      1.0  0.21354  0.74813  0.26307  1.0000
  C   C487      1.0  0.22454  0.53878  0.08266  1.0000
  C   C488      1.0  0.17159  0.68482  0.04370  1.0000
  C   C489      1.0  0.18689  0.94225  0.42831  1.0000
  C   C490      1.0  0.13846  0.76847  0.40325  1.0000
  C   C491      1.0  0.07497  0.57878  0.44093  1.0000
  C   C492      1.0  0.05983  0.98110  0.45098  1.0000
  H   H407      1.0  0.16235  0.70513  0.44610  1.0000
  H   H408      1.0  0.22804  0.71023  0.06960  1.0000
  C   C493      1.0  0.03736  0.60852  0.44896  1.0000
  H   H409      1.0  0.16738  0.68051  0.30103  1.0000
  C   C494      1.0  0.01863  0.79201  0.38781  1.0000
  H   H410      1.0  0.08492  0.53629  0.07496  1.0000
  H   H411      1.0  0.22750  0.90799  0.38151  1.0000
  H   H412      1.0  0.16980  0.76712  0.48206  1.0000
  H   H413      1.0  0.12294  0.78454  0.30727  1.0000
  C   C495      1.0  0.11118  0.72609  0.41768  1.0000
  C   C496      1.0  0.04554  0.72754  0.39575  1.0000
  H   H414      1.0  0.13465  0.57083  0.04181  1.0000
  C   C497      1.0  0.21833  0.68183  0.29251  1.0000
  H   H415      1.0  0.12805  0.74228  0.23523  1.0000
  C   C498      1.0  0.15273  0.51472  0.43751  1.0000
  H   H416      1.0  0.02247  0.54730  0.46121  1.0000
  C   C499      1.0  0.21007  0.87444  0.50180  1.0000
  C   C500      1.0  0.10759  0.52504  0.43246  1.0000
  H   H417      1.0  0.04265  0.92706  0.34650  1.0000
  C   C501      1.0  0.03143  0.63724  0.36527  1.0000
  C   C502      1.0  0.08393  0.53372  0.28884  1.0000
  H   H418      1.0  0.02181  0.67202  0.42120  1.0000
  C   C503      1.0  0.02244  0.94679  0.37736  1.0000
  H   H419      1.0  0.02562  0.92544  0.43424  1.0000
  H   H420      1.0  0.03993  0.53817  0.06674  1.0000
  C   C504      1.0  0.21252  0.70290  0.06218  1.0000
  C   C505      1.0  0.14773  0.72052  0.50724  1.0000
  H   H421      1.0  0.22530  0.54830  0.09951  1.0000
  C   C506      1.0  0.24582  0.72622  0.23485  1.0000
  C   C507      1.0  0.25407  0.88787  0.33919  1.0000
  C   C508      1.0  0.22139  0.64466  0.32418  1.0000
  C   C509      1.0  0.06975  0.95576  0.45710  1.0000
  C   C510      1.0  0.14593  0.53549  0.28284  1.0000
  H   H422      1.0  0.01110  0.61641  0.26439  1.0000
  C   C511      1.0  0.06765  0.62643  0.29789  1.0000
  H   H423      1.0  0.04871  0.54373  0.20109  1.0000
  H   H424      1.0  0.14455  0.54321  0.37754  1.0000
  C   C512      1.0  0.21835  0.67409  0.23844  1.0000
  C   C513      1.0  0.24670  0.77126  0.23850  1.0000
  H   H425      1.0  0.05980  0.60394  0.26942  1.0000
  C   C514      1.0  0.23635  0.56287  0.21318  1.0000
  C   C515      1.0  0.04413  0.70371  0.41008  1.0000
  C   C516      1.0  0.06772  0.65708  0.48042  1.0000
  S   S72       1.0  0.09927  0.90248  0.50242  1.0000
  C   C517      1.0  0.23457  0.64132  0.20040  1.0000
  C   C518      1.0  0.05730  0.93580  0.45109  1.0000
  C   C519      1.0  0.24273  0.66035  0.23759  1.0000
  H   H426      1.0  0.23584  0.69717  0.34821  1.0000
  P   P18       1.0  0.23880  0.71468  0.01450  1.0000
  H   H427      1.0  0.25050  0.88565  0.19578  1.0000
  C   C520      1.0  0.11990  0.51758  0.01870  1.0000
  H   H428      1.0  0.13659  0.53210  0.30208  1.0000
  H   H429      1.0  0.06510  0.91617  0.45587  1.0000
  H   H430      1.0  0.24753  0.84987  0.35600  1.0000
  H   H431      1.0  0.09923  0.54314  0.39507  1.0000
  C   C521      1.0  0.17692  0.53925  0.49759  1.0000
  C   C522      1.0  0.23367  0.54978  0.05857  1.0000
  H   H432      1.0  0.01698  0.87273  0.28931  1.0000
  H   H433      1.0  0.25721  0.99032  0.29716  1.0000
  C   C523      1.0  0.02511  0.96655  0.43229  1.0000
  C   C524      1.0  0.03767  0.52188  0.41166  1.0000
  C   C525      1.0  0.01707  0.61925  0.35813  1.0000
  H   H434      1.0  0.24051  0.54579  0.01849  1.0000
  H   H435      1.0  0.02976  0.00626  0.43505  1.0000
  C   C526      1.0  0.02229  0.69103  0.41118  1.0000
  C   C527      1.0  0.15114  0.53819  0.50646  1.0000
  H   H436      1.0  0.01305  0.74775  0.43509  1.0000
  H   H437      1.0  0.07609  0.81491  0.48676  1.0000
  H   H438      1.0  0.02025  0.52671  0.50870  1.0000
  C   C528      1.0  0.24238  0.99228  0.48328  1.0000
  C   C529      1.0  0.19138  0.70110  0.50043  1.0000
  C   C530      1.0  0.07755  0.79477  0.49380  1.0000
  H   H439      1.0  0.25544  0.67080  0.05153  1.0000
  C   C531      1.0  0.17684  0.79788  0.50246  1.0000
  C   C532      1.0  0.19096  0.81860  0.50240  1.0000
  C   C533      1.0  0.05924  0.50996  0.42315  1.0000
  S   S73       1.0  0.25004  0.62039  0.12237  1.0000
  H   H440      1.0  0.04315  0.91446  0.50659  1.0000
  H   H441      1.0  0.24080  0.62888  0.18552  1.0000
  H   H442      1.0  0.10905  0.84769  0.50554  1.0000
  H   H443      1.0  0.24529  0.81139  0.04843  1.0000
  H   H444      1.0  0.25539  0.78891  0.23310  1.0000
  H   H445      1.0  0.01145  0.58050  0.29901  1.0000
  C   C534      1.0  0.22012  0.62854  0.01050  1.0000
  H   H446      1.0  0.01648  0.78127  0.50406  1.0000
  H   H447      1.0  0.25716  0.58350  0.23486  1.0000
  C   C535      1.0  0.25766  0.57409  0.21772  1.0000
  H   H448      1.0  0.25808  0.54147  0.15607  1.0000
  C   C536      1.0  0.25714  0.74899  0.22785  1.0000
  C   C537      1.0  0.24372  0.99336  0.50933  1.0000
  C   C538      1.0  0.10926  0.62947  0.00960  1.0000
  Fe  Fe37      1.0  0.06597  0.86077  0.58880  1.0000
  S   S74       1.0  0.07175  0.84772  0.54969  1.0000
  S   S75       1.0  0.02604  0.85964  0.61152  1.0000
  Fe  Fe38      1.0  0.12508  0.86564  0.58843  1.0000
  S   S76       1.0  0.13360  0.85283  0.54948  1.0000
  S   S77       1.0  0.15828  0.87698  0.60778  1.0000
  Fe  Fe39      1.0  0.09830  0.87823  0.54019  1.0000
  Fe  Fe40      1.0  0.10630  0.82366  0.56294  1.0000
  S   S78       1.0  0.11727  0.78360  0.55294  1.0000
  S   S79       1.0  0.09075  0.89340  0.57840  1.0000
  S   S80       1.0  0.09962  0.83449  0.60289  1.0000
  Fe  Fe41      1.0  0.10441  0.61032  0.64953  1.0000
  S   S81       1.0  0.14629  0.59666  0.64512  1.0000
  S   S82       1.0  0.07301  0.58435  0.65721  1.0000
  Fe  Fe42      1.0  0.11384  0.66554  0.64462  1.0000
  S   S83       1.0  0.15639  0.65650  0.63967  1.0000
  S   S84       1.0  0.09357  0.70449  0.64919  1.0000
  Fe  Fe43      1.0  0.14869  0.62875  0.61252  1.0000
  C   C539      1.0  0.05923  0.58609  0.77131  1.0000
  Fe  Fe44      1.0  0.14959  0.62569  0.67253  1.0000
  S   S85       1.0  0.17185  0.61884  0.70809  1.0000
  S   S86       1.0  0.10662  0.64037  0.61574  1.0000
  S   S87       1.0  0.10765  0.63669  0.67854  1.0000
  Fe  Fe45      1.0  0.15291  0.61364  0.92391  1.0000
  S   S88       1.0  0.19498  0.60246  0.92278  1.0000
  S   S89       1.0  0.12777  0.61542  0.96236  1.0000
  Fe  Fe46      1.0  0.15496  0.61702  0.86340  1.0000
  S   S90       1.0  0.19733  0.60620  0.85947  1.0000
  S   S91       1.0  0.13288  0.62514  0.82760  1.0000
  Fe  Fe47      1.0  0.18938  0.57737  0.89326  1.0000
  S   S92       1.0  0.20723  0.53678  0.89476  1.0000
  Fe  Fe48      1.0  0.19819  0.63266  0.88934  1.0000
  S   S93       1.0  0.22652  0.66115  0.88903  1.0000
  S   S94       1.0  0.14678  0.58631  0.89606  1.0000
  S   S95       1.0  0.15621  0.64570  0.89167  1.0000
  C   C540      1.0  0.04853  0.64931  0.71594  1.0000
  C   C541      1.0  0.13127  0.62041  0.99465  1.0000
  C   C542      1.0  0.16212  0.52837  0.55007  1.0000
  H   H449      1.0  0.20281  0.52798  0.65627  1.0000
  H   H450      1.0  0.03363  0.69968  0.67213  1.0000
  C   C543      1.0  0.11994  0.53540  0.59071  1.0000
  H   H451      1.0  0.10958  0.55528  0.96541  1.0000
  C   C544      1.0  0.01886  0.94632  0.55758  1.0000
  H   H452      1.0  0.04940  0.56591  0.59909  1.0000
  C   C545      1.0  0.22427  0.69502  0.94581  1.0000
  H   H453      1.0  0.24503  0.72608  0.68836  1.0000
  C   C546      1.0  0.19145  0.52104  0.87502  1.0000
  C   C547      1.0  0.17495  0.53514  0.85852  1.0000
  H   H454      1.0  0.21936  0.90766  0.55065  1.0000
  C   C548      1.0  0.18064  0.51599  0.95135  1.0000
  C   C549      1.0  0.17328  0.53699  0.60147  1.0000
  C   C550      1.0  0.22545  0.71776  0.92962  1.0000
  H   H455      1.0  0.17227  0.55572  0.85747  1.0000
  C   C551      1.0  0.05019  0.67277  0.70092  1.0000
  C   C552      1.0  0.07884  0.53385  0.98418  1.0000
  H   H456      1.0  0.22019  0.67789  0.93845  1.0000
  H   H457      1.0  0.06591  0.68389  0.70190  1.0000
  H   H458      1.0  0.08118  0.59090  0.94683  1.0000
  H   H459      1.0  0.15005  0.90271  0.51786  1.0000
  C   C553      1.0  0.02886  0.63427  0.71379  1.0000
  H   H460      1.0  0.24322  0.63041  0.84763  1.0000
  C   C554      1.0  0.16024  0.62065  0.74121  1.0000
  C   C555      1.0  0.17675  0.61166  0.76010  1.0000
  C   C556      1.0  0.16855  0.61251  0.78643  1.0000
  C   C557      1.0  0.14382  0.62285  0.79446  1.0000
  C   C558      1.0  0.12729  0.63192  0.77559  1.0000
  C   C559      1.0  0.13539  0.63086  0.74922  1.0000
  H   H461      1.0  0.19601  0.60379  0.75434  1.0000
  H   H462      1.0  0.18126  0.60510  0.80065  1.0000
  H   H463      1.0  0.10803  0.63987  0.78141  1.0000
  H   H464      1.0  0.12232  0.63792  0.73515  1.0000
  C   C560      1.0  0.19226  0.86974  0.60148  1.0000
  C   C561      1.0  0.20868  0.88345  0.61239  1.0000
  C   C562      1.0  0.20332  0.85042  0.58657  1.0000
  H   H465      1.0  0.20050  0.89833  0.62410  1.0000
  H   H466      1.0  0.19115  0.83953  0.57813  1.0000
  C   C563      1.0  0.10998  0.76133  0.57926  1.0000
  C   C564      1.0  0.09234  0.76844  0.59958  1.0000
  C   C565      1.0  0.08727  0.75085  0.62101  1.0000
  C   C566      1.0  0.09961  0.72600  0.62199  1.0000
  C   C567      1.0  0.11692  0.71867  0.60150  1.0000
  C   C568      1.0  0.12206  0.73635  0.58012  1.0000
  H   H467      1.0  0.08237  0.78741  0.59870  1.0000
  H   H468      1.0  0.07376  0.75650  0.63679  1.0000
  H   H469      1.0  0.12645  0.69945  0.60217  1.0000
  H   H470      1.0  0.13575  0.73081  0.56452  1.0000
  C   C569      1.0  0.24666  0.85902  0.59325  1.0000
  C   C570      1.0  0.01925  0.54127  0.69868  1.0000
  C   C571      1.0  0.04534  0.60259  0.64739  1.0000
  C   C572      1.0  0.04549  0.62892  0.64136  1.0000
  C   C573      1.0  0.06599  0.78683  0.51807  1.0000
  H   H471      1.0  0.07975  0.51921  0.53787  1.0000
  C   C574      1.0  0.15322  0.53041  0.70531  1.0000
  H   H472      1.0  0.06136  0.63832  0.64512  1.0000
  H   H473      1.0  0.18797  0.56896  0.73092  1.0000
  H   H474      1.0  0.03164  0.52500  0.69240  1.0000
  C   C575      1.0  0.22855  0.69428  0.97140  1.0000
  H   H475      1.0  0.15499  0.54967  0.94284  1.0000
  H   H476      1.0  0.23934  0.75638  0.97166  1.0000
  P   P19       1.0  0.23819  0.66408  0.76649  1.0000
  H   H477      1.0  0.07743  0.53026  0.65810  1.0000
  H   H478      1.0  0.16206  0.79384  0.51790  1.0000
  H   H479      1.0  0.05682  0.93057  0.54408  1.0000
  P   P20       1.0  0.02594  0.60458  0.73423  1.0000
  C   C576      1.0  0.08337  0.57834  0.77953  1.0000
  C   C577      1.0  0.15416  0.61460  0.00630  1.0000
  H   H480      1.0  0.01089  0.99748  0.55259  1.0000
  H   H481      1.0  0.12143  0.58855  0.51538  1.0000
  H   H482      1.0  0.12375  0.57173  0.76824  1.0000
  H   H483      1.0  0.11943  0.58218  0.72193  1.0000
  C   C578      1.0  0.05665  0.59259  0.74516  1.0000
  C   C579      1.0  0.10501  0.57681  0.76174  1.0000
  C   C580      1.0  0.16775  0.53906  0.75236  1.0000
  H   H484      1.0  0.21797  0.56958  0.63797  1.0000
  H   H485      1.0  0.01553  0.55397  0.98126  1.0000
  H   H486      1.0  0.05577  0.80075  0.52991  1.0000
  H   H487      1.0  0.18733  0.82991  0.51838  1.0000
  H   H488      1.0  0.13243  0.72873  0.52006  1.0000
  C   C581      1.0  0.16190  0.52264  0.84307  1.0000
  C   C582      1.0  0.11429  0.56124  0.59462  1.0000
  C   C583      1.0  0.23022  0.84490  0.58285  1.0000
  C   C584      1.0  0.13679  0.60010  0.51610  1.0000
  S   S96       1.0  0.17004  0.62891  0.57168  1.0000
  H   H489      1.0  0.01659  0.74992  0.59473  1.0000
  C   C585      1.0  0.17652  0.62935  0.51877  1.0000
  H   H490      1.0  0.24861  0.83462  0.66857  1.0000
  H   H491      1.0  0.09645  0.52059  0.75923  1.0000
  C   C586      1.0  0.06900  0.55730  0.59657  1.0000
  H   H492      1.0  0.16120  0.56879  0.98157  1.0000
  H   H493      1.0  0.17441  0.56211  0.68949  1.0000
  C   C587      1.0  0.20953  0.90076  0.53644  1.0000
  C   C588      1.0  0.25168  0.57627  0.76987  1.0000
  C   C589      1.0  0.23370  0.82281  0.66663  1.0000
  C   C590      1.0  0.20177  0.51415  0.98985  1.0000
  C   C591      1.0  0.01182  0.66740  0.68256  1.0000
  C   C592      1.0  0.21500  0.67208  0.69464  1.0000
  C   C593      1.0  0.21946  0.66278  0.71971  1.0000
  C   C594      1.0  0.23314  0.61432  0.78908  1.0000
  C   C595      1.0  0.07300  0.57484  0.95831  1.0000
  H   H494      1.0  0.02234  0.63221  0.98316  1.0000
  C   C596      1.0  0.20989  0.67254  0.78759  1.0000
  C   C597      1.0  0.18555  0.67471  0.77907  1.0000
  C   C598      1.0  0.16368  0.67984  0.79591  1.0000
  C   C599      1.0  0.16587  0.68242  0.82145  1.0000
  C   C600      1.0  0.18999  0.68027  0.83011  1.0000
  H   H495      1.0  0.02051  0.82931  0.56867  1.0000
  H   H496      1.0  0.20397  0.66173  0.68412  1.0000
  H   H497      1.0  0.21184  0.64522  0.72815  1.0000
  C   C601      1.0  0.19706  0.53701  0.63810  1.0000
  C   C602      1.0  0.14491  0.51522  0.72766  1.0000
  H   H498      1.0  0.17355  0.54228  0.77057  1.0000
  H   H499      1.0  0.18321  0.67160  0.75975  1.0000
  H   H500      1.0  0.14489  0.68071  0.78949  1.0000
  H   H501      1.0  0.14882  0.68539  0.83467  1.0000
  H   H502      1.0  0.19166  0.68187  0.85003  1.0000
  C   C603      1.0  0.17579  0.55415  0.73008  1.0000
  C   C604      1.0  0.09980  0.52064  0.58951  1.0000
  C   C605      1.0  0.23561  0.87833  0.60817  1.0000
  C   C606      1.0  0.18198  0.56057  0.59138  1.0000
  P   P21       1.0  0.15269  0.52214  0.58397  1.0000
  C   C607      1.0  0.20570  0.56037  0.62778  1.0000
  H   H503      1.0  0.22231  0.71811  0.90970  1.0000
  H   H504      1.0  0.07615  0.84565  0.66983  1.0000
  C   C608      1.0  0.08551  0.51215  0.66717  1.0000
  H   H505      1.0  0.12902  0.60188  0.55697  1.0000
  H   H506      1.0  0.02325  0.57069  0.64920  1.0000
  H   H507      1.0  0.22124  0.62272  0.80458  1.0000
  H   H508      1.0  0.25561  0.58064  0.84544  1.0000
  H   H509      1.0  0.22837  0.54623  0.84365  1.0000
  C   C609      1.0  0.23317  0.71644  0.98132  1.0000
  H   H510      1.0  0.14866  0.52679  0.68679  1.0000
  H   H511      1.0  0.20472  0.59032  0.59646  1.0000
  H   H512      1.0  0.09144  0.63394  0.00114  1.0000
  H   H513      1.0  0.08469  0.59216  0.60026  1.0000
  H   H514      1.0  0.06272  0.64302  0.72908  1.0000
  C   C610      1.0  0.16778  0.53969  0.95611  1.0000
  H   H515      1.0  0.23036  0.67303  0.82068  1.0000
  C   C611      1.0  0.17157  0.55057  0.97784  1.0000
  H   H516      1.0  0.08629  0.98476  0.51198  1.0000
  C   C612      1.0  0.08278  0.74312  0.51279  1.0000
  C   C613      1.0  0.02351  0.59106  0.64455  1.0000
  C   C614      1.0  0.18808  0.52876  0.54092  1.0000
  C   C615      1.0  0.18848  0.53792  0.99472  1.0000
  C   C616      1.0  0.03609  0.55403  0.97777  1.0000
  H   H517      1.0  0.23595  0.55001  0.94189  1.0000
  H   H518      1.0  0.05893  0.52009  0.59193  1.0000
  H   H519      1.0  0.23642  0.62180  0.97257  1.0000
  H   H520      1.0  0.02525  0.95315  0.57396  1.0000
  C   C617      1.0  0.23334  0.67612  0.73376  1.0000
  H   H521      1.0  0.25321  0.70980  0.73255  1.0000
  H   H522      1.0  0.19226  0.64039  0.51960  1.0000
  H   H523      1.0  0.07382  0.79884  0.67432  1.0000
  H   H524      1.0  0.24343  0.88081  0.51950  1.0000
  C   C618      1.0  0.02916  0.92455  0.51945  1.0000
  C   C619      1.0  0.23543  0.80930  0.64536  1.0000
  H   H525      1.0  0.17367  0.71324  0.53629  1.0000
  C   C620      1.0  0.15243  0.51961  0.75119  1.0000
  H   H526      1.0  0.23198  0.75741  0.92646  1.0000
  H   H527      1.0  0.17131  0.60732  0.99521  1.0000
  C   C621      1.0  0.24425  0.62972  0.76833  1.0000
  C   C622      1.0  0.10256  0.58278  0.73569  1.0000
  C   C623      1.0  0.19825  0.57205  0.60440  1.0000
  C   C624      1.0  0.24894  0.54210  0.84159  1.0000
  C   C625      1.0  0.04653  0.57443  0.96246  1.0000
  H   H528      1.0  0.24671  0.83406  0.52887  1.0000
  C   C626      1.0  0.03685  0.93362  0.54068  1.0000
  C   C627      1.0  0.08908  0.55464  0.96902  1.0000
  C   C628      1.0  0.07441  0.53152  0.59271  1.0000
  H   H529      1.0  0.08501  0.72326  0.52075  1.0000
  C   C629      1.0  0.23087  0.73981  0.93909  1.0000
  C   C630      1.0  0.17046  0.89780  0.51813  1.0000
  C   C631      1.0  0.03191  0.68177  0.68418  1.0000
  C   C632      1.0  0.23480  0.73919  0.96485  1.0000
  C   C633      1.0  0.23639  0.58774  0.78952  1.0000
  C   C634      1.0  0.19540  0.53438  0.51479  1.0000
  C   C635      1.0  0.24252  0.69906  0.72229  1.0000
  H   H530      1.0  0.02532  0.66391  0.62607  1.0000
  C   C636      1.0  0.21192  0.67531  0.81331  1.0000
  C   C637      1.0  0.00891  0.61972  0.99352  1.0000
  C   C638      1.0  0.16830  0.55007  0.70663  1.0000
  H   H531      1.0  0.22045  0.70216  0.66401  1.0000
  C   C639      1.0  0.16147  0.62173  0.54160  1.0000
  H   H532      1.0  0.12934  0.57317  0.59542  1.0000
  H   H533      1.0  0.24469  0.71457  0.77997  1.0000
  H   H534      1.0  0.07692  0.59580  0.70726  1.0000
  H   H535      1.0  0.25124  0.56982  0.97638  1.0000
  C   C640      1.0  0.01304  0.81141  0.56735  1.0000
  H   H536      1.0  0.06017  0.75501  0.54667  1.0000
  H   H537      1.0  0.04959  0.55757  0.71200  1.0000
  H   H538      1.0  0.08546  0.57418  0.79976  1.0000
  H   H539      1.0  0.03417  0.59003  0.95388  1.0000
  H   H540      1.0  0.14889  0.53363  0.83061  1.0000
  C   C641      1.0  0.02054  0.78977  0.58355  1.0000
  C   C642      1.0  0.14114  0.60753  0.53989  1.0000
  H   H541      1.0  0.20263  0.52514  0.55400  1.0000
  H   H542      1.0  0.22812  0.67640  0.98356  1.0000
  C   C643      1.0  0.14665  0.70788  0.68711  1.0000
  C   C644      1.0  0.15750  0.70433  0.71018  1.0000
  C   C645      1.0  0.17167  0.72291  0.71641  1.0000
  C   C646      1.0  0.17513  0.74498  0.69948  1.0000
  C   C647      1.0  0.16439  0.74863  0.67612  1.0000
  C   C648      1.0  0.14992  0.72994  0.67023  1.0000
  P   P22       1.0  0.16719  0.77785  0.65477  1.0000
  C   C649      1.0  0.13827  0.79928  0.65974  1.0000
  C   C650      1.0  0.19416  0.79384  0.66027  1.0000
  C   C651      1.0  0.19277  0.80725  0.68179  1.0000
  C   C652      1.0  0.21247  0.82165  0.68493  1.0000
  C   C653      1.0  0.18321  0.90694  0.53619  1.0000
  C   C654      1.0  0.17123  0.71191  0.51650  1.0000
  C   C655      1.0  0.21582  0.79483  0.64217  1.0000
  C   C656      1.0  0.13929  0.82588  0.65663  1.0000
  C   C657      1.0  0.11704  0.84248  0.66073  1.0000
  C   C658      1.0  0.09349  0.83273  0.66746  1.0000
  C   C659      1.0  0.09218  0.80636  0.66993  1.0000
  C   C660      1.0  0.11444  0.78968  0.66607  1.0000
  C   C661      1.0  0.17154  0.77146  0.62176  1.0000
  C   C662      1.0  0.18190  0.74730  0.61485  1.0000
  C   C663      1.0  0.18641  0.74307  0.58909  1.0000
  C   C664      1.0  0.18131  0.76307  0.57007  1.0000
  C   C665      1.0  0.17172  0.78729  0.57682  1.0000
  C   C666      1.0  0.16664  0.79147  0.60252  1.0000
  H   H543      1.0  0.13535  0.69365  0.68239  1.0000
  H   H544      1.0  0.15484  0.68716  0.72315  1.0000
  H   H545      1.0  0.17998  0.72018  0.73437  1.0000
  H   H546      1.0  0.18607  0.75908  0.70478  1.0000
  H   H547      1.0  0.14084  0.73250  0.65267  1.0000
  H   H548      1.0  0.17602  0.80730  0.69566  1.0000
  H   H549      1.0  0.21093  0.83259  0.70114  1.0000
  H   H550      1.0  0.17262  0.91850  0.55025  1.0000
  H   H551      1.0  0.04285  0.58759  0.78551  1.0000
  H   H552      1.0  0.21739  0.78519  0.62511  1.0000
  H   H553      1.0  0.15712  0.83401  0.65046  1.0000
  H   H554      1.0  0.11803  0.86296  0.65773  1.0000
  H   H555      1.0  0.17611  0.57029  0.57348  1.0000
  C   C667      1.0  0.06844  0.76100  0.52749  1.0000
  H   H556      1.0  0.11276  0.76941  0.66761  1.0000
  H   H557      1.0  0.18657  0.73170  0.62921  1.0000
  H   H558      1.0  0.19366  0.72423  0.58387  1.0000
  H   H559      1.0  0.18439  0.75976  0.55012  1.0000
  H   H560      1.0  0.16746  0.80273  0.56213  1.0000
  H   H561      1.0  0.15909  0.81040  0.60727  1.0000
  C   C668      1.0  0.02940  0.55989  0.70990  1.0000
  C   C669      1.0  0.23800  0.70835  0.69716  1.0000
  H   H562      1.0  0.23833  0.82932  0.57212  1.0000
  C   C670      1.0  0.02469  0.64356  0.63112  1.0000
  H   H563      1.0  0.20158  0.63592  0.00450  1.0000
  C   C671      1.0  0.24000  0.62060  0.99244  1.0000
  C   C672      1.0  0.07849  0.59062  0.72743  1.0000
  H   H564      1.0  0.25163  0.81076  0.63086  1.0000
  C   C673      1.0  0.05216  0.53376  0.98858  1.0000
  H   H565      1.0  0.25683  0.55628  0.89771  1.0000
  H   H566      1.0  0.12361  0.53278  0.53903  1.0000
  H   H567      1.0  0.10203  0.52962  0.69485  1.0000
  C   C674      1.0  0.08894  0.57215  0.59724  1.0000
  C   C675      1.0  0.01356  0.58119  0.71801  1.0000
  C   C676      1.0  0.22424  0.69486  0.68335  1.0000
  H   H568      1.0  0.22646  0.57614  0.80486  1.0000
  H   H569      1.0  0.10383  0.51727  0.94005  1.0000
  C   C677      1.0  0.22304  0.88498  0.51900  1.0000
  C   C678      1.0  0.25203  0.56133  0.93775  1.0000
  C   C679      1.0  0.14371  0.53283  0.53259  1.0000
  C   C680      1.0  0.25698  0.65072  0.87508  1.0000
  H   H570      1.0  0.03382  0.79098  0.59733  1.0000
  H   H571      1.0  0.19005  0.69429  0.00647  1.0000
  H   H572      1.0  0.04368  0.51806  0.00018  1.0000
  C   C681      1.0  0.18101  0.52531  0.62501  1.0000
  H   H573      1.0  0.22724  0.00119  0.52116  1.0000
  H   H574      1.0  0.24778  0.88932  0.61654  1.0000
  H   H575      1.0  0.01085  0.53638  0.92488  1.0000
  H   H576      1.0  0.01088  0.65122  0.75990  1.0000
  C   C682      1.0  0.09982  0.51172  0.68782  1.0000
  C   C683      1.0  0.01075  0.76671  0.58210  1.0000
  C   C684      1.0  0.07595  0.50929  0.52225  1.0000
  H   H577      1.0  0.06640  0.51158  0.79765  1.0000
  H   H578      1.0  0.03977  0.98412  0.51080  1.0000
  C   C685      1.0  0.01052  0.64355  0.69694  1.0000
  H   H579      1.0  0.25411  0.55564  0.77034  1.0000
  C   C686      1.0  0.07404  0.00258  0.50953  1.0000
  Fe  Fe49      1.0  0.31377  0.12781  0.35828  1.0000
  S   S97       1.0  0.32178  0.09393  0.33597  1.0000
  S   S98       1.0  0.27283  0.14045  0.37520  1.0000
  Fe  Fe50      1.0  0.37229  0.13030  0.36106  1.0000
  S   S99       1.0  0.38330  0.09637  0.33966  1.0000
  S   S100      1.0  0.40320  0.15039  0.37504  1.0000
  Fe  Fe51      1.0  0.35383  0.11429  0.31401  1.0000
  S   S101      1.0  0.36315  0.10948  0.27204  1.0000
  Fe  Fe52      1.0  0.35038  0.07940  0.36342  1.0000
  S   S102      1.0  0.35082  0.03862  0.38081  1.0000
  S   S103      1.0  0.34401  0.14982  0.33405  1.0000
  S   S104      1.0  0.34118  0.11188  0.38730  1.0000
  Fe  Fe53      1.0  0.39590  0.19977  0.15055  1.0000
  S   S105      1.0  0.36069  0.20268  0.13022  1.0000
  S   S106      1.0  0.39290  0.20325  0.19280  1.0000
  Fe  Fe54      1.0  0.43075  0.20029  0.10118  1.0000
  S   S107      1.0  0.39802  0.20326  0.07749  1.0000
  S   S108      1.0  0.46998  0.20205  0.08008  1.0000
  Fe  Fe55      1.0  0.37946  0.23299  0.10296  1.0000
  S   S109      1.0  0.35995  0.27191  0.08699  1.0000
  Fe  Fe56      1.0  0.38322  0.17258  0.10714  1.0000
  S   S110      1.0  0.36517  0.13846  0.09630  1.0000
  S   S111      1.0  0.41331  0.23146  0.12473  1.0000
  S   S112      1.0  0.41728  0.16810  0.12939  1.0000
  Fe  Fe57      1.0  0.37084  0.48375  0.08816  1.0000
  C   C687      1.0  0.41412  0.03164  0.24230  1.0000
  H   H580      1.0  0.31659  0.17179  0.18202  1.0000
  Fe  Fe58      1.0  0.36702  0.42456  0.08917  1.0000
  S   S113      1.0  0.33552  0.43146  0.06357  1.0000
  S   S114      1.0  0.38372  0.38440  0.10453  1.0000
  Fe  Fe59      1.0  0.35851  0.46165  0.04173  1.0000
  Fe  Fe60      1.0  0.31956  0.46244  0.08810  1.0000
  S   S115      1.0  0.27806  0.46954  0.10356  1.0000
  S   S116      1.0  0.39123  0.45279  0.06540  1.0000
  S   S117      1.0  0.34994  0.45454  0.11505  1.0000
  H   H581      1.0  0.44793  0.04136  0.15745  1.0000
  C   C688      1.0  0.50748  0.18048  0.14255  1.0000
  C   C689      1.0  0.45402  0.47799  0.04624  1.0000
  H   H582      1.0  0.38587  0.38635  0.04466  1.0000
  H   H583      1.0  0.28664  0.41912  0.08548  1.0000
  C   C690      1.0  0.47117  0.13094  0.18489  1.0000
  C   C691      1.0  0.49220  0.03486  0.10181  1.0000
  H   H584      1.0  0.41990  0.23040  0.26263  1.0000
  C   C692      1.0  0.34501  0.05007  0.45033  1.0000
  H   H585      1.0  0.32281  0.02654  0.11379  1.0000
  C   C693      1.0  0.36648  0.30307  0.09249  1.0000
  C   C694      1.0  0.38333  0.30676  0.10983  1.0000
  C   C695      1.0  0.38829  0.33170  0.11322  1.0000
  C   C696      1.0  0.37626  0.35341  0.09965  1.0000
  C   C697      1.0  0.35900  0.34977  0.08265  1.0000
  C   C698      1.0  0.35430  0.32480  0.07902  1.0000
  H   H586      1.0  0.39270  0.29037  0.12055  1.0000
  H   H587      1.0  0.40156  0.33415  0.12652  1.0000
  H   H588      1.0  0.34934  0.36616  0.07222  1.0000
  H   H589      1.0  0.34116  0.32230  0.06562  1.0000
  C   C699      1.0  0.36954  0.10466  0.09423  1.0000
  C   C700      1.0  0.38900  0.08759  0.10477  1.0000
  C   C701      1.0  0.35342  0.06840  0.07918  1.0000
  C   C702      1.0  0.35177  0.09462  0.08172  1.0000
  H   H590      1.0  0.40276  0.09495  0.11467  1.0000
  H   H591      1.0  0.33657  0.10733  0.07364  1.0000
  C   C703      1.0  0.43722  0.14600  0.37541  1.0000
  C   C704      1.0  0.45362  0.12625  0.36469  1.0000
  C   C705      1.0  0.44807  0.16366  0.38732  1.0000
  H   H592      1.0  0.44552  0.11238  0.35557  1.0000
  H   H593      1.0  0.43584  0.17894  0.39573  1.0000
  H   H594      1.0  0.44592  0.33145  0.01752  1.0000
  C   C706      1.0  0.32042  0.15116  0.18345  1.0000
  C   C707      1.0  0.37084  0.13584  0.25015  1.0000
  C   C708      1.0  0.37626  0.13265  0.22409  1.0000
  C   C709      1.0  0.38234  0.15339  0.20614  1.0000
  C   C710      1.0  0.38343  0.17730  0.21432  1.0000
  C   C711      1.0  0.37812  0.18043  0.24037  1.0000
  C   C712      1.0  0.37180  0.15976  0.25827  1.0000
  H   H595      1.0  0.37559  0.11419  0.21771  1.0000
  H   H596      1.0  0.38642  0.15083  0.18607  1.0000
  H   H597      1.0  0.37897  0.19890  0.24675  1.0000
  H   H598      1.0  0.36774  0.16234  0.27831  1.0000
  C   C713      1.0  0.31066  0.30281  0.16036  1.0000
  C   C714      1.0  0.40340  0.18342  0.30918  1.0000
  S   S118      1.0  0.33912  0.49353  0.06333  1.0000
  H   H599      1.0  0.30678  0.14570  0.22346  1.0000
  C   C715      1.0  0.41401  0.05748  0.23314  1.0000
  H   H600      1.0  0.43725  0.04730  0.32345  1.0000
  H   H601      1.0  0.33947  0.06141  0.06916  1.0000
  C   C716      1.0  0.46638  0.03761  0.09770  1.0000
  C   C717      1.0  0.27942  0.04168  0.16372  1.0000
  C   C718      1.0  0.45753  0.05535  0.07814  1.0000
  H   H602      1.0  0.38902  0.22289  0.30118  1.0000
  C   C719      1.0  0.46591  0.13809  0.23699  1.0000
  H   H603      1.0  0.26141  0.31161  0.05054  1.0000
  C   C720      1.0  0.48711  0.31469  0.07916  1.0000
  H   H604      1.0  0.27596  0.47974  0.16202  1.0000
  C   C721      1.0  0.49401  0.19475  0.10057  1.0000
  C   C722      1.0  0.32049  0.10988  0.20875  1.0000
  C   C723      1.0  0.44260  0.06516  0.31315  1.0000
  H   H605      1.0  0.39704  0.06806  0.22630  1.0000
  H   H606      1.0  0.49887  0.02048  0.11655  1.0000
  C   C724      1.0  0.31080  0.36621  0.13751  1.0000
  H   H607      1.0  0.36913  0.25622  0.18037  1.0000
  C   C725      1.0  0.29421  0.40960  0.14453  1.0000
  H   H608      1.0  0.31698  0.05369  0.42369  1.0000
  H   H609      1.0  0.32625  0.35303  0.13000  1.0000
  C   C726      1.0  0.26099  0.45240  0.19196  1.0000
  H   H610      1.0  0.49802  0.33034  0.08067  1.0000
  H   H611      1.0  0.47726  0.44264  0.04250  1.0000
  H   H612      1.0  0.30205  0.29083  0.06637  1.0000
  H   H613      1.0  0.26391  0.24724  0.48020  1.0000
  C   C727      1.0  0.45758  0.27494  0.07618  1.0000
  C   C728      1.0  0.44617  0.30009  0.07535  1.0000
  C   C729      1.0  0.46088  0.31995  0.07698  1.0000
  H   H614      1.0  0.45323  0.02575  0.10941  1.0000
  H   H615      1.0  0.39034  0.18029  0.32634  1.0000
  C   C730      1.0  0.33079  0.31199  0.17041  1.0000
  C   C731      1.0  0.31493  0.13646  0.20676  1.0000
  H   H616      1.0  0.33644  0.48735  0.22088  1.0000
  C   C732      1.0  0.36180  0.01855  0.35713  1.0000
  H   H617      1.0  0.30555  0.39337  0.04411  1.0000
  H   H618      1.0  0.29645  0.13829  0.50198  1.0000
  H   H619      1.0  0.49854  0.10964  0.23949  1.0000
  C   C733      1.0  0.50022  0.06787  0.06680  1.0000
  H   H620      1.0  0.45193  0.19557  0.24939  1.0000
  H   H621      1.0  0.27670  0.02601  0.12854  1.0000
  H   H622      1.0  0.43555  0.08998  0.22576  1.0000
  C   C734      1.0  0.33799  0.02063  0.27087  1.0000
  C   C735      1.0  0.26567  0.31401  0.06955  1.0000
  H   H623      1.0  0.44612  0.25940  0.07542  1.0000
  H   H624      1.0  0.42585  0.30408  0.07382  1.0000
  H   H625      1.0  0.37696  0.48665  0.14582  1.0000
  C   C736      1.0  0.28973  0.37038  0.02040  1.0000
  C   C737      1.0  0.31419  0.39213  0.13583  1.0000
  C   C738      1.0  0.47092  0.09870  0.30538  1.0000
  H   H626      1.0  0.47422  0.06685  0.24188  1.0000
  H   H627      1.0  0.29177  0.35322  0.03369  1.0000
  C   C739      1.0  0.35820  0.48436  0.18422  1.0000
  H   H628      1.0  0.29586  0.26881  0.15168  1.0000
  C   C740      1.0  0.48530  0.12043  0.22710  1.0000
  C   C741      1.0  0.41199  0.02613  0.16949  1.0000
  H   H629      1.0  0.33041  0.33193  0.17299  1.0000
  H   H630      1.0  0.39303  0.01977  0.29716  1.0000
  C   C742      1.0  0.33235  0.25978  0.16610  1.0000
  C   C743      1.0  0.28924  0.03276  0.14040  1.0000
  C   C744      1.0  0.45782  0.05653  0.24200  1.0000
  H   H631      1.0  0.35364  0.07686  0.23880  1.0000
  C   C745      1.0  0.28844  0.30226  0.07844  1.0000
  H   H632      1.0  0.45176  0.33938  0.07696  1.0000
  H   H633      1.0  0.49306  0.10936  0.35772  1.0000
  H   H634      1.0  0.37372  0.04876  0.32890  1.0000
  H   H635      1.0  0.43806  0.15865  0.18237  1.0000
  C   C746      1.0  0.42738  0.07830  0.29501  1.0000
  H   H636      1.0  0.42105  0.11224  0.26908  1.0000
  C   C747      1.0  0.49879  0.28942  0.07984  1.0000
  C   C748      1.0  0.43819  0.19184  0.26587  1.0000
  C   C749      1.0  0.43837  0.16737  0.27944  1.0000
  H   H637      1.0  0.46208  0.48146  0.06322  1.0000
  C   C750      1.0  0.33080  0.02290  0.22630  1.0000
  P   P23       1.0  0.46291  0.14247  0.27056  1.0000
  C   C751      1.0  0.42026  0.21172  0.27350  1.0000
  C   C752      1.0  0.46423  0.07548  0.31848  1.0000
  H   H638      1.0  0.27957  0.44222  0.19481  1.0000
  H   H639      1.0  0.29670  0.42976  0.14262  1.0000
  C   C753      1.0  0.48371  0.26962  0.07849  1.0000
  C   C754      1.0  0.25902  0.47358  0.17355  1.0000
  C   C755      1.0  0.40458  0.38204  0.03456  1.0000
  C   C756      1.0  0.32178  0.05099  0.17055  1.0000
  H   H640      1.0  0.48788  0.10618  0.30964  1.0000
  C   C757      1.0  0.33146  0.04222  0.14703  1.0000
  C   C758      1.0  0.37269  0.05120  0.08936  1.0000
  C   C759      1.0  0.35188  0.29526  0.17738  1.0000
  C   C760      1.0  0.29759  0.39302  0.02625  1.0000
  C   C761      1.0  0.45542  0.11219  0.28746  1.0000
  C   C762      1.0  0.28111  0.02097  0.40613  1.0000
  H   H641      1.0  0.42134  0.14508  0.31299  1.0000
  H   H642      1.0  0.47542  0.15610  0.31878  1.0000
  H   H643      1.0  0.33222  0.39869  0.12739  1.0000
  C   C763      1.0  0.30606  0.03475  0.48733  1.0000
  H   H644      1.0  0.31562  0.09906  0.22693  1.0000
  H   H645      1.0  0.43279  0.16421  0.22794  1.0000
  C   C764      1.0  0.38387  0.01205  0.31532  1.0000
  C   C765      1.0  0.34976  0.04452  0.47590  1.0000
  C   C766      1.0  0.43586  0.06986  0.23277  1.0000
  H   H646      1.0  0.40497  0.04782  0.11122  1.0000
  H   H647      1.0  0.46834  0.18491  0.13405  1.0000
  H   H648      1.0  0.29644  0.05342  0.38330  1.0000
  C   C767      1.0  0.43454  0.49530  0.03677  1.0000
  C   C768      1.0  0.43615  0.01815  0.25126  1.0000
  C   C769      1.0  0.41888  0.40194  0.02373  1.0000
  H   H649      1.0  0.30210  0.43244  0.01334  1.0000
  H   H650      1.0  0.50211  0.25021  0.12224  1.0000
  H   H651      1.0  0.29067  0.02891  0.50126  1.0000
  H   H652      1.0  0.46746  0.08425  0.04763  1.0000
  H   H653      1.0  0.41066  0.42144  0.02506  1.0000
  C   C770      1.0  0.32073  0.04846  0.44337  1.0000
  H   H654      1.0  0.31189  0.29636  0.10920  1.0000
  H   H655      1.0  0.26935  0.20217  0.47062  1.0000
  C   C771      1.0  0.42104  0.16338  0.30140  1.0000
  H   H656      1.0  0.43764  0.05715  0.07460  1.0000
  C   C772      1.0  0.40284  0.20750  0.29514  1.0000
  C   C773      1.0  0.33010  0.03749  0.49475  1.0000
  C   C774      1.0  0.42781  0.04578  0.16345  1.0000
  C   C775      1.0  0.31136  0.27646  0.15884  1.0000
  C   C776      1.0  0.26670  0.42296  0.09205  1.0000
  S   S119      1.0  0.37229  0.01811  0.08534  1.0000
  H   H657      1.0  0.41029  0.07065  0.29112  1.0000
  H   H658      1.0  0.33299  0.23952  0.16462  1.0000
  C   C777      1.0  0.29560  0.05091  0.17869  1.0000
  C   C778      1.0  0.29392  0.30523  0.10300  1.0000
  P   P24       1.0  0.28331  0.32397  0.15071  1.0000
  H   H659      1.0  0.28769  0.05820  0.19652  1.0000
  P   P25       1.0  0.34199  0.06386  0.18979  1.0000
  C   C779      1.0  0.37546  0.05723  0.17857  1.0000
  C   C780      1.0  0.33243  0.09789  0.18755  1.0000
  C   C781      1.0  0.33671  0.11271  0.16392  1.0000
  C   C782      1.0  0.33091  0.13923  0.16196  1.0000
  C   C783      1.0  0.47441  0.07054  0.06279  1.0000
  C   C784      1.0  0.39159  0.07687  0.17274  1.0000
  C   C785      1.0  0.41762  0.07113  0.16513  1.0000
  H   H660      1.0  0.40312  0.34134  0.04090  1.0000
  C   C786      1.0  0.27942  0.04560  0.39302  1.0000
  C   C787      1.0  0.38598  0.03180  0.17716  1.0000
  C   C788      1.0  0.33879  0.04755  0.22179  1.0000
  C   C789      1.0  0.42348  0.49047  0.01544  1.0000
  C   C790      1.0  0.27649  0.31969  0.11903  1.0000
  H   H661      1.0  0.47350  0.12881  0.16463  1.0000
  C   C791      1.0  0.34599  0.04509  0.26652  1.0000
  C   C792      1.0  0.34669  0.05829  0.24202  1.0000
  C   C793      1.0  0.48799  0.18657  0.12644  1.0000
  H   H662      1.0  0.34506  0.10384  0.14704  1.0000
  H   H663      1.0  0.33485  0.15054  0.14375  1.0000
  H   H664      1.0  0.38440  0.09663  0.17425  1.0000
  H   H665      1.0  0.42983  0.08643  0.16043  1.0000
  C   C794      1.0  0.45823  0.03050  0.25139  1.0000
  C   C795      1.0  0.31524  0.03303  0.13209  1.0000
  H   H666      1.0  0.31649  0.48255  0.01389  1.0000
  C   C796      1.0  0.49211  0.15782  0.30500  1.0000
  C   C797      1.0  0.49173  0.15226  0.27981  1.0000
  C   C798      1.0  0.47450  0.16187  0.38873  1.0000
  H   H667      1.0  0.35196  0.05380  0.28204  1.0000
  C   C799      1.0  0.35273  0.26920  0.17509  1.0000
  H   H668      1.0  0.27226  0.48800  0.03301  1.0000
  H   H669      1.0  0.35998  0.05614  0.43582  1.0000
  C   C800      1.0  0.44854  0.15127  0.22076  1.0000
  C   C801      1.0  0.43353  0.10190  0.28251  1.0000
  H   H670      1.0  0.35140  0.04271  0.13996  1.0000
  H   H671      1.0  0.49210  0.24994  0.07939  1.0000
  H   H672      1.0  0.50281  0.17409  0.16256  1.0000
  C   C802      1.0  0.36208  0.49526  0.15892  1.0000
  H   H673      1.0  0.36861  0.04640  0.48088  1.0000
  C   C803      1.0  0.28766  0.35744  0.14879  1.0000
  H   H674      1.0  0.36766  0.30249  0.18450  1.0000
  C   C804      1.0  0.45130  0.14787  0.19480  1.0000
  C   C805      1.0  0.39038  0.06087  0.10261  1.0000
  H   H675      1.0  0.26899  0.33590  0.20314  1.0000
  H   H676      1.0  0.36996  0.46718  0.19063  1.0000
  H   H677      1.0  0.37406  0.01634  0.18199  1.0000
  C   C806      1.0  0.30134  0.04048  0.46177  1.0000
  C   C807      1.0  0.26733  0.37524  0.15656  1.0000
  C   C808      1.0  0.48056  0.12455  0.36591  1.0000
  C   C809      1.0  0.37303  0.02848  0.33335  1.0000
  H   H678      1.0  0.48216  0.17579  0.39823  1.0000
  C   C810      1.0  0.48809  0.11708  0.20108  1.0000
  C   C811      1.0  0.49111  0.14254  0.37802  1.0000
  C   C812      1.0  0.50455  0.06101  0.43893  1.0000
  C   C813      1.0  0.33933  0.49573  0.20121  1.0000
  C   C814      1.0  0.46248  0.45585  0.03442  1.0000
  C   C815      1.0  0.43849  0.35115  0.01934  1.0000
  H   H679      1.0  0.48547  0.39232  0.04019  1.0000
  C   C816      1.0  0.27062  0.40122  0.15443  1.0000
  C   C817      1.0  0.41435  0.35666  0.03242  1.0000
  H   H680      1.0  0.39716  0.02198  0.24239  1.0000
  H   H681      1.0  0.47569  0.06566  0.33303  1.0000
  H   H682      1.0  0.35705  0.41860  0.01582  1.0000
  H   H683      1.0  0.28251  0.03927  0.45628  1.0000
  C   C818      1.0  0.25895  0.01060  0.41817  1.0000
  H   H684      1.0  0.50315  0.03605  0.30383  1.0000
  H   H685      1.0  0.32527  0.01375  0.21096  1.0000
  C   C819      1.0  0.45152  0.45086  0.01286  1.0000
  C   C820      1.0  0.33043  0.00954  0.25075  1.0000
  C   C821      1.0  0.50067  0.39858  0.02611  1.0000
  H   H686      1.0  0.25919  0.04185  0.17000  1.0000
  H   H687      1.0  0.50357  0.10407  0.19339  1.0000
  H   H688      1.0  0.29977  0.01026  0.40683  1.0000
  C   C822      1.0  0.27615  0.49033  0.01233  1.0000
  C   C823      1.0  0.44342  0.39658  0.01129  1.0000
  H   H689      1.0  0.48603  0.05659  0.43507  1.0000
  P   P26       1.0  0.48753  0.01272  0.26118  1.0000
  H   H690      1.0  0.50161  0.09793  0.41664  1.0000
  H   H691      1.0  0.33793  0.01026  0.28979  1.0000
  C   C824      1.0  0.25883  0.15817  0.50903  1.0000
  C   C825      1.0  0.32903  0.01264  0.78321  1.0000
  Fe  Fe61      1.0  0.39943  0.10542  0.59629  1.0000
  S   S120      1.0  0.40262  0.09879  0.63808  1.0000
  S   S121      1.0  0.43559  0.11072  0.56857  1.0000
  Fe  Fe62      1.0  0.33929  0.10410  0.60476  1.0000
  S   S122      1.0  0.33970  0.09669  0.64748  1.0000
  S   S123      1.0  0.30255  0.11248  0.58421  1.0000
  Fe  Fe63      1.0  0.36739  0.12640  0.64206  1.0000
  S   S124      1.0  0.36796  0.15948  0.66447  1.0000
  Fe  Fe64      1.0  0.37506  0.06977  0.63869  1.0000
  S   S125      1.0  0.38631  0.03039  0.65760  1.0000
  S   S126      1.0  0.36566  0.13539  0.59993  1.0000
  S   S127      1.0  0.37311  0.07478  0.59634  1.0000
  Fe  Fe65      1.0  0.38677  0.11045  0.84701  1.0000
  S   S128      1.0  0.39072  0.11006  0.80464  1.0000
  S   S129      1.0  0.38929  0.07301  0.87409  1.0000
  Fe  Fe66      1.0  0.38209  0.17100  0.84233  1.0000
  S   S130      1.0  0.38549  0.17369  0.79962  1.0000
  S   S131      1.0  0.37653  0.20756  0.86310  1.0000
  Fe  Fe67      1.0  0.35942  0.14252  0.80496  1.0000
  S   S132      1.0  0.32702  0.14156  0.78122  1.0000
  Fe  Fe68      1.0  0.41625  0.14099  0.80341  1.0000
  S   S133      1.0  0.45384  0.14008  0.77891  1.0000
  S   S134      1.0  0.35350  0.14149  0.84774  1.0000
  S   S135      1.0  0.41468  0.13980  0.84593  1.0000
  H   H692      1.0  0.32684  0.48709  0.96668  1.0000
  H   H693      1.0  0.35593  0.33227  0.82893  1.0000
  Fe  Fe69      1.0  0.39426  0.35917  0.84890  1.0000
  S   S136      1.0  0.35647  0.36402  0.87267  1.0000
  S   S137      1.0  0.40939  0.32149  0.83205  1.0000
  Fe  Fe70      1.0  0.40466  0.41600  0.85308  1.0000
  S   S138      1.0  0.36755  0.42359  0.87709  1.0000
  S   S139      1.0  0.43305  0.44635  0.84207  1.0000
  Fe  Fe71      1.0  0.37729  0.38449  0.89708  1.0000
  S   S140      1.0  0.37444  0.37429  0.93944  1.0000
  Fe  Fe72      1.0  0.35071  0.40252  0.84998  1.0000
  S   S141      1.0  0.31466  0.42184  0.83431  1.0000
  S   S142      1.0  0.41553  0.37766  0.87494  1.0000
  S   S143      1.0  0.38736  0.39687  0.82425  1.0000
  H   H694      1.0  0.30562  0.37053  0.85708  1.0000
  C   C826      1.0  0.36980  0.44370  0.98299  1.0000
  C   C827      1.0  0.37813  0.44571  0.95688  1.0000
  C   C828      1.0  0.37954  0.42439  0.94339  1.0000
  C   C829      1.0  0.37282  0.40104  0.95604  1.0000
  C   C830      1.0  0.36487  0.39895  0.98223  1.0000
  C   C831      1.0  0.36327  0.42033  0.99568  1.0000
  H   H695      1.0  0.38375  0.46363  0.94713  1.0000
  H   H696      1.0  0.38639  0.42593  0.92337  1.0000
  H   H697      1.0  0.35976  0.38086  0.99210  1.0000
  C   C832      1.0  0.34697  0.49892  0.81261  1.0000
  C   C833      1.0  0.37850  0.46364  0.80222  1.0000
  C   C834      1.0  0.38482  0.23944  0.85329  1.0000
  C   C835      1.0  0.37613  0.25887  0.86921  1.0000
  C   C836      1.0  0.38259  0.28418  0.86258  1.0000
  C   C837      1.0  0.39846  0.29042  0.84013  1.0000
  C   C838      1.0  0.40710  0.27104  0.82419  1.0000
  C   C839      1.0  0.40011  0.24588  0.83052  1.0000
  H   H698      1.0  0.36452  0.25425  0.88699  1.0000
  H   H699      1.0  0.37591  0.29866  0.87524  1.0000
  H   H700      1.0  0.41940  0.27547  0.80681  1.0000
  H   H701      1.0  0.40688  0.23138  0.81794  1.0000
  C   C840      1.0  0.47696  0.12546  0.79848  1.0000
  C   C841      1.0  0.46967  0.10899  0.82003  1.0000
  C   C842      1.0  0.48718  0.09957  0.83751  1.0000
  H   H702      1.0  0.50627  0.06309  0.79788  1.0000
  C   C843      1.0  0.26964  0.25380  0.60005  1.0000
  H   H703      1.0  0.29973  0.23318  0.71118  1.0000
  H   H704      1.0  0.45041  0.10365  0.82345  1.0000
  H   H705      1.0  0.48107  0.08775  0.85467  1.0000
  H   H706      1.0  0.42566  0.14759  0.65932  1.0000
  C   C844      1.0  0.26942  0.26202  0.89596  1.0000
  C   C845      1.0  0.46819  0.11262  0.57338  1.0000
  C   C846      1.0  0.48422  0.12280  0.55260  1.0000
  H   H707      1.0  0.39857  0.05667  0.78136  1.0000
  C   C847      1.0  0.47857  0.10481  0.59668  1.0000
  H   H708      1.0  0.47666  0.12881  0.53448  1.0000
  H   H709      1.0  0.50130  0.32069  0.97855  1.0000
  H   H710      1.0  0.46654  0.09689  0.61291  1.0000
  C   C848      1.0  0.35559  0.15464  0.69657  1.0000
  C   C849      1.0  0.33510  0.14006  0.70443  1.0000
  C   C850      1.0  0.32553  0.13695  0.73040  1.0000
  C   C851      1.0  0.33716  0.14747  0.74851  1.0000
  C   C852      1.0  0.35758  0.16194  0.74049  1.0000
  C   C853      1.0  0.36638  0.16602  0.71455  1.0000
  H   H711      1.0  0.32651  0.13145  0.69053  1.0000
  H   H712      1.0  0.30971  0.12576  0.73657  1.0000
  H   H713      1.0  0.36635  0.17034  0.75425  1.0000
  H   H714      1.0  0.38189  0.17763  0.70836  1.0000
  H   H715      1.0  0.27424  0.35188  0.99271  1.0000
  H   H716      1.0  0.46609  0.22999  0.70906  1.0000
  C   C854      1.0  0.27972  0.36974  0.99724  1.0000
  C   C855      1.0  0.38935  0.03948  0.87189  1.0000
  C   C856      1.0  0.39166  0.02836  0.84881  1.0000
  H   H717      1.0  0.45391  0.19826  0.93217  1.0000
  C   C857      1.0  0.31095  0.24025  0.88373  1.0000
  H   H718      1.0  0.38564  0.03146  0.91280  1.0000
  H   H719      1.0  0.39261  0.04064  0.83104  1.0000
  C   C858      1.0  0.31654  0.01108  0.72963  1.0000
  C   C859      1.0  0.50440  0.10818  0.59911  1.0000
  H   H720      1.0  0.32360  0.04511  0.80535  1.0000
  S   S144      1.0  0.36753  0.47066  0.99937  1.0000
  H   H721      1.0  0.39880  0.11171  0.53273  1.0000
  C   C860      1.0  0.34526  0.01962  0.63611  1.0000
  C   C861      1.0  0.50692  0.41194  0.79695  1.0000
  P   P27       1.0  0.26562  0.39015  0.94934  1.0000
  H   H722      1.0  0.35088  0.47100  0.91152  1.0000
  H   H723      1.0  0.33933  0.03992  0.63478  1.0000
  C   C862      1.0  0.29187  0.44567  0.89501  1.0000
  H   H724      1.0  0.45035  0.26513  0.98556  1.0000
  H   H725      1.0  0.32981  0.46871  0.76495  1.0000
  C   C863      1.0  0.43395  0.47985  0.84392  1.0000
  C   C864      1.0  0.48489  0.16129  0.63237  1.0000
  C   C865      1.0  0.47920  0.16847  0.60722  1.0000
  H   H726      1.0  0.47160  0.36648  0.99854  1.0000
  H   H727      1.0  0.31386  0.15610  0.53665  1.0000
  C   C866      1.0  0.26423  0.09076  0.75233  1.0000
  C   C867      1.0  0.49503  0.41284  0.00295  1.0000
  C   C868      1.0  0.43527  0.16025  0.61975  1.0000
  C   C869      1.0  0.42569  0.02824  0.58524  1.0000
  C   C870      1.0  0.28892  0.32755  0.91017  1.0000
  C   C871      1.0  0.46596  0.15260  0.65121  1.0000
  H   H728      1.0  0.39222  0.10308  0.71435  1.0000
  C   C872      1.0  0.30142  0.48727  0.00151  1.0000
  C   C873      1.0  0.46242  0.02824  0.84460  1.0000
  H   H729      1.0  0.28668  0.18574  0.56305  1.0000
  H   H730      1.0  0.49588  0.37789  0.91772  1.0000
  C   C874      1.0  0.28439  0.15161  0.51334  1.0000
  H   H731      1.0  0.41173  0.29642  0.98843  1.0000
  H   H732      1.0  0.35176  0.12025  0.54115  1.0000
  H   H733      1.0  0.26976  0.25845  0.61938  1.0000
  C   C875      1.0  0.27530  0.02034  0.58300  1.0000
  C   C876      1.0  0.27413  0.22872  0.68374  1.0000
  H   H734      1.0  0.26204  0.43933  0.82853  1.0000
  C   C877      1.0  0.43190  0.46837  0.00354  1.0000
  C   C878      1.0  0.47535  0.19861  0.79217  1.0000
  H   H735      1.0  0.49336  0.45215  0.79134  1.0000
  C   C879      1.0  0.27866  0.17856  0.54780  1.0000
  P   P28       1.0  0.48394  0.01409  0.79674  1.0000
  H   H736      1.0  0.28061  0.31579  0.89870  1.0000
  H   H737      1.0  0.46534  0.47675  0.91481  1.0000
  C   C880      1.0  0.37956  0.08872  0.72212  1.0000
  H   H738      1.0  0.50801  0.14389  0.77679  1.0000
  H   H739      1.0  0.35247  0.04005  0.70376  1.0000
  C   C881      1.0  0.47731  0.38336  0.78754  1.0000
  H   H740      1.0  0.49902  0.15109  0.72716  1.0000
  H   H741      1.0  0.30072  0.08198  0.73135  1.0000
  C   C882      1.0  0.41853  0.49434  0.86170  1.0000
  H   H742      1.0  0.29199  0.49812  0.93861  1.0000
  H   H743      1.0  0.37125  0.10335  0.75846  1.0000
  C   C883      1.0  0.28760  0.38090  0.85283  1.0000
  H   H744      1.0  0.36139  0.01054  0.57269  1.0000
  C   C884      1.0  0.44730  0.04095  0.58533  1.0000
  C   C885      1.0  0.42533  0.18589  0.73298  1.0000
  C   C886      1.0  0.43628  0.20894  0.72960  1.0000
  C   C887      1.0  0.45767  0.21207  0.71185  1.0000
  C   C888      1.0  0.46829  0.19201  0.69778  1.0000
  C   C889      1.0  0.45769  0.16859  0.70153  1.0000
  C   C890      1.0  0.43576  0.16584  0.71882  1.0000
  P   P29       1.0  0.47257  0.14280  0.68383  1.0000
  H   H745      1.0  0.39632  0.45215  0.80551  1.0000
  C   C891      1.0  0.46033  0.11283  0.69628  1.0000
  C   C892      1.0  0.46107  0.10419  0.72225  1.0000
  C   C893      1.0  0.45197  0.08103  0.73240  1.0000
  C   C894      1.0  0.44249  0.06592  0.71661  1.0000
  C   C895      1.0  0.44222  0.07403  0.69054  1.0000
  C   C896      1.0  0.45133  0.09730  0.68033  1.0000
  H   H746      1.0  0.40887  0.18338  0.74679  1.0000
  H   H747      1.0  0.42815  0.22431  0.74076  1.0000
  H   H748      1.0  0.34520  0.33328  0.93255  1.0000
  C   C897      1.0  0.29892  0.01771  0.56817  1.0000
  H   H749      1.0  0.42681  0.14823  0.72178  1.0000
  H   H750      1.0  0.46861  0.11543  0.73477  1.0000
  H   H751      1.0  0.45241  0.07503  0.75256  1.0000
  H   H752      1.0  0.43519  0.04805  0.72457  1.0000
  H   H753      1.0  0.43469  0.06241  0.67828  1.0000
  H   H754      1.0  0.45149  0.10292  0.66002  1.0000
  H   H755      1.0  0.50211  0.07970  0.66049  1.0000
  C   C898      1.0  0.45920  0.40419  0.78264  1.0000
  C   C899      1.0  0.35558  0.05717  0.53225  1.0000
  C   C900      1.0  0.36746  0.00967  0.64713  1.0000
  H   H756      1.0  0.47595  0.20005  0.77155  1.0000
  H   H757      1.0  0.31557  0.50569  0.78907  1.0000
  H   H758      1.0  0.34067  0.07284  0.77558  1.0000
  C   C901      1.0  0.47180  0.31329  0.94247  1.0000
  C   C902      1.0  0.33471  0.01065  0.82839  1.0000
  C   C903      1.0  0.45448  0.16767  0.60085  1.0000
  C   C904      1.0  0.28526  0.41460  0.98586  1.0000
  C   C905      1.0  0.47184  0.28951  0.95745  1.0000
  C   C906      1.0  0.45024  0.28346  0.97395  1.0000
  C   C907      1.0  0.42849  0.30108  0.97563  1.0000
  C   C908      1.0  0.42834  0.32477  0.96084  1.0000
  C   C909      1.0  0.44987  0.33091  0.94430  1.0000
  H   H759      1.0  0.48154  0.27931  0.90221  1.0000
  H   H760      1.0  0.33481  0.02020  0.84536  1.0000
  H   H761      1.0  0.32440  0.08635  0.54051  1.0000
  C   C910      1.0  0.47783  0.38369  0.85782  1.0000
  C   C911      1.0  0.48466  0.39066  0.88043  1.0000
  C   C912      1.0  0.49144  0.37193  0.90007  1.0000
  H   H762      1.0  0.26772  0.26081  0.73631  1.0000
  C   C913      1.0  0.50586  0.13804  0.68936  1.0000
  H   H763      1.0  0.47525  0.04795  0.65068  1.0000
  C   C914      1.0  0.26890  0.41988  0.92919  1.0000
  H   H764      1.0  0.30762  0.44735  0.88011  1.0000
  C   C915      1.0  0.29426  0.16180  0.53273  1.0000
  C   C916      1.0  0.38680  0.09652  0.53256  1.0000
  P   P30       1.0  0.46210  0.42220  0.99739  1.0000
  H   H765      1.0  0.39128  0.03361  0.52419  1.0000
  C   C917      1.0  0.26798  0.27285  0.87069  1.0000
  H   H766      1.0  0.41146  0.33843  0.96226  1.0000
  H   H767      1.0  0.44925  0.34943  0.93309  1.0000
  H   H768      1.0  0.48394  0.13074  0.88582  1.0000
  C   C918      1.0  0.26298  0.41957  0.83670  1.0000
  H   H769      1.0  0.47157  0.39836  0.84310  1.0000
  H   H770      1.0  0.48407  0.41064  0.88294  1.0000
  H   H771      1.0  0.48864  0.27574  0.95662  1.0000
  H   H772      1.0  0.44988  0.05816  0.57246  1.0000
  C   C919      1.0  0.28956  0.42238  0.91018  1.0000
  C   C920      1.0  0.36030  0.10139  0.53708  1.0000
  C   C921      1.0  0.50805  0.05832  0.77842  1.0000
  C   C922      1.0  0.27723  0.39188  0.97983  1.0000
  C   C923      1.0  0.38235  0.05235  0.52813  1.0000
  H   H773      1.0  0.38167  0.48814  0.83075  1.0000
  H   H774      1.0  0.33414  0.29325  0.83508  1.0000
  C   C924      1.0  0.39784  0.07197  0.52830  1.0000
  H   H775      1.0  0.50404  0.16258  0.63678  1.0000
  H   H776      1.0  0.44391  0.02659  0.83877  1.0000
  C   C925      1.0  0.28751  0.49588  0.95921  1.0000
  C   C926      1.0  0.29087  0.24568  0.90247  1.0000
  H   H777      1.0  0.32753  0.22741  0.88871  1.0000
  H   H778      1.0  0.27527  0.48445  0.88661  1.0000
  H   H779      1.0  0.28420  0.43185  0.97268  1.0000
  H   H780      1.0  0.42259  0.46468  0.98744  1.0000
  H   H781      1.0  0.38272  0.01807  0.76926  1.0000
  C   C927      1.0  0.36385  0.45792  0.78384  1.0000
  H   H782      1.0  0.31295  0.01114  0.61905  1.0000
  H   H783      1.0  0.44185  0.05447  0.79457  1.0000
  H   H784      1.0  0.48800  0.04442  0.89556  1.0000
  C   C928      1.0  0.38772  0.02329  0.89482  1.0000
  P   P31       1.0  0.32103  0.03135  0.75363  1.0000
  H   H785      1.0  0.31943  0.37005  0.95025  1.0000
  H   H786      1.0  0.45699  0.09627  0.90066  1.0000
  C   C929      1.0  0.26954  0.10839  0.59406  1.0000
  C   C930      1.0  0.31056  0.35828  0.93922  1.0000
  C   C931      1.0  0.27301  0.04275  0.78001  1.0000
  C   C932      1.0  0.49194  0.34591  0.89699  1.0000
  H   H787      1.0  0.34133  0.47887  0.86659  1.0000
  C   C933      1.0  0.26964  0.24154  0.55020  1.0000
  C   C934      1.0  0.37010  0.48403  0.81658  1.0000
  C   C935      1.0  0.45299  0.37102  0.00874  1.0000
  C   C936      1.0  0.48899  0.43281  0.79080  1.0000
  H   H788      1.0  0.37007  0.44169  0.77321  1.0000
  H   H789      1.0  0.44600  0.04049  0.88081  1.0000
  C   C937      1.0  0.30716  0.48985  0.97498  1.0000
  C   C938      1.0  0.48719  0.03788  0.87712  1.0000
  H   H790      1.0  0.48220  0.04170  0.60162  1.0000
  C   C939      1.0  0.30517  0.03623  0.54775  1.0000
  H   H791      1.0  0.30379  0.40640  0.90680  1.0000
  H   H792      1.0  0.26091  0.10938  0.74163  1.0000
  H   H793      1.0  0.50585  0.03402  0.56041  1.0000
  C   C940      1.0  0.46554  0.03158  0.60207  1.0000
  C   C941      1.0  0.26320  0.05940  0.55675  1.0000
  C   C942      1.0  0.28804  0.26740  0.85164  1.0000
  C   C943      1.0  0.28692  0.07524  0.74670  1.0000
  C   C944      1.0  0.46356  0.03583  0.86876  1.0000
  C   C945      1.0  0.44090  0.15304  0.64488  1.0000
  C   C946      1.0  0.49569  0.04305  0.65039  1.0000
  H   H794      1.0  0.26640  0.34839  0.86428  1.0000
  H   H795      1.0  0.49675  0.45108  0.83404  1.0000
  H   H796      1.0  0.32608  0.30616  0.90654  1.0000
  H   H797      1.0  0.27704  0.02596  0.72570  1.0000
  C   C947      1.0  0.31401  0.21589  0.78614  1.0000
  C   C948      1.0  0.32787  0.22518  0.76353  1.0000
  C   C949      1.0  0.32933  0.25144  0.75775  1.0000
  C   C950      1.0  0.31698  0.26845  0.77462  1.0000
  C   C951      1.0  0.30326  0.25923  0.79755  1.0000
  C   C952      1.0  0.30160  0.23282  0.80303  1.0000
  P   P32       1.0  0.28628  0.28119  0.81883  1.0000
  H   H798      1.0  0.29081  0.22523  0.82038  1.0000
  C   C953      1.0  0.30217  0.31007  0.81444  1.0000
  C   C954      1.0  0.32546  0.31020  0.82457  1.0000
  C   C955      1.0  0.41088  0.03887  0.78130  1.0000
  C   C956      1.0  0.32754  0.35448  0.80740  1.0000
  C   C957      1.0  0.30459  0.35445  0.79692  1.0000
  C   C958      1.0  0.29210  0.33226  0.80008  1.0000
  C   C959      1.0  0.30969  0.25118  0.85848  1.0000
  H   H799      1.0  0.27514  0.08523  0.62958  1.0000
  H   H800      1.0  0.49415  0.17405  0.59249  1.0000
  C   C960      1.0  0.33804  0.33230  0.82101  1.0000
  C   C961      1.0  0.32528  0.33740  0.92922  1.0000
  H   H801      1.0  0.44459  0.44731  0.89297  1.0000
  H   H802      1.0  0.41602  0.15983  0.61490  1.0000
  H   H803      1.0  0.31302  0.19547  0.79064  1.0000
  H   H804      1.0  0.33751  0.21199  0.75055  1.0000
  H   H805      1.0  0.34023  0.25858  0.74027  1.0000
  H   H806      1.0  0.31832  0.28872  0.76979  1.0000
  C   C962      1.0  0.40193  0.01713  0.77455  1.0000
  H   H807      1.0  0.40450  0.48527  0.87518  1.0000
  C   C963      1.0  0.43543  0.03752  0.78883  1.0000
  H   H808      1.0  0.33699  0.37181  0.80529  1.0000
  H   H809      1.0  0.29628  0.37180  0.78669  1.0000
  H   H810      1.0  0.47175  0.35242  0.83756  1.0000
  H   H811      1.0  0.32568  0.24678  0.84439  1.0000
  C   C964      1.0  0.48492  0.02315  0.82837  1.0000
  C   C965      1.0  0.45209  0.49210  0.82690  1.0000
  C   C966      1.0  0.29295  0.01259  0.71957  1.0000
  H   H812      1.0  0.44056  0.40117  0.77779  1.0000
  H   H813      1.0  0.47386  0.46554  0.95983  1.0000
  C   C967      1.0  0.45246  0.19475  0.80736  1.0000
  H   H814      1.0  0.47274  0.36418  0.78619  1.0000
  C   C968      1.0  0.50218  0.27634  0.90014  1.0000
  H   H815      1.0  0.48496  0.19461  0.68415  1.0000
  C   C969      1.0  0.50232  0.13115  0.79348  1.0000
  C   C970      1.0  0.45174  0.19163  0.83399  1.0000
  P   P33       1.0  0.47290  0.18735  0.88013  1.0000
  C   C971      1.0  0.45767  0.21608  0.89312  1.0000
  C   C972      1.0  0.45029  0.21565  0.91952  1.0000
  C   C973      1.0  0.43759  0.23743  0.92965  1.0000
  C   C974      1.0  0.43215  0.25981  0.91354  1.0000
  C   C975      1.0  0.43947  0.26042  0.88729  1.0000
  C   C976      1.0  0.45197  0.23863  0.87704  1.0000
  C   C977      1.0  0.45358  0.16142  0.89178  1.0000
  C   C978      1.0  0.34115  0.47313  0.77923  1.0000
  C   C979      1.0  0.44885  0.11596  0.90089  1.0000
  C   C980      1.0  0.42294  0.12151  0.90894  1.0000
  C   C981      1.0  0.41223  0.14691  0.90835  1.0000
  C   C982      1.0  0.42736  0.16676  0.89957  1.0000
  H   H816      1.0  0.43539  0.19353  0.79842  1.0000
  H   H817      1.0  0.27599  0.02409  0.79072  1.0000
  H   H818      1.0  0.49241  0.01527  0.74149  1.0000
  C   C983      1.0  0.26126  0.09428  0.61702  1.0000
  H   H819      1.0  0.43376  0.18891  0.84546  1.0000
  H   H820      1.0  0.43150  0.23678  0.94996  1.0000
  H   H821      1.0  0.42202  0.27661  0.92130  1.0000
  H   H822      1.0  0.43513  0.27773  0.87476  1.0000
  H   H823      1.0  0.45685  0.23950  0.85655  1.0000
  H   H824      1.0  0.45151  0.01339  0.96496  1.0000
  C   C984      1.0  0.34513  0.05274  0.74168  1.0000
  H   H825      1.0  0.41097  0.10612  0.91479  1.0000
  H   H826      1.0  0.39195  0.15122  0.91375  1.0000
  H   H827      1.0  0.41825  0.18619  0.89822  1.0000
  P   P34       1.0  0.33564  0.03276  0.52811  1.0000
  C   C985      1.0  0.28065  0.23805  0.70539  1.0000
  H   H828      1.0  0.41136  0.03579  0.57261  1.0000
  H   H829      1.0  0.29073  0.07117  0.52597  1.0000
  C   C986      1.0  0.34476  0.08186  0.53693  1.0000
  H   H830      1.0  0.29903  0.27782  0.58425  1.0000
  C   C987      1.0  0.26208  0.49873  0.96999  1.0000
  C   C988      1.0  0.49674  0.19735  0.83028  1.0000
  C   C989      1.0  0.37414  0.07081  0.70689  1.0000
  C   C990      1.0  0.49743  0.20023  0.80363  1.0000
  C   C991      1.0  0.50690  0.01893  0.64429  1.0000
  C   C992      1.0  0.27405  0.34830  0.92029  1.0000
  C   C993      1.0  0.45826  0.42910  0.96373  1.0000
  C   C994      1.0  0.44667  0.41244  0.95108  1.0000
  C   C995      1.0  0.44211  0.41890  0.92555  1.0000
  C   C996      1.0  0.44874  0.44210  0.91255  1.0000
  C   C997      1.0  0.46047  0.45867  0.92488  1.0000
  C   C998      1.0  0.46530  0.45221  0.95035  1.0000
  C   C999      1.0  0.29165  0.05130  0.76080  1.0000
  H   H831      1.0  0.45106  0.44511  0.78034  1.0000
  H   H832      1.0  0.29899  0.26700  0.54001  1.0000
  C   C1000     1.0  0.35051  0.07114  0.75674  1.0000
  H   H833      1.0  0.46393  0.48156  0.81292  1.0000
  C   C1001     1.0  0.33294  0.49384  0.79324  1.0000
  H   H834      1.0  0.38275  0.07123  0.68736  1.0000
  H   H835      1.0  0.35933  0.50700  0.93428  1.0000
  H   H836      1.0  0.44033  0.39482  0.96092  1.0000
  H   H837      1.0  0.43272  0.40620  0.91604  1.0000
  C   C1002     1.0  0.45150  0.01451  0.78917  1.0000
  C   C1003     1.0  0.27361  0.46654  0.89860  1.0000
  C   C1004     1.0  0.50019  0.03173  0.74665  1.0000
  H   H838      1.0  0.29481  0.49248  0.83408  1.0000
  C   C1005     1.0  0.28684  0.05692  0.54196  1.0000
  C   C1006     1.0  0.34518  0.49469  0.87621  1.0000
  C   C1007     1.0  0.47794  0.35788  0.85472  1.0000
  C   C1008     1.0  0.35697  0.05296  0.71648  1.0000
  H   H839      1.0  0.27463  0.33267  0.79134  1.0000
  C   C1009     1.0  0.28605  0.25868  0.55533  1.0000
  C   C1010     1.0  0.28473  0.36387  0.93500  1.0000
  C   C1011     1.0  0.36781  0.08879  0.74704  1.0000
  C   C1012     1.0  0.46413  0.13577  0.89237  1.0000
  C   C1013     1.0  0.28660  0.40639  0.84214  1.0000
  C   C1014     1.0  0.26533  0.36838  0.85705  1.0000
  C   C1015     1.0  0.31452  0.32210  0.91460  1.0000
  H   H840      1.0  0.45027  0.17248  0.58122  1.0000
  C   C1016     1.0  0.46514  0.42893  0.78403  1.0000
  C   C1017     1.0  0.49860  0.03634  0.77237  1.0000
  C   C1018     1.0  0.47407  0.19197  0.84566  1.0000
  C   C1019     1.0  0.50111  0.38716  0.79459  1.0000
  C   C1020     1.0  0.35040  0.49022  0.90174  1.0000
  C   C1021     1.0  0.32885  0.02479  0.80541  1.0000
  C   C1022     1.0  0.46222  0.00935  0.61891  1.0000
  H   H841      1.0  0.50346  0.24261  0.88077  1.0000
  C   C1023     1.0  0.50507  0.17906  0.88919  1.0000
  P   P35       1.0  0.50034  0.32166  0.92252  1.0000
  C   C1024     1.0  0.48500  0.33905  0.87417  1.0000
  H   H842      1.0  0.29194  0.23711  0.92201  1.0000
  H   H843      1.0  0.48447  0.31927  0.87139  1.0000
  H   H844      1.0  0.50164  0.20507  0.91832  1.0000
  H   H845      1.0  0.49328  0.46840  0.87500  1.0000
  H   H846      1.0  0.41846  0.06829  0.52512  1.0000
  C   C1025     1.0  0.28610  0.26475  0.58025  1.0000
  H   H847      1.0  0.27006  0.23671  0.53086  1.0000
  H   H848      1.0  0.28820  0.21662  0.67282  1.0000
  C   C1026     1.0  0.26254  0.25351  0.71960  1.0000
  C   C1027     1.0  0.29547  0.41506  0.00896  1.0000
  H   H849      1.0  0.40772  0.50339  0.00864  1.0000
  Fe  Fe73      1.0  0.39532  0.97923  0.09400  1.0000
  S   S145      1.0  0.43331  0.97681  0.10856  1.0000
  H   H850      1.0  0.45810  0.63885  0.04708  1.0000
  Fe  Fe74      1.0  0.39722  0.91932  0.09771  1.0000
  S   S146      1.0  0.43519  0.91348  0.11338  1.0000
  S   S147      1.0  0.37696  0.88530  0.09039  1.0000
  Fe  Fe75      1.0  0.41932  0.94537  0.13678  1.0000
  S   S148      1.0  0.42474  0.95037  0.17690  1.0000
  Fe  Fe76      1.0  0.44533  0.94554  0.08350  1.0000
  S   S149      1.0  0.48416  0.94403  0.06138  1.0000
  S   S150      1.0  0.38020  0.94910  0.12389  1.0000
  S   S151      1.0  0.40835  0.94992  0.06603  1.0000
  Fe  Fe77      1.0  0.41617  0.87284  0.29831  1.0000
  S   S152      1.0  0.41179  0.85260  0.33814  1.0000
  S   S153      1.0  0.42613  0.85574  0.26105  1.0000
  Fe  Fe78      1.0  0.40211  0.92451  0.31620  1.0000
  S   S154      1.0  0.39643  0.90886  0.35757  1.0000
  S   S155      1.0  0.39799  0.96531  0.29888  1.0000
  Fe  Fe79      1.0  0.43333  0.88388  0.34847  1.0000
  S   S156      1.0  0.46473  0.87959  0.37571  1.0000
  Fe  Fe80      1.0  0.37533  0.87946  0.34351  1.0000
  S   S157      1.0  0.33691  0.86510  0.36103  1.0000
  S   S158      1.0  0.43996  0.90182  0.30824  1.0000
  S   S159      1.0  0.37879  0.89717  0.30306  1.0000
  Fe  Fe81      1.0  0.39079  0.73358  0.09114  1.0000
  S   S160      1.0  0.36441  0.74581  0.06095  1.0000
  S   S161      1.0  0.40954  0.76429  0.10744  1.0000
  Fe  Fe82      1.0  0.38605  0.67524  0.08783  1.0000
  S   S162      1.0  0.35908  0.68480  0.05780  1.0000
  S   S163      1.0  0.40173  0.63396  0.10060  1.0000
  C   C1028     1.0  0.33905  0.85296  0.17462  1.0000
  Fe  Fe83      1.0  0.34091  0.71561  0.08170  1.0000
  S   S164      1.0  0.29843  0.72425  0.09101  1.0000
  S   S165      1.0  0.41379  0.70300  0.06934  1.0000
  S   S166      1.0  0.36612  0.70453  0.11332  1.0000
  C   C1029     1.0  0.39792  0.60127  0.09788  1.0000
  C   C1030     1.0  0.41538  0.58274  0.10926  1.0000
  C   C1031     1.0  0.37864  0.59295  0.08564  1.0000
  H   H851      1.0  0.43028  0.58868  0.11883  1.0000
  H   H852      1.0  0.36489  0.60695  0.07686  1.0000
  C   C1032     1.0  0.28460  0.69585  0.10145  1.0000
  H   H853      1.0  0.44233  0.00258  0.29912  1.0000
  S   S167      1.0  0.39496  0.51405  0.09753  1.0000
  C   C1033     1.0  0.28883  0.64970  0.10800  1.0000
  C   C1034     1.0  0.29985  0.67257  0.10151  1.0000
  C   C1035     1.0  0.40717  0.87847  0.43985  1.0000
  H   H854      1.0  0.30075  0.63186  0.10727  1.0000
  H   H855      1.0  0.32017  0.67208  0.09631  1.0000
  C   C1036     1.0  0.30521  0.87446  0.35219  1.0000
  C   C1037     1.0  0.29784  0.89885  0.34035  1.0000
  H   H856      1.0  0.35614  0.94095  0.23492  1.0000
  C   C1038     1.0  0.28662  0.85709  0.35804  1.0000
  H   H857      1.0  0.31170  0.91257  0.33609  1.0000
  H   H858      1.0  0.29180  0.83829  0.36756  1.0000
  C   C1039     1.0  0.38693  0.85182  0.09482  1.0000
  C   C1040     1.0  0.40985  0.84192  0.10474  1.0000
  C   C1041     1.0  0.41662  0.81520  0.10822  1.0000
  C   C1042     1.0  0.40078  0.79797  0.10163  1.0000
  C   C1043     1.0  0.37815  0.80793  0.09126  1.0000
  C   C1044     1.0  0.37125  0.83460  0.08802  1.0000
  H   H859      1.0  0.42218  0.85483  0.11005  1.0000
  H   H860      1.0  0.43415  0.80791  0.11625  1.0000
  H   H861      1.0  0.36561  0.79512  0.08616  1.0000
  H   H862      1.0  0.35351  0.84194  0.08030  1.0000
  C   C1045     1.0  0.42248  0.92346  0.19920  1.0000
  C   C1046     1.0  0.41786  0.92722  0.22497  1.0000
  C   C1047     1.0  0.41845  0.90634  0.24369  1.0000
  C   C1048     1.0  0.42377  0.88149  0.23690  1.0000
  C   C1049     1.0  0.42739  0.87758  0.21096  1.0000
  C   C1050     1.0  0.42667  0.89861  0.19203  1.0000
  H   H863      1.0  0.41447  0.94641  0.23060  1.0000
  H   H864      1.0  0.41558  0.90979  0.26341  1.0000
  H   H865      1.0  0.43130  0.85843  0.20554  1.0000
  H   H866      1.0  0.43017  0.89566  0.17203  1.0000
  C   C1051     1.0  0.43561  0.88258  0.03634  1.0000
  C   C1052     1.0  0.35596  0.96360  0.19857  1.0000
  H   H867      1.0  0.36414  0.58778  0.02794  1.0000
  H   H868      1.0  0.35058  0.98534  0.16216  1.0000
  H   H869      1.0  0.37457  0.89356  0.41960  1.0000
  H   H870      1.0  0.43376  0.81440  0.04967  1.0000
  C   C1053     1.0  0.35380  0.55295  0.01681  1.0000
  H   H871      1.0  0.43896  0.85687  0.45773  1.0000
  H   H872      1.0  0.39262  0.00142  0.40074  1.0000
  C   C1054     1.0  0.46056  0.67421  0.02288  1.0000
  C   C1055     1.0  0.38310  0.98571  0.32092  1.0000
  C   C1056     1.0  0.37079  0.97588  0.34421  1.0000
  C   C1057     1.0  0.36014  0.99229  0.36234  1.0000
  H   H873      1.0  0.28535  0.92915  0.45485  1.0000
  C   C1058     1.0  0.31610  0.66599  0.02240  1.0000
  H   H874      1.0  0.36932  0.95570  0.34825  1.0000
  H   H875      1.0  0.29618  0.58128  0.20450  1.0000
  H   H876      1.0  0.30512  0.97781  0.16403  1.0000
  C   C1059     1.0  0.29167  0.83794  0.25229  1.0000
  C   C1060     1.0  0.31658  0.76477  0.14189  1.0000
  C   C1061     1.0  0.47273  0.80266  0.03537  1.0000
  C   C1062     1.0  0.48928  0.65850  0.05477  1.0000
  C   C1063     1.0  0.29760  0.55580  0.07180  1.0000
  C   C1064     1.0  0.37708  0.56630  0.08515  1.0000
  C   C1065     1.0  0.41048  0.83738  0.41043  1.0000
  C   C1066     1.0  0.32813  0.52905  0.16742  1.0000
  Fe  Fe84      1.0  0.38567  0.71372  0.04058  1.0000
  C   C1067     1.0  0.30443  0.55733  0.12343  1.0000
  H   H877      1.0  0.46623  0.99426  0.21775  1.0000
  C   C1068     1.0  0.39435  0.98281  0.41183  1.0000
  H   H878      1.0  0.47867  0.82166  0.03432  1.0000
  C   C1069     1.0  0.32034  0.79462  0.23480  1.0000
  H   H879      1.0  0.27399  0.74934  0.21411  1.0000
  H   H880      1.0  0.29184  0.99118  0.32466  1.0000
  H   H881      1.0  0.28183  0.52035  0.08452  1.0000
  C   C1070     1.0  0.49909  0.59686  0.01789  1.0000
  C   C1071     1.0  0.45641  0.97508  0.32816  1.0000
  C   C1072     1.0  0.32275  0.81865  0.22083  1.0000
  H   H882      1.0  0.46824  0.90376  0.02793  1.0000
  C   C1073     1.0  0.45718  0.75360  0.03964  1.0000
  H   H883      1.0  0.31513  0.59103  0.06486  1.0000
  C   C1074     1.0  0.38716  0.95627  0.45196  1.0000
  C   C1075     1.0  0.26398  0.77347  0.04497  1.0000
  H   H884      1.0  0.33664  0.90683  0.39064  1.0000
  H   H885      1.0  0.49548  0.91225  0.50289  1.0000
  H   H886      1.0  0.47788  0.93984  0.11640  1.0000
  C   C1076     1.0  0.30702  0.79510  0.17323  1.0000
  C   C1077     1.0  0.39477  0.54795  0.09684  1.0000
  C   C1078     1.0  0.47123  0.76975  0.13690  1.0000
  H   H887      1.0  0.26273  0.96118  0.26350  1.0000
  H   H888      1.0  0.42762  0.58731  0.03956  1.0000
  P   P36       1.0  0.34315  0.82096  0.19095  1.0000
  C   C1079     1.0  0.37655  0.81408  0.19603  1.0000
  C   C1080     1.0  0.35069  0.78524  0.15502  1.0000
  C   C1081     1.0  0.34241  0.76839  0.14018  1.0000
  C   C1082     1.0  0.38409  0.80624  0.22056  1.0000
  C   C1083     1.0  0.41002  0.80271  0.22431  1.0000
  C   C1084     1.0  0.42860  0.80668  0.20363  1.0000
  C   C1085     1.0  0.42128  0.81468  0.17922  1.0000
  C   C1086     1.0  0.39538  0.81862  0.17549  1.0000
  C   C1087     1.0  0.49761  0.94194  0.10986  1.0000
  C   C1088     1.0  0.30768  0.82310  0.50158  1.0000
  C   C1089     1.0  0.30871  0.57604  0.07903  1.0000
  C   C1090     1.0  0.33314  0.90272  0.14942  1.0000
  C   C1091     1.0  0.31753  0.88456  0.14500  1.0000
  C   C1092     1.0  0.32036  0.85979  0.15762  1.0000
  H   H889      1.0  0.37083  0.78748  0.15318  1.0000
  H   H890      1.0  0.35610  0.75823  0.12717  1.0000
  H   H891      1.0  0.37014  0.80354  0.23699  1.0000
  H   H892      1.0  0.41571  0.79749  0.24340  1.0000
  H   H893      1.0  0.44861  0.80431  0.20670  1.0000
  H   H894      1.0  0.43560  0.81838  0.16324  1.0000
  H   H895      1.0  0.38995  0.82565  0.15663  1.0000
  C   C1093     1.0  0.47774  0.96081  0.33775  1.0000
  H   H896      1.0  0.41983  0.77129  0.05204  1.0000
  C   C1094     1.0  0.32250  0.92066  0.39918  1.0000
  C   C1095     1.0  0.49142  0.92982  0.27086  1.0000
  H   H897      1.0  0.35022  0.52562  0.13080  1.0000
  H   H898      1.0  0.45916  0.58024  0.07126  1.0000
  C   C1096     1.0  0.50580  0.94517  0.08370  1.0000
  C   C1097     1.0  0.27779  0.96092  0.27569  1.0000
  H   H899      1.0  0.49567  0.64368  0.06928  1.0000
  H   H900      1.0  0.36409  0.91010  0.16950  1.0000
  H   H901      1.0  0.45746  0.90023  0.43881  1.0000
  C   C1098     1.0  0.40874  0.93755  0.41466  1.0000
  H   H902      1.0  0.36960  0.86655  0.19144  1.0000
  H   H903      1.0  0.31667  0.65030  0.15581  1.0000
  H   H904      1.0  0.45748  0.93586  0.25167  1.0000
  H   H905      1.0  0.47613  0.91046  0.21643  1.0000
  H   H906      1.0  0.42746  0.51200  0.04649  1.0000
  C   C1099     1.0  0.50078  0.99217  0.23684  1.0000
  C   C1100     1.0  0.30345  0.82884  0.47587  1.0000
  H   H907      1.0  0.33452  0.65514  0.02446  1.0000
  C   C1101     1.0  0.38953  0.87802  0.42218  1.0000
  C   C1102     1.0  0.42769  0.83736  0.42847  1.0000
  C   C1103     1.0  0.43185  0.91215  0.49893  1.0000
  H   H908      1.0  0.41879  0.92142  0.40562  1.0000
  H   H909      1.0  0.46483  0.76125  0.09957  1.0000
  H   H910      1.0  0.30830  0.84600  0.15359  1.0000
  H   H911      1.0  0.32454  0.99048  0.25399  1.0000
  H   H912      1.0  0.43599  0.99792  0.25760  1.0000
  C   C1104     1.0  0.27602  0.91171  0.24156  1.0000
  C   C1105     1.0  0.34180  0.97377  0.17842  1.0000
  H   H913      1.0  0.26977  0.63388  0.21776  1.0000
  C   C1106     1.0  0.31390  0.94294  0.38444  1.0000
  C   C1107     1.0  0.44756  0.58972  0.03341  1.0000
  C   C1108     1.0  0.25852  0.55035  0.17323  1.0000
  H   H914      1.0  0.34565  0.98597  0.50192  1.0000
  C   C1109     1.0  0.48763  0.91284  0.23142  1.0000
  H   H915      1.0  0.44263  0.82171  0.43071  1.0000
  H   H916      1.0  0.50233  0.85509  0.17647  1.0000
  C   C1110     1.0  0.40627  0.96150  0.40036  1.0000
  C   C1111     1.0  0.45789  0.88958  0.02168  1.0000
  H   H917      1.0  0.48489  0.96653  0.18543  1.0000
  C   C1112     1.0  0.48712  0.82411  0.23514  1.0000
  H   H918      1.0  0.28488  0.95185  0.20103  1.0000
  C   C1113     1.0  0.34696  0.51738  0.15047  1.0000
  H   H919      1.0  0.27677  0.81231  0.28378  1.0000
  H   H920      1.0  0.28052  0.85467  0.25918  1.0000
  H   H921      1.0  0.28939  0.90430  0.20263  1.0000
  H   H922      1.0  0.36836  0.54084  0.02665  1.0000
  C   C1114     1.0  0.49260  0.70050  0.03123  1.0000
  C   C1115     1.0  0.27132  0.67504  0.03749  1.0000
  C   C1116     1.0  0.32441  0.51806  0.19291  1.0000
  C   C1117     1.0  0.31222  0.57674  0.10463  1.0000
  C   C1118     1.0  0.26137  0.86363  0.35146  1.0000
  C   C1119     1.0  0.26353  0.98181  0.46791  1.0000
  H   H923      1.0  0.31014  0.52667  0.20649  1.0000
  H   H924      1.0  0.26082  0.88829  0.45207  1.0000
  C   C1120     1.0  0.41389  0.55658  0.10868  1.0000
  H   H925      1.0  0.32678  0.81684  0.50676  1.0000
  C   C1121     1.0  0.34483  0.94843  0.21938  1.0000
  C   C1122     1.0  0.30832  0.84032  0.22977  1.0000
  H   H926      1.0  0.37562  0.96752  0.19814  1.0000
  C   C1123     1.0  0.30390  0.79236  0.25747  1.0000
  C   C1124     1.0  0.26261  0.64984  0.11514  1.0000
  C   C1125     1.0  0.46535  0.58581  0.05132  1.0000
  C   C1126     1.0  0.35134  0.57936  0.01763  1.0000
  H   H927      1.0  0.29306  0.61263  0.15722  1.0000
  H   H928      1.0  0.31832  0.89804  0.43564  1.0000
  C   C1127     1.0  0.43272  0.90632  0.47367  1.0000
  H   H929      1.0  0.47729  0.82790  0.25367  1.0000
  C   C1128     1.0  0.35471  0.87135  0.17884  1.0000
  C   C1129     1.0  0.38469  0.98019  0.43758  1.0000
  C   C1130     1.0  0.29379  0.93361  0.43544  1.0000
  C   C1131     1.0  0.36221  0.86422  0.24876  1.0000
  C   C1132     1.0  0.35582  0.85022  0.27225  1.0000
  C   C1133     1.0  0.33409  0.85845  0.28791  1.0000
  C   C1134     1.0  0.31895  0.88078  0.28013  1.0000
  C   C1135     1.0  0.32572  0.89542  0.25696  1.0000
  C   C1136     1.0  0.34732  0.88679  0.24113  1.0000
  P   P37       1.0  0.30514  0.92366  0.24728  1.0000
  H   H930      1.0  0.30349  0.96684  0.46721  1.0000
  C   C1137     1.0  0.30024  0.94418  0.27256  1.0000
  C   C1138     1.0  0.29496  0.66061  0.03977  1.0000
  C   C1139     1.0  0.50205  0.96342  0.32495  1.0000
  C   C1140     1.0  0.28566  0.95653  0.42101  1.0000
  C   C1141     1.0  0.31676  0.96191  0.30668  1.0000
  C   C1142     1.0  0.31984  0.94507  0.28794  1.0000
  C   C1143     1.0  0.35208  0.90892  0.47850  1.0000
  C   C1144     1.0  0.39882  0.93470  0.44050  1.0000
  C   C1145     1.0  0.31944  0.94296  0.22003  1.0000
  C   C1146     1.0  0.30494  0.95432  0.20029  1.0000
  H   H931      1.0  0.40380  0.86033  0.03921  1.0000
  H   H932      1.0  0.41208  0.82181  0.39865  1.0000
  H   H933      1.0  0.30183  0.88655  0.29211  1.0000
  C   C1147     1.0  0.29019  0.53617  0.09022  1.0000
  H   H934      1.0  0.37909  0.85779  0.23672  1.0000
  H   H935      1.0  0.36796  0.83326  0.27847  1.0000
  H   H936      1.0  0.32911  0.84772  0.30624  1.0000
  C   C1148     1.0  0.47266  0.69655  0.01735  1.0000
  H   H937      1.0  0.35284  0.89732  0.22298  1.0000
  C   C1149     1.0  0.26268  0.74981  0.03636  1.0000
  H   H938      1.0  0.38038  0.95468  0.47206  1.0000
  C   C1150     1.0  0.29887  0.77812  0.15842  1.0000
  H   H939      1.0  0.33217  0.96262  0.31819  1.0000
  H   H940      1.0  0.33771  0.93312  0.28520  1.0000
  C   C1151     1.0  0.27880  0.83714  0.46924  1.0000
  H   H941      1.0  0.39465  0.66672  0.02012  1.0000
  H   H942      1.0  0.49690  0.78417  0.24654  1.0000
  H   H943      1.0  0.50247  0.78165  0.07766  1.0000
  H   H944      1.0  0.43750  0.97317  0.33801  1.0000
  C   C1152     1.0  0.29530  0.96066  0.39514  1.0000
  P   P38       1.0  0.26061  0.97858  0.43478  1.0000
  C   C1153     1.0  0.48595  0.98665  0.21823  1.0000
  H   H945      1.0  0.49720  0.90343  0.45760  1.0000
  C   C1154     1.0  0.28645  0.97368  0.47879  1.0000
  H   H946      1.0  0.29699  0.64556  0.05534  1.0000
  C   C1155     1.0  0.47898  0.90595  0.46916  1.0000
  H   H947      1.0  0.39905  0.87080  0.50774  1.0000
  C   C1156     1.0  0.28750  0.97420  0.50501  1.0000
  C   C1157     1.0  0.47703  0.92716  0.25121  1.0000
  C   C1158     1.0  0.48277  0.75724  0.03132  1.0000
  C   C1159     1.0  0.28015  0.56138  0.17771  1.0000
  C   C1160     1.0  0.31228  0.91584  0.42460  1.0000
  C   C1161     1.0  0.33108  0.90248  0.49575  1.0000
  C   C1162     1.0  0.29396  0.53664  0.11585  1.0000
  C   C1163     1.0  0.31622  0.96937  0.17942  1.0000
  H   H948      1.0  0.31199  0.91097  0.49251  1.0000
  H   H949      1.0  0.49795  0.85126  0.13156  1.0000
  C   C1164     1.0  0.44738  0.79871  0.04391  1.0000
  H   H950      1.0  0.41368  0.96358  0.38036  1.0000
  H   H951      1.0  0.28675  0.60471  0.03216  1.0000
  C   C1165     1.0  0.33305  0.79883  0.17166  1.0000
  C   C1166     1.0  0.43954  0.77431  0.04550  1.0000
  H   H952      1.0  0.33131  0.92170  0.13915  1.0000
  H   H953      1.0  0.30990  0.85902  0.21945  1.0000
  H   H954      1.0  0.27586  0.84090  0.44921  1.0000
  H   H955      1.0  0.26715  0.92447  0.32497  1.0000
  H   H956      1.0  0.28020  0.77632  0.05464  1.0000
  H   H957      1.0  0.37770  0.85734  0.39376  1.0000
  C   C1167     1.0  0.38022  0.88004  0.50426  1.0000
  H   H958      1.0  0.48184  0.78074  0.17142  1.0000
  C   C1168     1.0  0.42149  0.86511  0.02809  1.0000
  C   C1169     1.0  0.25829  0.84028  0.48839  1.0000
  H   H959      1.0  0.30369  0.88953  0.13125  1.0000
  H   H960      1.0  0.47979  0.86284  0.21855  1.0000
  C   C1170     1.0  0.47801  0.91108  0.49454  1.0000
  H   H961      1.0  0.31926  0.82670  0.46104  1.0000
  C   C1171     1.0  0.37687  0.89800  0.48287  1.0000
  H   H962      1.0  0.29515  0.55503  0.05192  1.0000
  H   H963      1.0  0.42888  0.89111  0.05386  1.0000
  H   H964      1.0  0.35102  0.98461  0.38055  1.0000
  C   C1172     1.0  0.49808  0.79950  0.23106  1.0000
  C   C1173     1.0  0.49654  0.97092  0.19953  1.0000
  C   C1174     1.0  0.29413  0.97806  0.31018  1.0000
  C   C1175     1.0  0.50493  0.97963  0.30212  1.0000
  P   P39       1.0  0.30949  0.55821  0.15656  1.0000
  H   H965      1.0  0.47543  0.94770  0.35507  1.0000
  H   H966      1.0  0.31030  0.75170  0.13029  1.0000
  C   C1176     1.0  0.49866  0.88016  0.37502  1.0000
  C   C1177     1.0  0.35166  0.89614  0.16641  1.0000
  H   H967      1.0  0.44456  0.67175  0.01283  1.0000
  H   H968      1.0  0.48252  0.93972  0.28680  1.0000
  C   C1178     1.0  0.27250  0.90551  0.33401  1.0000
  C   C1179     1.0  0.48862  0.84389  0.21526  1.0000
  H   H969      1.0  0.34892  0.92208  0.46163  1.0000
  H   H970      1.0  0.33117  0.77763  0.22810  1.0000
  H   H971      1.0  0.42769  0.54282  0.11776  1.0000
  P   P40       1.0  0.40373  0.90434  0.45958  1.0000
  C   C1180     1.0  0.32680  0.58529  0.15823  1.0000
  C   C1181     1.0  0.31359  0.60990  0.15783  1.0000
  C   C1182     1.0  0.32690  0.63131  0.15695  1.0000
  C   C1183     1.0  0.35348  0.62832  0.15645  1.0000
  C   C1184     1.0  0.36673  0.60391  0.15712  1.0000
  C   C1185     1.0  0.35353  0.58244  0.15778  1.0000
  H   H972      1.0  0.32173  0.59216  0.10941  1.0000
  H   H973      1.0  0.37556  0.99682  0.44637  1.0000
  H   H974      1.0  0.26161  0.91132  0.40833  1.0000
  H   H975      1.0  0.28906  0.52064  0.12956  1.0000
  C   C1186     1.0  0.50121  0.83925  0.19128  1.0000
  P   P41       1.0  0.50640  0.73055  0.02523  1.0000
  H   H976      1.0  0.32139  0.94624  0.36454  1.0000
  C   C1187     1.0  0.28954  0.81402  0.26620  1.0000
  H   H977      1.0  0.36231  0.55992  0.07581  1.0000
  H   H978      1.0  0.29295  0.80549  0.18571  1.0000
  C   C1188     1.0  0.49100  0.58943  0.04365  1.0000
  H   H979      1.0  0.36395  0.64494  0.15486  1.0000
  H   H980      1.0  0.38740  0.60175  0.15610  1.0000
  H   H981      1.0  0.36436  0.56387  0.15718  1.0000
  C   C1189     1.0  0.49797  0.78162  0.09806  1.0000
  C   C1190     1.0  0.47692  0.76995  0.11045  1.0000
  C   C1191     1.0  0.27395  0.90305  0.21794  1.0000
  C   C1192     1.0  0.49034  0.78204  0.02878  1.0000
  C   C1193     1.0  0.26864  0.69481  0.01752  1.0000
  C   C1194     1.0  0.26826  0.61092  0.02578  1.0000
  H   H982      1.0  0.50632  0.72262  0.08052  1.0000
  C   C1195     1.0  0.48664  0.78117  0.15099  1.0000
  C   C1196     1.0  0.46842  0.65550  0.04200  1.0000
  C   C1197     1.0  0.48344  0.99332  0.29176  1.0000
  H   H983      1.0  0.45462  0.76093  0.14634  1.0000
  H   H984      1.0  0.27797  0.73479  0.03981  1.0000
  C   C1198     1.0  0.42580  0.85760  0.44347  1.0000
  C   C1199     1.0  0.27958  0.57312  0.20024  1.0000
  C   C1200     1.0  0.39120  0.85753  0.40755  1.0000
  C   C1201     1.0  0.45640  0.90389  0.45865  1.0000
  C   C1202     1.0  0.50152  0.68082  0.04927  1.0000
  H   H985      1.0  0.28826  0.97725  0.38299  1.0000
  H   H986      1.0  0.49652  0.87007  0.41570  1.0000
  C   C1203     1.0  0.50779  0.79304  0.13856  1.0000
  H   H987      1.0  0.41985  0.00644  0.16819  1.0000
  C   C1204     1.0  0.45924  0.99155  0.30555  1.0000
  H   H988      1.0  0.27880  0.77539  0.15953  1.0000
  C   C1205     1.0  0.27467  0.97761  0.29464  1.0000
  H   H989      1.0  0.30218  0.77380  0.26826  1.0000
  H   H990      1.0  0.50437  0.58628  0.05789  1.0000
  H   H991      1.0  0.45064  0.73487  0.04216  1.0000
  H   H992      1.0  0.50558  0.92538  0.01248  1.0000
  C   C1206     1.0  0.25834  0.69620  0.10922  1.0000
  H   H993      1.0  0.50789  0.89044  0.33459  1.0000
  C   C1207     1.0  0.45444  0.91450  0.50928  1.0000
  Fe  Fe85      1.0  0.31390  0.86813  0.60209  1.0000
  S   S168      1.0  0.30945  0.88613  0.63881  1.0000
  S   S169      1.0  0.28067  0.85176  0.58687  1.0000
  Fe  Fe86      1.0  0.37254  0.87697  0.59205  1.0000
  S   S170      1.0  0.37084  0.89639  0.62740  1.0000
  S   S171      1.0  0.40969  0.87271  0.56504  1.0000
  Fe  Fe87      1.0  0.34774  0.86489  0.64564  1.0000
  S   S172      1.0  0.35972  0.84370  0.68233  1.0000
  Fe  Fe88      1.0  0.33300  0.91572  0.61675  1.0000
  S   S173      1.0  0.35095  0.84417  0.61069  1.0000
  S   S174      1.0  0.33598  0.89893  0.57955  1.0000
  Fe  Fe89      1.0  0.37953  0.89931  0.80249  1.0000
  S   S175      1.0  0.36420  0.89382  0.84402  1.0000
  S   S176      1.0  0.35453  0.91409  0.77114  1.0000
  Fe  Fe90      1.0  0.43386  0.88852  0.81467  1.0000
  S   S177      1.0  0.42265  0.88290  0.85700  1.0000
  S   S178      1.0  0.47366  0.88520  0.79507  1.0000
  Fe  Fe91      1.0  0.39365  0.85880  0.84668  1.0000
  S   S179      1.0  0.38708  0.81804  0.86637  1.0000
  Fe  Fe92      1.0  0.39505  0.91824  0.84965  1.0000
  S   S180      1.0  0.39158  0.95111  0.87494  1.0000
  S   S181      1.0  0.40646  0.86333  0.80482  1.0000
  S   S182      1.0  0.40862  0.92501  0.80813  1.0000
  Fe  Fe93      1.0  0.37018  0.62902  0.85846  1.0000
  S   S183      1.0  0.40568  0.63392  0.83168  1.0000
  S   S184      1.0  0.33610  0.62301  0.83926  1.0000
  Fe  Fe94      1.0  0.39932  0.62585  0.90468  1.0000
  S   S185      1.0  0.43669  0.63012  0.88076  1.0000
  S   S186      1.0  0.39888  0.61791  0.94731  1.0000
  Fe  Fe95      1.0  0.41397  0.66213  0.85786  1.0000
  S   S187      1.0  0.42710  0.70209  0.84273  1.0000
  Fe  Fe96      1.0  0.42353  0.60156  0.85783  1.0000
  S   S188      1.0  0.44658  0.56528  0.84419  1.0000
  S   S189      1.0  0.37714  0.65867  0.88311  1.0000
  S   S190      1.0  0.38766  0.59596  0.88324  1.0000
  C   C1208     1.0  0.32842  0.85778  0.80155  1.0000
  C   C1209     1.0  0.43999  0.53270  0.84482  1.0000
  C   C1210     1.0  0.42153  0.52071  0.86213  1.0000
  H   H994      1.0  0.33380  0.97541  0.76870  1.0000
  C   C1211     1.0  0.36347  0.71214  0.82469  1.0000
  H   H995      1.0  0.48374  0.70947  0.84721  1.0000
  C   C1212     1.0  0.48568  0.99358  0.94725  1.0000
  H   H996      1.0  0.40965  0.53170  0.87579  1.0000
  H   H997      1.0  0.35731  0.55105  0.91206  1.0000
  H   H998      1.0  0.46902  0.52678  0.81359  1.0000
  C   C1213     1.0  0.40100  0.64568  0.96146  1.0000
  C   C1214     1.0  0.39699  0.64511  0.98805  1.0000
  C   C1215     1.0  0.39713  0.66749  0.99958  1.0000
  C   C1216     1.0  0.40111  0.69058  0.98458  1.0000
  C   C1217     1.0  0.40572  0.69103  0.95797  1.0000
  C   C1218     1.0  0.40572  0.66857  0.94640  1.0000
  H   H999      1.0  0.39355  0.62740  0.99975  1.0000
  C   C1219     1.0  0.31849  0.55762  0.99076  1.0000
  H   H1000     1.0  0.40897  0.70879  0.94628  1.0000
  H   H1001     1.0  0.40900  0.66907  0.92581  1.0000
  C   C1220     1.0  0.30593  0.63411  0.85320  1.0000
  C   C1221     1.0  0.30316  0.64935  0.87331  1.0000
  C   C1222     1.0  0.32993  0.75215  0.73955  1.0000
  H   H1002     1.0  0.31983  0.65461  0.88052  1.0000
  H   H1003     1.0  0.34934  0.74336  0.73597  1.0000
  C   C1223     1.0  0.39768  0.78598  0.85870  1.0000
  C   C1224     1.0  0.38814  0.76502  0.87446  1.0000
  C   C1225     1.0  0.39653  0.73943  0.86974  1.0000
  C   C1226     1.0  0.41498  0.73418  0.84928  1.0000
  C   C1227     1.0  0.42459  0.75515  0.83357  1.0000
  C   C1228     1.0  0.41578  0.78074  0.83799  1.0000
  H   H1004     1.0  0.37416  0.76859  0.89057  1.0000
  H   H1005     1.0  0.38892  0.72376  0.88217  1.0000
  H   H1006     1.0  0.43897  0.75156  0.81780  1.0000
  H   H1007     1.0  0.42335  0.79646  0.82570  1.0000
  C   C1229     1.0  0.49446  0.86645  0.81466  1.0000
  C   C1230     1.0  0.48511  0.85426  0.83817  1.0000
  C   C1231     1.0  0.28782  0.66148  0.78065  1.0000
  C   C1232     1.0  0.33035  0.00330  0.62707  1.0000
  C   C1233     1.0  0.34875  0.53982  0.87653  1.0000
  C   C1234     1.0  0.33315  0.97761  0.70266  1.0000
  H   H1008     1.0  0.46495  0.85344  0.84283  1.0000
  H   H1009     1.0  0.49457  0.83488  0.87447  1.0000
  H   H1010     1.0  0.41388  0.91475  0.51083  1.0000
  C   C1235     1.0  0.26439  0.61191  0.99988  1.0000
  C   C1236     1.0  0.44314  0.86857  0.56916  1.0000
  C   C1237     1.0  0.45340  0.87159  0.59185  1.0000
  C   C1238     1.0  0.46017  0.86269  0.54788  1.0000
  H   H1011     1.0  0.44061  0.87590  0.60859  1.0000
  H   H1012     1.0  0.45275  0.85999  0.53034  1.0000
  C   C1239     1.0  0.35989  0.86456  0.70558  1.0000
  C   C1240     1.0  0.37446  0.85702  0.72603  1.0000
  C   C1241     1.0  0.37351  0.87257  0.74570  1.0000
  C   C1242     1.0  0.35778  0.89564  0.74527  1.0000
  C   C1243     1.0  0.34375  0.90363  0.72439  1.0000
  C   C1244     1.0  0.34496  0.88819  0.70443  1.0000
  H   H1013     1.0  0.38630  0.83903  0.72688  1.0000
  H   H1014     1.0  0.38431  0.86619  0.76154  1.0000
  H   H1015     1.0  0.33151  0.92147  0.72392  1.0000
  H   H1016     1.0  0.33372  0.89419  0.68859  1.0000
  H   H1017     1.0  0.39539  0.81404  0.91990  1.0000
  C   C1245     1.0  0.39297  0.00130  0.84889  1.0000
  C   C1246     1.0  0.27862  0.65803  0.88391  1.0000
  C   C1247     1.0  0.28255  0.71238  0.79120  1.0000
  H   H1018     1.0  0.27520  0.58262  0.73412  1.0000
  H   H1019     1.0  0.30599  0.54876  0.98056  1.0000
  H   H1020     1.0  0.50344  0.83995  0.99467  1.0000
  C   C1248     1.0  0.44643  0.82178  0.77200  1.0000
  C   C1249     1.0  0.44891  0.83867  0.74966  1.0000
  C   C1250     1.0  0.44873  0.89241  0.71041  1.0000
  C   C1251     1.0  0.32870  0.63560  0.95373  1.0000
  H   H1021     1.0  0.39506  0.99295  0.83104  1.0000
  C   C1252     1.0  0.26250  0.83307  0.51401  1.0000
  C   C1253     1.0  0.32821  0.73786  0.84554  1.0000
  C   C1254     1.0  0.44016  0.90334  0.68701  1.0000
  C   C1255     1.0  0.41871  0.92141  0.68664  1.0000
  C   C1256     1.0  0.40611  0.92915  0.70953  1.0000
  C   C1257     1.0  0.41518  0.91915  0.73276  1.0000
  C   C1258     1.0  0.43645  0.90091  0.73325  1.0000
  C   C1259     1.0  0.44812  0.52786  0.92571  1.0000
  H   H1022     1.0  0.42771  0.81648  0.77982  1.0000
  H   H1023     1.0  0.43200  0.84608  0.74039  1.0000
  C   C1260     1.0  0.50093  0.75264  0.86105  1.0000
  C   C1261     1.0  0.26240  0.70248  0.78223  1.0000
  C   C1262     1.0  0.28715  0.82501  0.52064  1.0000
  H   H1024     1.0  0.41156  0.92908  0.66864  1.0000
  H   H1025     1.0  0.38917  0.94271  0.70935  1.0000
  H   H1026     1.0  0.40536  0.92514  0.75047  1.0000
  H   H1027     1.0  0.44308  0.89327  0.75148  1.0000
  C   C1263     1.0  0.26371  0.56499  0.91271  1.0000
  H   H1028     1.0  0.41806  0.84125  0.99923  1.0000
  H   H1029     1.0  0.30264  0.57168  0.84010  1.0000
  H   H1030     1.0  0.46639  0.51904  0.98580  1.0000
  C   C1264     1.0  0.46786  0.81235  0.78459  1.0000
  C   C1265     1.0  0.28388  0.58021  0.90698  1.0000
  C   C1266     1.0  0.35111  0.55248  0.81387  1.0000
  C   C1267     1.0  0.34035  0.97184  0.80783  1.0000
  H   H1031     1.0  0.39193  0.97565  0.65780  1.0000
  C   C1268     1.0  0.30523  0.69685  0.79495  1.0000
  H   H1032     1.0  0.38379  0.60994  0.77673  1.0000
  H   H1033     1.0  0.31958  0.56595  0.79146  1.0000
  H   H1034     1.0  0.38274  0.93284  0.55722  1.0000
  H   H1035     1.0  0.29028  0.82034  0.54063  1.0000
  C   C1269     1.0  0.49730  0.86392  0.57090  1.0000
  H   H1036     1.0  0.50027  0.56102  0.85996  1.0000
  H   H1037     1.0  0.48295  0.88531  0.98713  1.0000
  C   C1270     1.0  0.44632  0.52273  0.95230  1.0000
  H   H1038     1.0  0.49612  0.72130  0.89087  1.0000
  C   C1271     1.0  0.48097  0.97561  0.90833  1.0000
  H   H1039     1.0  0.28640  0.61632  0.82781  1.0000
  C   C1272     1.0  0.48014  0.82138  0.64268  1.0000
  S   S191      1.0  0.40058  0.71885  0.99890  1.0000
  H   H1040     1.0  0.25991  0.78225  0.75233  1.0000
  C   C1273     1.0  0.36462  0.73074  0.80357  1.0000
  H   H1041     1.0  0.31612  0.73306  0.71108  1.0000
  C   C1274     1.0  0.33465  0.88482  0.51718  1.0000
  C   C1275     1.0  0.47997  0.95724  0.71033  1.0000
  C   C1276     1.0  0.43991  0.98337  0.70511  1.0000
  H   H1042     1.0  0.44612  0.93217  0.88291  1.0000
  C   C1277     1.0  0.49135  0.52749  0.95133  1.0000
  H   H1043     1.0  0.34018  0.60276  0.76850  1.0000
  H   H1044     1.0  0.31313  0.86795  0.76542  1.0000
  C   C1278     1.0  0.30966  0.97921  0.69282  1.0000
  H   H1045     1.0  0.45368  0.91827  0.52904  1.0000
  C   C1279     1.0  0.50193  0.84339  0.85589  1.0000
  C   C1280     1.0  0.46793  0.52254  0.96512  1.0000
  H   H1046     1.0  0.38654  0.54313  0.83095  1.0000
  H   H1047     1.0  0.33972  0.52168  0.00250  1.0000
  H   H1048     1.0  0.44780  0.95835  0.73912  1.0000
  H   H1049     1.0  0.37846  0.72727  0.78732  1.0000
  H   H1050     1.0  0.44310  0.98151  0.89609  1.0000
  H   H1051     1.0  0.34764  0.55926  0.86723  1.0000
  H   H1052     1.0  0.42792  0.76504  0.98101  1.0000
  H   H1053     1.0  0.34859  0.96395  0.69612  1.0000
  H   H1054     1.0  0.37674  0.69494  0.82484  1.0000
  H   H1055     1.0  0.46580  0.79992  0.80232  1.0000
  C   C1281     1.0  0.29823  0.77978  0.76288  1.0000
  H   H1056     1.0  0.48819  0.58249  0.92953  1.0000
  C   C1282     1.0  0.28593  0.75717  0.72995  1.0000
  H   H1057     1.0  0.49653  0.94522  0.96973  1.0000
  H   H1058     1.0  0.40702  0.57969  0.80764  1.0000
  C   C1283     1.0  0.39102  0.98529  0.87216  1.0000
  C   C1284     1.0  0.40265  0.78873  0.71568  1.0000
  C   C1285     1.0  0.33780  0.97701  0.62853  1.0000
  H   H1059     1.0  0.48543  0.62928  0.92060  1.0000
  C   C1286     1.0  0.35999  0.96697  0.63973  1.0000
  C   C1287     1.0  0.49419  0.83217  0.95777  1.0000
  H   H1060     1.0  0.29271  0.58340  0.88751  1.0000
  H   H1061     1.0  0.48697  0.60495  0.97975  1.0000
  C   C1288     1.0  0.37920  0.78715  0.73065  1.0000
  H   H1062     1.0  0.42069  0.99006  0.71263  1.0000
  C   C1289     1.0  0.35921  0.87365  0.52142  1.0000
  C   C1290     1.0  0.50145  0.98273  0.79648  1.0000
  C   C1291     1.0  0.33852  0.56891  0.79540  1.0000
  C   C1292     1.0  0.47294  0.84628  0.73974  1.0000
  H   H1063     1.0  0.34430  0.70130  0.86192  1.0000
  H   H1064     1.0  0.47404  0.96441  0.82424  1.0000
  H   H1065     1.0  0.48863  0.96531  0.89223  1.0000
  H   H1066     1.0  0.49179  0.94367  0.72203  1.0000
  C   C1293     1.0  0.27945  0.77380  0.74878  1.0000
  H   H1067     1.0  0.34514  0.97324  0.84740  1.0000
  C   C1294     1.0  0.32871  0.82843  0.76985  1.0000
  C   C1295     1.0  0.33446  0.98588  0.78480  1.0000
  C   C1296     1.0  0.30787  0.67144  0.78973  1.0000
  C   C1297     1.0  0.49189  0.96187  0.81205  1.0000
  H   H1068     1.0  0.49926  0.85628  0.53174  1.0000
  H   H1069     1.0  0.34457  0.95125  0.80888  1.0000
  H   H1070     1.0  0.45594  0.79790  0.98600  1.0000
  C   C1298     1.0  0.48041  0.86916  0.59274  1.0000
  C   C1299     1.0  0.26350  0.59147  0.74949  1.0000
  C   C1300     1.0  0.30254  0.63410  0.96109  1.0000
  H   H1071     1.0  0.33037  0.69051  0.98981  1.0000
  C   C1301     1.0  0.35402  0.53528  0.90204  1.0000
  H   H1072     1.0  0.32526  0.65924  0.79337  1.0000
  H   H1073     1.0  0.32063  0.70434  0.80231  1.0000
  H   H1074     1.0  0.50719  0.90691  0.61633  1.0000
  H   H1075     1.0  0.40300  0.79647  0.69573  1.0000
  C   C1302     1.0  0.33749  0.54214  0.00329  1.0000
  H   H1076     1.0  0.27097  0.00620  0.59905  1.0000
  C   C1303     1.0  0.33734  0.65853  0.94200  1.0000
  H   H1077     1.0  0.34255  0.61909  0.95669  1.0000
  H   H1078     1.0  0.44165  0.59977  0.99373  1.0000
  H   H1079     1.0  0.41773  0.92976  0.92340  1.0000
  C   C1304     1.0  0.46618  0.87896  0.99877  1.0000
  C   C1305     1.0  0.32006  0.67997  0.93691  1.0000
  H   H1080     1.0  0.46568  0.71114  0.00294  1.0000
  C   C1306     1.0  0.29089  0.55646  0.83917  1.0000
  H   H1081     1.0  0.35749  0.65961  0.93664  1.0000
  H   H1082     1.0  0.49724  0.92127  0.82312  1.0000
  H   H1083     1.0  0.47220  0.53706  0.89132  1.0000
  C   C1307     1.0  0.44250  0.99278  0.78196  1.0000
  C   C1308     1.0  0.49346  0.53214  0.92451  1.0000
  H   H1084     1.0  0.47838  0.66639  0.83801  1.0000
  H   H1085     1.0  0.43816  0.97871  0.63047  1.0000
  H   H1086     1.0  0.30482  0.96702  0.51363  1.0000
  C   C1309     1.0  0.46589  0.75169  0.89514  1.0000
  C   C1310     1.0  0.45578  0.77594  0.88540  1.0000
  C   C1311     1.0  0.46839  0.78878  0.86386  1.0000
  H   H1087     1.0  0.48193  0.89847  0.87569  1.0000
  H   H1088     1.0  0.27149  0.99816  0.69327  1.0000
  C   C1312     1.0  0.32937  0.75652  0.82453  1.0000
  C   C1313     1.0  0.49098  0.77730  0.85176  1.0000
  C   C1314     1.0  0.42482  0.77218  0.75254  1.0000
  H   H1089     1.0  0.45582  0.74163  0.91162  1.0000
  H   H1090     1.0  0.43788  0.78464  0.89418  1.0000
  H   H1091     1.0  0.46024  0.80747  0.85627  1.0000
  C   C1315     1.0  0.45503  0.51799  0.82732  1.0000
  P   P42       1.0  0.29092  0.60451  0.97609  1.0000
  C   C1316     1.0  0.45250  0.86074  0.99070  1.0000
  C   C1317     1.0  0.28524  0.65557  0.95531  1.0000
  P   P43       1.0  0.46215  0.84870  0.96004  1.0000
  H   H1092     1.0  0.31580  0.77347  0.82469  1.0000
  C   C1318     1.0  0.44174  0.82488  0.95564  1.0000
  C   C1319     1.0  0.44302  0.80152  0.97134  1.0000
  C   C1320     1.0  0.42724  0.78288  0.96855  1.0000
  C   C1321     1.0  0.41012  0.78738  0.95000  1.0000
  C   C1322     1.0  0.40878  0.81054  0.93423  1.0000
  C   C1323     1.0  0.42457  0.82924  0.93693  1.0000
  C   C1324     1.0  0.45518  0.96569  0.72005  1.0000
  C   C1325     1.0  0.38788  0.57673  0.80419  1.0000
  C   C1326     1.0  0.48942  0.96618  0.68550  1.0000
  C   C1327     1.0  0.47756  0.84948  0.68468  1.0000
  C   C1328     1.0  0.45823  0.87570  0.93583  1.0000
  C   C1329     1.0  0.47443  0.87744  0.91282  1.0000
  C   C1330     1.0  0.47005  0.89773  0.89382  1.0000
  C   C1331     1.0  0.44985  0.91672  0.89781  1.0000
  C   C1332     1.0  0.43380  0.91530  0.92069  1.0000
  C   C1333     1.0  0.43784  0.89485  0.93957  1.0000
  H   H1093     1.0  0.48475  0.93996  0.64231  1.0000
  H   H1094     1.0  0.28047  0.69493  0.93908  1.0000
  C   C1334     1.0  0.28428  0.62755  0.84379  1.0000
  H   H1095     1.0  0.28047  0.73197  0.79568  1.0000
  H   H1096     1.0  0.39774  0.77298  0.94800  1.0000
  H   H1097     1.0  0.42309  0.84698  0.92443  1.0000
  C   C1335     1.0  0.26433  0.56159  0.84230  1.0000
  H   H1098     1.0  0.38084  0.96689  0.58561  1.0000
  H   H1099     1.0  0.28870  0.71598  0.98529  1.0000
  H   H1100     1.0  0.49022  0.86314  0.90915  1.0000
  H   H1101     1.0  0.32463  0.82521  0.75101  1.0000
  H   H1102     1.0  0.48478  0.75758  0.97989  1.0000
  C   C1336     1.0  0.49195  0.81912  0.77433  1.0000
  H   H1103     1.0  0.42468  0.89382  0.95685  1.0000
  H   H1104     1.0  0.49102  0.81890  0.92126  1.0000
  H   H1105     1.0  0.45444  0.97483  0.78160  1.0000
  H   H1106     1.0  0.44249  0.76666  0.76111  1.0000
  C   C1337     1.0  0.49651  0.97979  0.92687  1.0000
  H   H1107     1.0  0.43895  0.82616  0.64785  1.0000
  C   C1338     1.0  0.34482  0.51945  0.86329  1.0000
  P   P44       1.0  0.33642  0.52546  0.83094  1.0000
  H   H1108     1.0  0.27148  0.75293  0.71871  1.0000
  H   H1109     1.0  0.43645  0.85000  0.68537  1.0000
  C   C1339     1.0  0.26492  0.67697  0.77673  1.0000
  C   C1340     1.0  0.42980  0.85425  0.00537  1.0000
  C   C1341     1.0  0.33676  0.99372  0.72066  1.0000
  C   C1342     1.0  0.34528  0.71572  0.84564  1.0000
  H   H1110     1.0  0.32692  0.69761  0.92764  1.0000
  C   C1343     1.0  0.45639  0.82989  0.65495  1.0000
  C   C1344     1.0  0.49464  0.83524  0.75146  1.0000
  H   H1111     1.0  0.41050  0.97715  0.77013  1.0000
  H   H1112     1.0  0.43125  0.52861  0.91580  1.0000
  H   H1113     1.0  0.30708  0.96696  0.67854  1.0000
  C   C1345     1.0  0.30216  0.53183  0.83496  1.0000
  C   C1346     1.0  0.50066  0.69689  0.84195  1.0000
  C   C1347     1.0  0.28656  0.51200  0.83569  1.0000
  C   C1348     1.0  0.44932  0.99235  0.68027  1.0000
  C   C1349     1.0  0.28962  0.99679  0.70116  1.0000
  C   C1350     1.0  0.29011  0.70031  0.00036  1.0000
  C   C1351     1.0  0.32219  0.85272  0.77791  1.0000
  C   C1352     1.0  0.37479  0.98332  0.64916  1.0000
  C   C1353     1.0  0.47155  0.53256  0.91184  1.0000
  H   H1114     1.0  0.31842  0.87973  0.53059  1.0000
  C   C1354     1.0  0.37614  0.55611  0.81758  1.0000
  C   C1355     1.0  0.35025  0.58963  0.78209  1.0000
  H   H1115     1.0  0.30776  0.60392  0.92124  1.0000
  H   H1116     1.0  0.35528  0.99252  0.72770  1.0000
  H   H1117     1.0  0.26500  0.65455  0.95939  1.0000
  H   H1118     1.0  0.44972  0.89763  0.66907  1.0000
  C   C1356     1.0  0.45505  0.98477  0.91041  1.0000
  H   H1119     1.0  0.36561  0.94669  0.64134  1.0000
  C   C1357     1.0  0.37465  0.95210  0.55112  1.0000
  C   C1358     1.0  0.28057  0.58851  0.95146  1.0000
  C   C1359     1.0  0.47397  0.98335  0.67010  1.0000
  S   S192      1.0  0.31896  0.95747  0.61604  1.0000
  C   C1360     1.0  0.37485  0.59365  0.78665  1.0000
  C   C1361     1.0  0.34759  0.81417  0.80928  1.0000
  C   C1362     1.0  0.48674  0.86057  0.54867  1.0000
  C   C1363     1.0  0.29231  0.59193  0.92625  1.0000
  P   P45       1.0  0.47583  0.86840  0.71105  1.0000
  C   C1364     1.0  0.31587  0.58421  0.99151  1.0000
  C   C1365     1.0  0.34052  0.98419  0.82958  1.0000
  H   H1120     1.0  0.26856  0.62969  0.73248  1.0000
  H   H1121     1.0  0.48805  0.87118  0.61029  1.0000
  C   C1366     1.0  0.45507  0.84363  0.67607  1.0000
  C   C1367     1.0  0.34072  0.80875  0.78587  1.0000
  H   H1122     1.0  0.38659  0.98483  0.91307  1.0000
  C   C1368     1.0  0.49745  0.67243  0.83637  1.0000
  C   C1369     1.0  0.34787  0.75332  0.80356  1.0000
  C   C1370     1.0  0.50299  0.81891  0.93648  1.0000
  P   P46       1.0  0.34804  0.77707  0.77609  1.0000
  H   H1123     1.0  0.32393  0.87683  0.80742  1.0000
  C   C1371     1.0  0.37378  0.97137  0.56706  1.0000
  H   H1124     1.0  0.29281  0.79251  0.77758  1.0000
  H   H1125     1.0  0.49723  0.99698  0.96183  1.0000
  C   C1372     1.0  0.48858  0.74019  0.88322  1.0000
  H   H1126     1.0  0.31410  0.74056  0.86178  1.0000
  H   H1127     1.0  0.44362  0.78268  0.71498  1.0000
  H   H1128     1.0  0.29020  0.64157  0.77736  1.0000
  C   C1373     1.0  0.42547  0.78116  0.72657  1.0000
  C   C1374     1.0  0.31110  0.74611  0.72555  1.0000
  C   C1375     1.0  0.40138  0.77097  0.76765  1.0000
  H   H1129     1.0  0.36178  0.79394  0.72197  1.0000
  H   H1130     1.0  0.42804  0.51935  0.96294  1.0000
  C   C1376     1.0  0.37838  0.77782  0.75667  1.0000
  C   C1377     1.0  0.34122  0.83854  0.81716  1.0000
  H   H1131     1.0  0.27631  0.67017  0.89912  1.0000
  H   H1132     1.0  0.35794  0.79969  0.82149  1.0000
  H   H1133     1.0  0.36208  0.86006  0.53814  1.0000
  C   C1378     1.0  0.29397  0.67846  0.94349  1.0000
  H   H1134     1.0  0.40123  0.76498  0.78791  1.0000
  C   C1379     1.0  0.45980  0.00286  0.94914  1.0000
  H   H1135     1.0  0.34644  0.84254  0.83531  1.0000
  C   C1380     1.0  0.32378  0.76967  0.75775  1.0000
  C   C1381     1.0  0.38831  0.99670  0.89496  1.0000
  H   H1136     1.0  0.48115  0.81121  0.62597  1.0000
  C   C1382     1.0  0.49893  0.94531  0.62675  1.0000
  C   C1383     1.0  0.50075  0.61759  0.91075  1.0000
  C   C1384     1.0  0.50318  0.88630  0.70853  1.0000
  C   C1385     1.0  0.41767  0.99407  0.77501  1.0000
  C   C1386     1.0  0.44449  0.99840  0.93077  1.0000
  H   H1137     1.0  0.50414  0.64857  0.99124  1.0000
  H   H1138     1.0  0.50576  0.88404  0.74922  1.0000
  H   H1139     1.0  0.50767  0.52817  0.96163  1.0000
  P   P47       1.0  0.48690  0.99547  0.63855  1.0000
  C   C1387     1.0  0.50504  0.93744  0.81157  1.0000
  C   C1388     1.0  0.50241  0.59096  0.91577  1.0000
  C   C1389     1.0  0.36271  0.99604  0.55966  1.0000
  C   C1390     1.0  0.36455  0.95748  0.52766  1.0000
  H   H1140     1.0  0.33082  0.61533  0.00596  1.0000
  C   C1391     1.0  0.35504  0.51047  0.91458  1.0000
  C   C1392     1.0  0.35356  0.98218  0.52006  1.0000
  H   H1141     1.0  0.36479  0.94224  0.51576  1.0000
  C   C1393     1.0  0.33246  0.59491  0.00508  1.0000
  C   C1394     1.0  0.50292  0.74730  0.97387  1.0000
  H   H1142     1.0  0.49908  0.75860  0.93400  1.0000
  C   C1395     1.0  0.26615  0.98399  0.52027  1.0000
  C   C1396     1.0  0.48117  0.60007  0.99987  1.0000
  H   H1143     1.0  0.40556  0.99627  0.60172  1.0000
  H   H1144     1.0  0.50331  0.74363  0.79954  1.0000
  H   H1145     1.0  0.50052  0.78769  0.83519  1.0000
  H   H1146     1.0  0.26705  0.98451  0.54056  1.0000
  H   H1147     1.0  0.50622  0.54765  0.81675  1.0000
  C   C1397     1.0  0.50449  0.97075  0.62108  1.0000
  C   C1398     1.0  0.25997  0.51725  0.83868  1.0000
  C   C1399     1.0  0.31374  0.68595  0.00283  1.0000
  C   C1400     1.0  0.44082  0.99627  0.61816  1.0000
  H   H1148     1.0  0.31211  0.00117  0.57303  1.0000
  C   C1401     1.0  0.35224  0.00154  0.53621  1.0000
  C   C1402     1.0  0.50260  0.82627  0.65177  1.0000
  C   C1403     1.0  0.26056  0.57283  0.95714  1.0000
  H   H1149     1.0  0.50467  0.89469  0.66743  1.0000
  C   C1404     1.0  0.50136  0.84005  0.67286  1.0000
  C   C1405     1.0  0.25970  0.61812  0.74863  1.0000
  C   C1406     1.0  0.25983  0.63549  0.85499  1.0000
  C   C1407     1.0  0.42247  0.00591  0.60161  1.0000
  H   H1150     1.0  0.42441  0.00556  0.93231  1.0000
  H   H1151     1.0  0.43734  0.00636  0.66917  1.0000
  C   C1408     1.0  0.45547  0.59682  0.00767  1.0000
  Fe  Fe97      1.0  0.63501  0.21388  0.10454  1.0000
  S   S193      1.0  0.61727  0.21174  0.14523  1.0000
  S   S194      1.0  0.63986  0.25164  0.07848  1.0000
  Fe  Fe98      1.0  0.64324  0.15404  0.10612  1.0000
  S   S195      1.0  0.62659  0.14841  0.14684  1.0000
  S   S196      1.0  0.65715  0.12103  0.08194  1.0000
  Fe  Fe99      1.0  0.59681  0.18004  0.13559  1.0000
  S   S197      1.0  0.55684  0.17520  0.15349  1.0000
  Fe  Fe100     1.0  0.64849  0.18043  0.15317  1.0000
  S   S198      1.0  0.66718  0.17814  0.18962  1.0000
  S   S199      1.0  0.61190  0.18406  0.09404  1.0000
  S   S200      1.0  0.66808  0.18411  0.11301  1.0000
  Fe  Fe101     1.0  0.62308  0.12391  0.35841  1.0000
  S   S201      1.0  0.62847  0.09307  0.33218  1.0000
  S   S202      1.0  0.65762  0.14179  0.36873  1.0000
  Fe  Fe102     1.0  0.56299  0.12427  0.36392  1.0000
  S   S203      1.0  0.56540  0.09367  0.33812  1.0000
  S   S204      1.0  0.52442  0.14231  0.38137  1.0000
  Fe  Fe103     1.0  0.59796  0.07522  0.35944  1.0000
  S   S205      1.0  0.59699  0.03411  0.37544  1.0000
  Fe  Fe104     1.0  0.59535  0.11499  0.31379  1.0000
  S   S206      1.0  0.59076  0.12135  0.27179  1.0000
  S   S207      1.0  0.59433  0.10457  0.38709  1.0000
  S   S208      1.0  0.59115  0.14716  0.33828  1.0000
  Fe  Fe105     1.0  0.62547  0.46703  0.07884  1.0000
  S   S209      1.0  0.64484  0.47253  0.03916  1.0000
  C   C1409     1.0  0.59644  0.02791  0.47054  1.0000
  Fe  Fe106     1.0  0.63216  0.40703  0.07962  1.0000
  S   S210      1.0  0.65319  0.40931  0.04019  1.0000
  S   S211      1.0  0.62462  0.36871  0.10348  1.0000
  Fe  Fe107     1.0  0.67266  0.44019  0.05263  1.0000
  S   S212      1.0  0.71377  0.44616  0.04393  1.0000
  Fe  Fe108     1.0  0.62291  0.44138  0.03087  1.0000
  C   C1410     1.0  0.51959  0.04361  0.45443  1.0000
  S   S213      1.0  0.65468  0.43579  0.09302  1.0000
  S   S214      1.0  0.60055  0.43798  0.06965  1.0000
  H   H1152     1.0  0.55088  0.07200  0.22383  1.0000
  C   C1411     1.0  0.53779  0.26763  0.11491  1.0000
  H   H1153     1.0  0.70205  0.16496  0.37695  1.0000
  H   H1154     1.0  0.65617  0.05048  0.15799  1.0000
  H   H1155     1.0  0.69337  0.49591  0.11192  1.0000
  H   H1156     1.0  0.51316  0.07943  0.05435  1.0000
  C   C1412     1.0  0.54036  0.06404  0.24118  1.0000
  C   C1413     1.0  0.73340  0.41928  0.05494  1.0000
  H   H1157     1.0  0.53802  0.05558  0.18225  1.0000
  C   C1414     1.0  0.72401  0.39546  0.06136  1.0000
  C   C1415     1.0  0.63848  0.20776  0.28144  1.0000
  H   H1158     1.0  0.70420  0.39350  0.05987  1.0000
  H   H1159     1.0  0.63363  0.08123  0.11991  1.0000
  C   C1416     1.0  0.51038  0.03508  0.26286  1.0000
  C   C1417     1.0  0.65284  0.10541  0.43087  1.0000
  H   H1160     1.0  0.56329  0.36029  0.10633  1.0000
  C   C1418     1.0  0.61344  0.04241  0.23987  1.0000
  C   C1419     1.0  0.54549  0.01568  0.05030  1.0000
  C   C1420     1.0  0.63508  0.28406  0.08589  1.0000
  C   C1421     1.0  0.62836  0.29048  0.11083  1.0000
  C   C1422     1.0  0.62539  0.31636  0.11578  1.0000
  C   C1423     1.0  0.62935  0.33627  0.09600  1.0000
  C   C1424     1.0  0.63636  0.32982  0.07107  1.0000
  C   C1425     1.0  0.63898  0.30396  0.06609  1.0000
  H   H1161     1.0  0.62550  0.27551  0.12634  1.0000
  H   H1162     1.0  0.62000  0.32099  0.13514  1.0000
  H   H1163     1.0  0.63944  0.34478  0.05558  1.0000
  H   H1164     1.0  0.64421  0.29930  0.04675  1.0000
  C   C1426     1.0  0.65610  0.08712  0.08355  1.0000
  C   C1427     1.0  0.53510  0.16388  0.26979  1.0000
  H   H1165     1.0  0.67826  0.08612  0.04691  1.0000
  C   C1428     1.0  0.68548  0.22912  0.01906  1.0000
  C   C1429     1.0  0.64587  0.16459  0.21418  1.0000
  C   C1430     1.0  0.62034  0.16449  0.21005  1.0000
  C   C1431     1.0  0.60361  0.15170  0.22822  1.0000
  C   C1432     1.0  0.61217  0.13886  0.25074  1.0000
  C   C1433     1.0  0.63763  0.13917  0.25521  1.0000
  C   C1434     1.0  0.65440  0.15246  0.23712  1.0000
  H   H1166     1.0  0.61337  0.17414  0.19270  1.0000
  H   H1167     1.0  0.58403  0.15145  0.22453  1.0000
  H   H1168     1.0  0.64454  0.12860  0.27222  1.0000
  H   H1169     1.0  0.67414  0.15243  0.24044  1.0000
  C   C1435     1.0  0.70806  0.47295  0.20767  1.0000
  C   C1436     1.0  0.54697  0.24355  0.16370  1.0000
  C   C1437     1.0  0.53887  0.19168  0.10715  1.0000
  C   C1438     1.0  0.53292  0.18298  0.13291  1.0000
  H   H1170     1.0  0.52543  0.02177  0.04915  1.0000
  C   C1439     1.0  0.63143  0.18467  0.29425  1.0000
  C   C1440     1.0  0.73468  0.16900  0.27177  1.0000
  H   H1171     1.0  0.55834  0.19410  0.09971  1.0000
  H   H1172     1.0  0.58597  0.37116  0.06361  1.0000
  P   P48       1.0  0.56270  0.02759  0.48025  1.0000
  C   C1441     1.0  0.75055  0.45520  0.19165  1.0000
  C   C1442     1.0  0.68606  0.20915  0.03892  1.0000
  C   C1443     1.0  0.66844  0.07499  0.06274  1.0000
  H   H1173     1.0  0.58412  0.34433  0.02871  1.0000
  P   P49       1.0  0.54286  0.04593  0.09066  1.0000
  C   C1444     1.0  0.70038  0.10836  0.35380  1.0000
  C   C1445     1.0  0.69109  0.13151  0.36347  1.0000
  C   C1446     1.0  0.70891  0.14706  0.36942  1.0000
  H   H1174     1.0  0.68706  0.09613  0.34908  1.0000
  H   H1175     1.0  0.58255  0.21177  0.01516  1.0000
  H   H1176     1.0  0.51946  0.09727  0.10077  1.0000
  C   C1447     1.0  0.54686  0.03412  0.12355  1.0000
  C   C1448     1.0  0.67299  0.01188  0.15616  1.0000
  C   C1449     1.0  0.61411  0.02039  0.48845  1.0000
  C   C1450     1.0  0.55196  0.07309  0.44934  1.0000
  C   C1451     1.0  0.75474  0.26358  0.15671  1.0000
  C   C1452     1.0  0.69388  0.05775  0.50440  1.0000
  C   C1453     1.0  0.66281  0.08751  0.41404  1.0000
  C   C1454     1.0  0.51350  0.04361  0.28623  1.0000
  H   H1177     1.0  0.51688  0.26246  0.03765  1.0000
  H   H1178     1.0  0.52915  0.06911  0.13821  1.0000
  C   C1455     1.0  0.57404  0.33965  0.04735  1.0000
  H   H1179     1.0  0.58277  0.25993  0.15708  1.0000
  H   H1180     1.0  0.56057  0.30627  0.03681  1.0000
  P   P50       1.0  0.71645  0.19837  0.28045  1.0000
  H   H1181     1.0  0.59212  0.03834  0.43031  1.0000
  H   H1182     1.0  0.71052  0.11149  0.22572  1.0000
  H   H1183     1.0  0.57528  0.28059  0.11418  1.0000
  C   C1456     1.0  0.74382  0.15067  0.29092  1.0000
  H   H1184     1.0  0.74056  0.15403  0.31085  1.0000
  H   H1185     1.0  0.64463  0.14841  0.31395  1.0000
  H   H1186     1.0  0.58397  0.06266  0.50934  1.0000
  S   S215      1.0  0.61384  0.50100  0.10214  1.0000
  C   C1457     1.0  0.72355  0.26633  0.21748  1.0000
  H   H1187     1.0  0.66953  0.17504  0.05629  1.0000
  C   C1458     1.0  0.56212  0.34868  0.09108  1.0000
  H   H1188     1.0  0.70848  0.24554  0.12808  1.0000
  H   H1189     1.0  0.73963  0.25121  0.16095  1.0000
  C   C1459     1.0  0.69840  0.13376  0.48792  1.0000
  C   C1460     1.0  0.73553  0.13977  0.36566  1.0000
  C   C1461     1.0  0.66147  0.09364  0.19831  1.0000
  P   P51       1.0  0.72135  0.29780  0.12830  1.0000
  C   C1462     1.0  0.75086  0.28688  0.05480  1.0000
  C   C1463     1.0  0.75130  0.28707  0.14145  1.0000
  H   H1190     1.0  0.74582  0.45782  0.25610  1.0000
  C   C1464     1.0  0.75196  0.14023  0.24001  1.0000
  H   H1191     1.0  0.54333  0.10873  0.42610  1.0000
  H   H1192     1.0  0.58348  0.25386  0.07897  1.0000
  H   H1193     1.0  0.68507  0.05500  0.48770  1.0000
  C   C1465     1.0  0.66845  0.04860  0.06201  1.0000
  C   C1466     1.0  0.54812  0.25995  0.06122  1.0000
  P   P52       1.0  0.53265  0.28229  0.08297  1.0000
  H   H1194     1.0  0.61029  0.04720  0.16151  1.0000
  C   C1467     1.0  0.69022  0.07879  0.23963  1.0000
  C   C1468     1.0  0.58669  0.08194  0.15258  1.0000
  H   H1195     1.0  0.70239  0.24545  0.19625  1.0000
  C   C1469     1.0  0.55479  0.07710  0.08501  1.0000
  H   H1196     1.0  0.63472  0.11661  0.42803  1.0000
  C   C1470     1.0  0.66890  0.19070  0.04107  1.0000
  C   C1471     1.0  0.70964  0.22469  0.23242  1.0000
  C   C1472     1.0  0.51325  0.15593  0.26206  1.0000
  H   H1197     1.0  0.71883  0.06695  0.43871  1.0000
  C   C1473     1.0  0.72698  0.10088  0.35039  1.0000
  C   C1474     1.0  0.61356  0.01279  0.35501  1.0000
  H   H1198     1.0  0.63326  0.03389  0.11849  1.0000
  P   P53       1.0  0.70990  0.10293  0.47733  1.0000
  C   C1475     1.0  0.69073  0.09608  0.45344  1.0000
  H   H1199     1.0  0.58346  0.07697  0.13407  1.0000
  C   C1476     1.0  0.56078  0.31796  0.05207  1.0000
  H   H1200     1.0  0.61155  0.18111  0.29678  1.0000
  C   C1477     1.0  0.53908  0.09870  0.09280  1.0000
  C   C1478     1.0  0.56505  0.25819  0.14947  1.0000
  H   H1201     1.0  0.65074  0.09966  0.18208  1.0000
  C   C1479     1.0  0.68648  0.07353  0.41709  1.0000
  C   C1480     1.0  0.70031  0.07761  0.43685  1.0000
  C   C1481     1.0  0.57495  0.35484  0.06693  1.0000
  H   H1202     1.0  0.55553  0.08739  0.26512  1.0000
  C   C1482     1.0  0.55588  0.01825  0.17451  1.0000
  C   C1483     1.0  0.69555  0.10029  0.22268  1.0000
  H   H1203     1.0  0.61326  0.39362  0.01758  1.0000
  H   H1204     1.0  0.51425  0.16980  0.33213  1.0000
  C   C1484     1.0  0.74815  0.29308  0.07994  1.0000
  H   H1205     1.0  0.60917  0.10584  0.06497  1.0000
  H   H1206     1.0  0.65881  0.12405  0.46302  1.0000
  C   C1485     1.0  0.58017  0.11182  0.18433  1.0000
  H   H1207     1.0  0.69897  0.20924  0.22938  1.0000
  C   C1486     1.0  0.54338  0.04242  0.16801  1.0000
  C   C1487     1.0  0.65609  0.03334  0.08203  1.0000
  C   C1488     1.0  0.60244  0.06531  0.16803  1.0000
  C   C1489     1.0  0.64331  0.07212  0.10379  1.0000
  H   H1208     1.0  0.59311  0.06389  0.06908  1.0000
  C   C1490     1.0  0.52590  0.39338  0.03190  1.0000
  P   P54       1.0  0.63119  0.05328  0.21005  1.0000
  H   H1209     1.0  0.70300  0.19734  0.47077  1.0000
  C   C1491     1.0  0.54869  0.32710  0.09581  1.0000
  C   C1492     1.0  0.58022  0.07990  0.07504  1.0000
  H   H1210     1.0  0.62089  0.26618  0.01120  1.0000
  C   C1493     1.0  0.64852  0.02724  0.19411  1.0000
  H   H1211     1.0  0.51225  0.02592  0.46277  1.0000
  H   H1212     1.0  0.73365  0.35533  0.07312  1.0000
  C   C1494     1.0  0.70636  0.27920  0.05917  1.0000
  C   C1495     1.0  0.63213  0.02088  0.33572  1.0000
  C   C1496     1.0  0.64910  0.02539  0.45499  1.0000
  H   H1213     1.0  0.60514  0.22402  0.04955  1.0000
  C   C1497     1.0  0.52404  0.04530  0.24038  1.0000
  C   C1498     1.0  0.54301  0.07276  0.26446  1.0000
  H   H1214     1.0  0.59564  0.02056  0.08376  1.0000
  C   C1499     1.0  0.60536  0.03344  0.44467  1.0000
  H   H1215     1.0  0.71817  0.15548  0.45581  1.0000
  C   C1500     1.0  0.67717  0.29242  0.16239  1.0000
  H   H1216     1.0  0.63633  0.04045  0.33307  1.0000
  C   C1501     1.0  0.60828  0.07252  0.19115  1.0000
  H   H1217     1.0  0.73381  0.08289  0.34299  1.0000
  H   H1218     1.0  0.71702  0.45215  0.09689  1.0000
  H   H1219     1.0  0.53904  0.32248  0.11472  1.0000
  H   H1220     1.0  0.53200  0.06918  0.30502  1.0000
  H   H1221     1.0  0.57001  0.07839  0.45358  1.0000
  H   H1222     1.0  0.65243  0.08502  0.39822  1.0000
  C   C1502     1.0  0.69593  0.28053  0.14540  1.0000
  C   C1503     1.0  0.69445  0.25507  0.14132  1.0000
  C   C1504     1.0  0.67475  0.24166  0.15425  1.0000
  C   C1505     1.0  0.65628  0.25351  0.17127  1.0000
  C   C1506     1.0  0.65742  0.27892  0.17524  1.0000
  C   C1507     1.0  0.71296  0.33162  0.12985  1.0000
  C   C1508     1.0  0.69548  0.34514  0.11395  1.0000
  C   C1509     1.0  0.68893  0.37133  0.11493  1.0000
  C   C1510     1.0  0.69957  0.38422  0.13186  1.0000
  C   C1511     1.0  0.71644  0.37077  0.14829  1.0000
  C   C1512     1.0  0.72287  0.34449  0.14755  1.0000
  H   H1223     1.0  0.69003  0.27390  0.05125  1.0000
  H   H1224     1.0  0.68506  0.28517  0.09521  1.0000
  C   C1513     1.0  0.58481  0.01497  0.06961  1.0000
  H   H1225     1.0  0.67383  0.22199  0.15114  1.0000
  H   H1226     1.0  0.64113  0.24289  0.18134  1.0000
  H   H1227     1.0  0.68686  0.33560  0.10071  1.0000
  H   H1228     1.0  0.67565  0.38162  0.10237  1.0000
  H   H1229     1.0  0.69451  0.40457  0.13230  1.0000
  H   H1230     1.0  0.72453  0.38070  0.16161  1.0000
  C   C1514     1.0  0.53560  0.16851  0.29509  1.0000
  C   C1515     1.0  0.71121  0.24547  0.21361  1.0000
  H   H1231     1.0  0.55267  0.17436  0.30106  1.0000
  H   H1232     1.0  0.55178  0.16638  0.25621  1.0000
  H   H1233     1.0  0.55078  0.23359  0.18217  1.0000
  C   C1516     1.0  0.57326  0.24912  0.06398  1.0000
  C   C1517     1.0  0.55892  0.02412  0.06854  1.0000
  H   H1234     1.0  0.62397  0.22217  0.27447  1.0000
  C   C1518     1.0  0.63158  0.03224  0.43695  1.0000
  C   C1519     1.0  0.70575  0.15625  0.47351  1.0000
  H   H1235     1.0  0.57178  0.13004  0.19041  1.0000
  H   H1236     1.0  0.73045  0.43520  0.13915  1.0000
  C   C1520     1.0  0.54855  0.31115  0.07650  1.0000
  C   C1521     1.0  0.64033  0.01936  0.48072  1.0000
  C   C1522     1.0  0.58732  0.02462  0.28669  1.0000
  C   C1523     1.0  0.59959  0.04680  0.28466  1.0000
  H   H1237     1.0  0.62148  0.07325  0.26019  1.0000
  C   C1524     1.0  0.73401  0.45813  0.10296  1.0000
  H   H1238     1.0  0.66940  0.02479  0.44899  1.0000
  H   H1239     1.0  0.73246  0.27380  0.02550  1.0000
  H   H1240     1.0  0.59922  0.05705  0.30121  1.0000
  C   C1525     1.0  0.53589  0.25390  0.04092  1.0000
  C   C1526     1.0  0.72073  0.22438  0.25530  1.0000
  C   C1527     1.0  0.54817  0.23634  0.02457  1.0000
  H   H1241     1.0  0.70155  0.47537  0.24827  1.0000
  C   C1528     1.0  0.65575  0.07223  0.21546  1.0000
  H   H1242     1.0  0.68552  0.12416  0.18871  1.0000
  H   H1243     1.0  0.66707  0.04764  0.24883  1.0000
  H   H1244     1.0  0.58126  0.14338  0.07919  1.0000
  H   H1245     1.0  0.73108  0.11849  0.42471  1.0000
  C   C1529     1.0  0.57555  0.10517  0.16072  1.0000
  C   C1530     1.0  0.52423  0.24114  0.15379  1.0000
  C   C1531     1.0  0.54856  0.12247  0.09064  1.0000
  C   C1532     1.0  0.71525  0.46996  0.23247  1.0000
  C   C1533     1.0  0.54573  0.40228  0.01462  1.0000
  C   C1534     1.0  0.58956  0.10379  0.07273  1.0000
  H   H1246     1.0  0.55998  0.01234  0.19401  1.0000
  C   C1535     1.0  0.73451  0.26633  0.24017  1.0000
  H   H1247     1.0  0.60061  0.10142  0.21734  1.0000
  H   H1248     1.0  0.66904  0.23053  0.26824  1.0000
  C   C1536     1.0  0.72469  0.29159  0.09519  1.0000
  H   H1249     1.0  0.60766  0.01541  0.50843  1.0000
  H   H1250     1.0  0.63816  0.03658  0.41687  1.0000
  H   H1251     1.0  0.67838  0.03988  0.04567  1.0000
  H   H1252     1.0  0.57782  0.01749  0.30499  1.0000
  C   C1537     1.0  0.69711  0.18009  0.48189  1.0000
  C   C1538     1.0  0.65006  0.16617  0.30360  1.0000
  C   C1539     1.0  0.75279  0.20601  0.31202  1.0000
  C   C1540     1.0  0.57301  0.22534  0.02781  1.0000
  H   H1253     1.0  0.65371  0.01399  0.49483  1.0000
  C   C1541     1.0  0.67064  0.06455  0.23583  1.0000
  C   C1542     1.0  0.73011  0.27943  0.04462  1.0000
  C   C1543     1.0  0.72665  0.20580  0.30984  1.0000
  C   C1544     1.0  0.70361  0.28549  0.08426  1.0000
  C   C1545     1.0  0.73321  0.24544  0.25901  1.0000
  H   H1254     1.0  0.71949  0.46841  0.16839  1.0000
  H   H1255     1.0  0.70125  0.07316  0.25572  1.0000
  C   C1546     1.0  0.64317  0.04529  0.10298  1.0000
  C   C1547     1.0  0.56063  0.26997  0.12512  1.0000
  C   C1548     1.0  0.70876  0.21079  0.33090  1.0000
  C   C1549     1.0  0.71694  0.21597  0.35370  1.0000
  C   C1550     1.0  0.74015  0.46007  0.23689  1.0000
  H   H1256     1.0  0.68880  0.48080  0.20419  1.0000
  C   C1551     1.0  0.53686  0.09043  0.43390  1.0000
  C   C1552     1.0  0.68314  0.19313  0.28579  1.0000
  C   C1553     1.0  0.67583  0.17024  0.29924  1.0000
  C   C1554     1.0  0.58566  0.23205  0.04727  1.0000
  C   C1555     1.0  0.66419  0.21221  0.27759  1.0000
  H   H1257     1.0  0.73552  0.33435  0.16080  1.0000
  H   H1258     1.0  0.52411  0.20375  0.07096  1.0000
  C   C1556     1.0  0.61240  0.05582  0.26133  1.0000
  H   H1259     1.0  0.68027  0.01519  0.13615  1.0000
  H   H1260     1.0  0.67751  0.31215  0.16559  1.0000
  C   C1557     1.0  0.52973  0.06245  0.28698  1.0000
  H   H1261     1.0  0.72432  0.28262  0.20302  1.0000
  C   C1558     1.0  0.57383  0.12500  0.08069  1.0000
  C   C1559     1.0  0.68139  0.10749  0.20188  1.0000
  H   H1262     1.0  0.69973  0.20798  0.05279  1.0000
  H   H1263     1.0  0.68852  0.21034  0.33002  1.0000
  H   H1264     1.0  0.70307  0.21938  0.36998  1.0000
  C   C1560     1.0  0.59657  0.09564  0.19944  1.0000
  C   C1561     1.0  0.65890  0.03169  0.16850  1.0000
  H   H1265     1.0  0.68989  0.15559  0.30665  1.0000
  C   C1562     1.0  0.51945  0.19732  0.09094  1.0000
  C   C1563     1.0  0.73854  0.16336  0.24626  1.0000
  C   C1564     1.0  0.66670  0.10971  0.45054  1.0000
  C   C1565     1.0  0.74677  0.11342  0.43639  1.0000
  H   H1266     1.0  0.69440  0.06011  0.40362  1.0000
  H   H1267     1.0  0.64287  0.28821  0.18817  1.0000
  C   C1566     1.0  0.53865  0.05021  0.14275  1.0000
  H   H1268     1.0  0.52998  0.38307  0.05014  1.0000
  H   H1269     1.0  0.52153  0.03911  0.22225  1.0000
  H   H1270     1.0  0.53634  0.13897  0.09681  1.0000
  H   H1271     1.0  0.56372  0.11831  0.14857  1.0000
  C   C1567     1.0  0.74482  0.11649  0.35621  1.0000
  C   C1568     1.0  0.55848  0.00941  0.13039  1.0000
  H   H1272     1.0  0.73125  0.17654  0.23106  1.0000
  C   C1569     1.0  0.60002  0.02081  0.24172  1.0000
  C   C1570     1.0  0.74240  0.10446  0.46249  1.0000
  C   C1571     1.0  0.65090  0.19236  0.02356  1.0000
  C   C1572     1.0  0.54367  0.04932  0.45930  1.0000
  C   C1573     1.0  0.74058  0.37393  0.06894  1.0000
  C   C1574     1.0  0.72563  0.46573  0.18731  1.0000
  H   H1273     1.0  0.69902  0.24307  0.01765  1.0000
  H   H1274     1.0  0.74882  0.15217  0.37011  1.0000
  C   C1575     1.0  0.51962  0.25305  0.12952  1.0000
  H   H1275     1.0  0.51045  0.22932  0.16462  1.0000
  H   H1276     1.0  0.74935  0.22004  0.37339  1.0000
  C   C1576     1.0  0.68081  0.18167  0.50452  1.0000
  C   C1577     1.0  0.69237  0.50702  0.12792  1.0000
  H   H1277     1.0  0.74363  0.28273  0.24339  1.0000
  C   C1578     1.0  0.74296  0.21627  0.35566  1.0000
  H   H1278     1.0  0.74145  0.24616  0.27658  1.0000
  C   C1579     1.0  0.70771  0.07879  0.50459  1.0000
  H   H1279     1.0  0.59991  0.01064  0.22521  1.0000
  H   H1280     1.0  0.51334  0.15311  0.24222  1.0000
  H   H1281     1.0  0.56518  0.39894  0.01950  1.0000
  C   C1580     1.0  0.74164  0.44860  0.12691  1.0000
  C   C1581     1.0  0.51325  0.08435  0.42859  1.0000
  H   H1282     1.0  0.74278  0.48184  0.06778  1.0000
  H   H1283     1.0  0.63766  0.17796  0.02535  1.0000
  H   H1284     1.0  0.65353  0.49990  0.14105  1.0000
  H   H1285     1.0  0.75378  0.15309  0.49390  1.0000
  C   C1582     1.0  0.51401  0.16575  0.31261  1.0000
  C   C1583     1.0  0.58718  0.01187  0.26513  1.0000
  C   C1584     1.0  0.74853  0.47491  0.08657  1.0000
  H   H1286     1.0  0.66033  0.00966  0.30528  1.0000
  H   H1287     1.0  0.75497  0.13611  0.22028  1.0000
  C   C1585     1.0  0.75724  0.12759  0.28459  1.0000
  C   C1586     1.0  0.50926  0.05016  0.08649  1.0000
  C   C1587     1.0  0.75782  0.45302  0.21655  1.0000
  H   H1288     1.0  0.69256  0.50793  0.02634  1.0000
  H   H1289     1.0  0.53836  0.23116  0.00945  1.0000
  Fe  Fe109     1.0  0.64728  0.10360  0.59316  1.0000
  S   S216      1.0  0.64872  0.06238  0.60909  1.0000
  S   S217      1.0  0.68453  0.12270  0.58274  1.0000
  Fe  Fe110     1.0  0.58798  0.10747  0.58983  1.0000
  S   S218      1.0  0.58664  0.06660  0.60474  1.0000
  S   S219      1.0  0.54982  0.13064  0.58218  1.0000
  Fe  Fe111     1.0  0.61223  0.07429  0.63290  1.0000
  S   S220      1.0  0.60004  0.05842  0.67320  1.0000
  Fe  Fe112     1.0  0.62291  0.05923  0.57926  1.0000
  S   S221      1.0  0.62739  0.02583  0.55632  1.0000
  S   S222      1.0  0.61222  0.11609  0.61948  1.0000
  S   S223      1.0  0.62292  0.09978  0.56169  1.0000
  Fe  Fe113     1.0  0.61904  0.12849  0.84917  1.0000
  S   S224      1.0  0.58909  0.13622  0.82198  1.0000
  S   S225      1.0  0.63136  0.16142  0.86828  1.0000
  Fe  Fe114     1.0  0.62539  0.06900  0.84286  1.0000
  S   S226      1.0  0.59647  0.07416  0.81464  1.0000
  S   S227      1.0  0.64531  0.02891  0.85480  1.0000
  Fe  Fe115     1.0  0.61487  0.10952  0.79816  1.0000
  S   S228      1.0  0.62604  0.12319  0.75696  1.0000
  Fe  Fe116     1.0  0.57412  0.10015  0.84155  1.0000
  S   S229      1.0  0.64589  0.10294  0.82435  1.0000
  S   S230      1.0  0.60206  0.09381  0.87081  1.0000
  Fe  Fe117     1.0  0.63199  0.37541  0.85627  1.0000
  S   S231      1.0  0.65992  0.36916  0.88560  1.0000
  S   S232      1.0  0.62324  0.41574  0.83564  1.0000
  Fe  Fe118     1.0  0.62588  0.31670  0.85988  1.0000
  S   S233      1.0  0.65290  0.30767  0.88962  1.0000
  S   S234      1.0  0.60750  0.28391  0.84666  1.0000
  Fe  Fe119     1.0  0.63312  0.34219  0.90654  1.0000
  S   S235      1.0  0.62452  0.33895  0.94903  1.0000
  Fe  Fe120     1.0  0.67700  0.33527  0.86566  1.0000
  S   S236      1.0  0.71884  0.32162  0.86118  1.0000
  S   S237      1.0  0.60368  0.35004  0.87870  1.0000
  S   S238      1.0  0.65131  0.34288  0.83429  1.0000
  C   C1588     1.0  0.62197  0.44736  0.84487  1.0000
  C   C1589     1.0  0.58028  0.38624  0.78941  1.0000
  C   C1590     1.0  0.70896  0.38032  0.94641  1.0000
  H   H1290     1.0  0.57459  0.45213  0.81319  1.0000
  H   H1291     1.0  0.61452  0.43780  0.88554  1.0000
  C   C1591     1.0  0.62013  0.36869  0.96081  1.0000
  C   C1592     1.0  0.61903  0.36962  0.98712  1.0000
  H   H1292     1.0  0.61753  0.39065  0.92402  1.0000
  H   H1293     1.0  0.51401  0.19906  0.83865  1.0000
  C   C1593     1.0  0.73866  0.34581  0.85065  1.0000
  H   H1294     1.0  0.70112  0.47922  0.81192  1.0000
  H   H1295     1.0  0.53204  0.43618  0.75336  1.0000
  H   H1296     1.0  0.54894  0.06908  0.66007  1.0000
  H   H1297     1.0  0.57601  0.28087  0.00459  1.0000
  C   C1594     1.0  0.72836  0.37092  0.84409  1.0000
  H   H1298     1.0  0.63248  0.01595  0.68711  1.0000
  H   H1299     1.0  0.53132  0.08231  0.71874  1.0000
  H   H1300     1.0  0.72991  0.42710  0.87249  1.0000
  H   H1301     1.0  0.70787  0.37571  0.84585  1.0000
  C   C1595     1.0  0.62466  0.19545  0.86166  1.0000
  C   C1596     1.0  0.63705  0.21170  0.87422  1.0000
  C   C1597     1.0  0.63238  0.23865  0.86969  1.0000
  C   C1598     1.0  0.61498  0.24990  0.85259  1.0000
  C   C1599     1.0  0.60232  0.23367  0.84030  1.0000
  C   C1600     1.0  0.60717  0.20673  0.84467  1.0000
  H   H1302     1.0  0.65050  0.20334  0.88750  1.0000
  H   H1303     1.0  0.64223  0.25065  0.87949  1.0000
  H   H1304     1.0  0.58873  0.24198  0.82715  1.0000
  H   H1305     1.0  0.59735  0.19467  0.83489  1.0000
  C   C1601     1.0  0.60645  0.07689  0.69636  1.0000
  C   C1602     1.0  0.59592  0.07178  0.72174  1.0000
  C   C1603     1.0  0.60156  0.08604  0.74062  1.0000
  C   C1604     1.0  0.61753  0.10555  0.73400  1.0000
  C   C1605     1.0  0.62720  0.11115  0.70848  1.0000
  C   C1606     1.0  0.62203  0.09663  0.68970  1.0000
  H   H1306     1.0  0.58357  0.05675  0.72683  1.0000
  H   H1307     1.0  0.59362  0.08194  0.76019  1.0000
  H   H1308     1.0  0.63870  0.12678  0.70327  1.0000
  H   H1309     1.0  0.63013  0.10074  0.67016  1.0000
  C   C1607     1.0  0.75660  0.49514  0.92799  1.0000
  H   H1310     1.0  0.59191  0.48768  0.78457  1.0000
  C   C1608     1.0  0.53936  0.18581  0.91364  1.0000
  C   C1609     1.0  0.74083  0.36652  0.76860  1.0000
  H   H1311     1.0  0.55591  0.42287  0.97800  1.0000
  H   H1312     1.0  0.63919  0.02051  0.77650  1.0000
  H   H1313     1.0  0.51517  0.20336  0.79187  1.0000
  C   C1610     1.0  0.71130  0.49440  0.99148  1.0000
  C   C1611     1.0  0.71111  0.50557  0.87468  1.0000
  C   C1612     1.0  0.53718  0.05503  0.65590  1.0000
  C   C1613     1.0  0.61473  0.39313  0.99715  1.0000
  C   C1614     1.0  0.71959  0.43410  0.88958  1.0000
  H   H1314     1.0  0.54497  0.35020  0.90933  1.0000
  H   H1315     1.0  0.68497  0.41834  0.88500  1.0000
  C   C1615     1.0  0.51197  0.04823  0.72743  1.0000
  H   H1316     1.0  0.60717  0.48321  0.89522  1.0000
  C   C1616     1.0  0.61667  0.45313  0.87027  1.0000
  C   C1617     1.0  0.55179  0.42098  0.85565  1.0000
  C   C1618     1.0  0.53280  0.42797  0.83894  1.0000
  C   C1619     1.0  0.72134  0.09439  0.61184  1.0000
  C   C1620     1.0  0.71624  0.11242  0.59097  1.0000
  C   C1621     1.0  0.73695  0.12346  0.57643  1.0000
  C   C1622     1.0  0.54110  0.25139  0.88508  1.0000
  H   H1317     1.0  0.70588  0.08504  0.62283  1.0000
  H   H1318     1.0  0.73348  0.13670  0.55981  1.0000
  H   H1319     1.0  0.56574  0.01628  0.73923  1.0000
  C   C1623     1.0  0.65011  0.21241  0.00381  1.0000
  C   C1624     1.0  0.55762  0.35679  0.94467  1.0000
  H   H1320     1.0  0.72910  0.03811  0.73745  1.0000
  C   C1625     1.0  0.74651  0.08877  0.61884  1.0000
  H   H1321     1.0  0.57362  0.36656  0.93534  1.0000
  P   P55       1.0  0.70777  0.09215  0.72976  1.0000
  C   C1626     1.0  0.71692  0.10915  0.75428  1.0000
  C   C1627     1.0  0.69418  0.11463  0.70510  1.0000
  C   C1628     1.0  0.68700  0.14035  0.70912  1.0000
  C   C1629     1.0  0.67791  0.15790  0.68951  1.0000
  C   C1630     1.0  0.67573  0.14996  0.66575  1.0000
  C   C1631     1.0  0.68274  0.12449  0.66155  1.0000
  C   C1632     1.0  0.69215  0.10691  0.68101  1.0000
  C   C1633     1.0  0.69799  0.11990  0.77187  1.0000
  C   C1634     1.0  0.70470  0.13283  0.79114  1.0000
  C   C1635     1.0  0.62063  0.49335  0.83089  1.0000
  H   H1322     1.0  0.74714  0.41624  0.78100  1.0000
  H   H1323     1.0  0.55018  0.47133  0.72482  1.0000
  C   C1636     1.0  0.68545  0.06994  0.74458  1.0000
  C   C1637     1.0  0.66877  0.06063  0.73011  1.0000
  C   C1638     1.0  0.65234  0.04269  0.74153  1.0000
  C   C1639     1.0  0.65234  0.03393  0.76747  1.0000
  C   C1640     1.0  0.66914  0.04276  0.78193  1.0000
  C   C1641     1.0  0.68577  0.06049  0.77055  1.0000
  C   C1642     1.0  0.74271  0.11155  0.75627  1.0000
  H   H1324     1.0  0.72719  0.09901  0.52847  1.0000
  C   C1643     1.0  0.66701  0.30394  0.99355  1.0000
  H   H1325     1.0  0.52748  0.09148  0.76389  1.0000
  H   H1326     1.0  0.55492  0.30289  0.91087  1.0000
  H   H1327     1.0  0.68801  0.14701  0.72741  1.0000
  H   H1328     1.0  0.67198  0.17755  0.69298  1.0000
  H   H1329     1.0  0.66827  0.16341  0.65066  1.0000
  H   H1330     1.0  0.68063  0.11844  0.64318  1.0000
  H   H1331     1.0  0.69785  0.08734  0.67721  1.0000
  H   H1332     1.0  0.67797  0.11825  0.77070  1.0000
  H   H1333     1.0  0.68990  0.14096  0.80469  1.0000
  H   H1334     1.0  0.61980  0.01941  0.61109  1.0000
  H   H1335     1.0  0.74411  0.42942  0.73485  1.0000
  C   C1644     1.0  0.73567  0.37788  0.94351  1.0000
  C   C1645     1.0  0.74463  0.38982  0.83489  1.0000
  P   P56       1.0  0.74915  0.50360  0.80303  1.0000
  H   H1336     1.0  0.56960  0.07857  0.55099  1.0000
  H   H1337     1.0  0.66908  0.03606  0.80211  1.0000
  H   H1338     1.0  0.69876  0.06677  0.78220  1.0000
  C   C1646     1.0  0.65302  0.01209  0.68554  1.0000
  H   H1339     1.0  0.55072  0.23527  0.87568  1.0000
  C   C1647     1.0  0.71768  0.08226  0.52722  1.0000
  C   C1648     1.0  0.67609  0.23765  0.55502  1.0000
  H   H1340     1.0  0.52114  0.02341  0.92491  1.0000
  C   C1649     1.0  0.68382  0.21945  0.94197  1.0000
  C   C1650     1.0  0.55099  0.44230  0.78587  1.0000
  C   C1651     1.0  0.73523  0.07412  0.71458  1.0000
  H   H1341     1.0  0.64089  0.22004  0.56323  1.0000
  C   C1652     1.0  0.55543  0.26837  0.89380  1.0000
  S   S239      1.0  0.60570  0.44514  0.99364  1.0000
  C   C1653     1.0  0.54480  0.44747  0.76058  1.0000
  C   C1654     1.0  0.66749  0.23090  0.00133  1.0000
  C   C1655     1.0  0.73365  0.36584  0.72439  1.0000
  C   C1656     1.0  0.68254  0.24528  0.94606  1.0000
  H   H1342     1.0  0.69935  0.32903  0.91739  1.0000
  H   H1343     1.0  0.74034  0.30499  0.97861  1.0000
  C   C1657     1.0  0.69453  0.02615  0.67012  1.0000
  C   C1658     1.0  0.53876  0.14004  0.71719  1.0000
  C   C1659     1.0  0.70347  0.22915  0.89872  1.0000
  C   C1660     1.0  0.53112  0.03073  0.52584  1.0000
  H   H1344     1.0  0.52624  0.02101  0.82494  1.0000
  C   C1661     1.0  0.62432  0.46771  0.82541  1.0000
  C   C1662     1.0  0.61688  0.39133  0.94440  1.0000
  H   H1345     1.0  0.71339  0.25032  0.54921  1.0000
  H   H1346     1.0  0.51463  0.37063  0.79835  1.0000
  C   C1663     1.0  0.68100  0.43805  0.91875  1.0000
  C   C1664     1.0  0.58359  0.03084  0.90726  1.0000
  C   C1665     1.0  0.69197  0.26290  0.92620  1.0000
  H   H1347     1.0  0.56885  0.40866  0.85017  1.0000
  C   C1666     1.0  0.55726  0.13026  0.69893  1.0000
  H   H1348     1.0  0.57608  0.26524  0.89113  1.0000
  H   H1349     1.0  0.53960  0.12578  0.80702  1.0000
  H   H1350     1.0  0.62147  0.35211  0.99977  1.0000
  C   C1667     1.0  0.70245  0.25484  0.90268  1.0000
  H   H1351     1.0  0.57710  0.12786  0.70243  1.0000
  H   H1352     1.0  0.52999  0.33773  0.00406  1.0000
  C   C1668     1.0  0.71468  0.37288  0.77489  1.0000
  C   C1669     1.0  0.69799  0.37569  0.75601  1.0000
  C   C1670     1.0  0.70749  0.37235  0.73073  1.0000
  H   H1353     1.0  0.64650  0.30450  0.99740  1.0000
  H   H1354     1.0  0.69835  0.39607  0.95556  1.0000
  H   H1355     1.0  0.63610  0.21333  0.99032  1.0000
  C   C1671     1.0  0.74482  0.44371  0.74767  1.0000
  S   S240      1.0  0.53350  0.09434  0.85578  1.0000
  H   H1356     1.0  0.67517  0.36417  0.93981  1.0000
  C   C1672     1.0  0.69424  0.21146  0.91837  1.0000
  H   H1357     1.0  0.71937  0.19629  0.61657  1.0000
  C   C1673     1.0  0.61144  0.41581  0.98089  1.0000
  C   C1674     1.0  0.61231  0.41493  0.95449  1.0000
  H   H1358     1.0  0.55011  0.05704  0.91478  1.0000
  C   C1675     1.0  0.52193  0.16106  0.87646  1.0000
  C   C1676     1.0  0.70262  0.23423  0.55558  1.0000
  C   C1677     1.0  0.69428  0.42912  0.89665  1.0000
  H   H1359     1.0  0.70735  0.37563  0.79447  1.0000
  H   H1360     1.0  0.67771  0.38060  0.76100  1.0000
  H   H1361     1.0  0.69455  0.37485  0.71604  1.0000
  H   H1362     1.0  0.73649  0.40911  0.82973  1.0000
  C   C1678     1.0  0.55516  0.46730  0.74425  1.0000
  C   C1679     1.0  0.56855  0.45653  0.79419  1.0000
  C   C1680     1.0  0.69306  0.45193  0.93380  1.0000
  H   H1363     1.0  0.52099  0.13580  0.53918  1.0000
  H   H1364     1.0  0.67509  0.11868  0.52170  1.0000
  C   C1681     1.0  0.73038  0.13511  0.79305  1.0000
  C   C1682     1.0  0.74937  0.12450  0.77561  1.0000
  C   C1683     1.0  0.51082  0.06107  0.65600  1.0000
  H   H1365     1.0  0.74896  0.44844  0.81034  1.0000
  H   H1366     1.0  0.69048  0.28305  0.92855  1.0000
  H   H1367     1.0  0.61320  0.36196  0.77545  1.0000
  H   H1368     1.0  0.66023  0.16047  0.53615  1.0000
  H   H1369     1.0  0.63909  0.26779  0.92943  1.0000
  H   H1370     1.0  0.54434  0.14470  0.73498  1.0000
  C   C1684     1.0  0.54139  0.34735  0.92999  1.0000
  C   C1685     1.0  0.74102  0.04798  0.72231  1.0000
  C   C1686     1.0  0.51514  0.42120  0.98538  1.0000
  H   H1371     1.0  0.51583  0.15153  0.86160  1.0000
  H   H1372     1.0  0.62846  0.46361  0.80575  1.0000
  H   H1373     1.0  0.74617  0.32421  0.91264  1.0000
  H   H1374     1.0  0.66806  0.06745  0.71015  1.0000
  H   H1375     1.0  0.72897  0.16894  0.65593  1.0000
  H   H1376     1.0  0.73114  0.17480  0.52992  1.0000
  C   C1687     1.0  0.55086  0.50119  0.93431  1.0000
  C   C1688     1.0  0.57196  0.48193  0.75297  1.0000
  C   C1689     1.0  0.54325  0.28963  0.90521  1.0000
  C   C1690     1.0  0.70456  0.48607  0.82950  1.0000
  H   H1377     1.0  0.67431  0.49301  0.88893  1.0000
  C   C1691     1.0  0.52448  0.12708  0.67164  1.0000
  C   C1692     1.0  0.74954  0.35692  0.93270  1.0000
  H   H1378     1.0  0.68254  0.45800  0.95121  1.0000
  C   C1693     1.0  0.67881  0.32444  0.99940  1.0000
  C   C1694     1.0  0.53727  0.05669  0.55875  1.0000
  C   C1695     1.0  0.56722  0.05574  0.52051  1.0000
  H   H1379     1.0  0.67869  0.02497  0.52663  1.0000
  C   C1696     1.0  0.70821  0.28378  0.97753  1.0000
  C   C1697     1.0  0.73723  0.43052  0.98053  1.0000
  C   C1698     1.0  0.72669  0.49783  0.83103  1.0000
  H   H1380     1.0  0.51322  0.04451  0.70769  1.0000
  C   C1699     1.0  0.51447  0.25549  0.88809  1.0000
  H   H1381     1.0  0.53778  0.36879  0.84032  1.0000
  C   C1700     1.0  0.68609  0.48382  0.85057  1.0000
  C   C1701     1.0  0.52821  0.44743  0.88654  1.0000
  C   C1702     1.0  0.55599  0.16809  0.90064  1.0000
  C   C1703     1.0  0.53315  0.34032  0.98337  1.0000
  C   C1704     1.0  0.54726  0.50167  0.84504  1.0000
  H   H1382     1.0  0.74338  0.47534  0.71809  1.0000
  C   C1705     1.0  0.55014  0.12344  0.67633  1.0000
  H   H1383     1.0  0.56652  0.36024  0.98255  1.0000
  H   H1384     1.0  0.57577  0.16406  0.90466  1.0000
  C   C1706     1.0  0.51161  0.44499  0.84635  1.0000
  P   P57       1.0  0.66662  0.25641  0.97541  1.0000
  C   C1707     1.0  0.52100  0.33401  0.94188  1.0000
  H   H1385     1.0  0.66142  0.43396  0.92436  1.0000
  C   C1708     1.0  0.57236  0.48939  0.94566  1.0000
  C   C1709     1.0  0.63354  0.26622  0.97078  1.0000
  H   H1386     1.0  0.75005  0.07523  0.63532  1.0000
  C   C1710     1.0  0.66790  0.03084  0.67289  1.0000
  C   C1711     1.0  0.55912  0.06485  0.54414  1.0000
  H   H1387     1.0  0.72652  0.48319  0.00104  1.0000
  H   H1388     1.0  0.60972  0.43245  0.94186  1.0000
  C   C1712     1.0  0.69588  0.36241  0.93747  1.0000
  C   C1713     1.0  0.73791  0.18541  0.61710  1.0000
  C   C1714     1.0  0.58987  0.27808  0.98828  1.0000
  H   H1389     1.0  0.53709  0.50654  0.00350  1.0000
  H   H1390     1.0  0.74073  0.36387  0.70463  1.0000
  C   C1715     1.0  0.51997  0.11953  0.57842  1.0000
  C   C1716     1.0  0.54040  0.41593  0.99127  1.0000
  H   H1391     1.0  0.72196  0.06766  0.56639  1.0000
  C   C1717     1.0  0.59654  0.36348  0.78935  1.0000
  C   C1718     1.0  0.52318  0.03977  0.54950  1.0000
  H   H1392     1.0  0.55990  0.14154  0.87247  1.0000
  P   P58       1.0  0.73419  0.47489  0.94656  1.0000
  H   H1393     1.0  0.66909  0.47474  0.84933  1.0000
  C   C1719     1.0  0.53336  0.01274  0.64477  1.0000
  C   C1720     1.0  0.71988  0.30461  0.98290  1.0000
  C   C1721     1.0  0.57025  0.34467  0.82562  1.0000
  C   C1722     1.0  0.55411  0.36749  0.82597  1.0000
  H   H1394     1.0  0.55555  0.49869  0.88370  1.0000
  H   H1395     1.0  0.53106  0.06387  0.57701  1.0000
  H   H1396     1.0  0.56888  0.02612  0.65060  1.0000
  C   C1723     1.0  0.70519  0.32479  0.99410  1.0000
  C   C1724     1.0  0.54942  0.43057  0.87936  1.0000
  H   H1397     1.0  0.67639  0.20546  0.95668  1.0000
  C   C1725     1.0  0.71840  0.45756  0.92653  1.0000
  C   C1726     1.0  0.70048  0.04402  0.54865  1.0000
  H   H1398     1.0  0.51932  0.12153  0.65413  1.0000
  H   H1399     1.0  0.73551  0.14502  0.80812  1.0000
  C   C1727     1.0  0.74583  0.48789  0.75486  1.0000
  H   H1400     1.0  0.66216  0.17777  0.57899  1.0000
  H   H1401     1.0  0.63907  0.03617  0.73037  1.0000
  C   C1728     1.0  0.75043  0.36222  0.74342  1.0000
  C   C1729     1.0  0.60037  0.27924  0.94255  1.0000
  C   C1730     1.0  0.70952  0.34240  0.92516  1.0000
  H   H1402     1.0  0.54626  0.19548  0.92792  1.0000
  C   C1731     1.0  0.54113  0.01790  0.91962  1.0000
  P   P59       1.0  0.53709  0.41726  0.80736  1.0000
  H   H1403     1.0  0.71702  0.43038  0.97924  1.0000
  C   C1732     1.0  0.74758  0.45452  0.79026  1.0000
  H   H1404     1.0  0.59645  0.04561  0.90316  1.0000
  H   H1405     1.0  0.74756  0.10660  0.68915  1.0000
  C   C1733     1.0  0.51646  0.29363  0.90884  1.0000
  C   C1734     1.0  0.69023  0.04054  0.52640  1.0000
  C   C1735     1.0  0.75132  0.17637  0.52498  1.0000
  C   C1736     1.0  0.51398  0.19119  0.90808  1.0000
  C   C1737     1.0  0.71479  0.21036  0.56452  1.0000
  H   H1406     1.0  0.70922  0.26868  0.88729  1.0000
  C   C1738     1.0  0.55361  0.35318  0.97131  1.0000
  H   H1407     1.0  0.56458  0.11536  0.66244  1.0000
  H   H1408     1.0  0.56281  0.28997  0.96077  1.0000
  H   H1409     1.0  0.66682  0.25611  0.54817  1.0000
  C   C1739     1.0  0.66147  0.21737  0.56350  1.0000
  C   C1740     1.0  0.75050  0.45049  0.96761  1.0000
  H   H1410     1.0  0.57321  0.46948  0.95346  1.0000
  C   C1741     1.0  0.51994  0.07472  0.75910  1.0000
  H   H1411     1.0  0.52660  0.45518  0.90470  1.0000
  C   C1742     1.0  0.71018  0.49405  0.96521  1.0000
  C   C1743     1.0  0.62572  0.27064  0.94610  1.0000
  C   C1744     1.0  0.61457  0.49935  0.85607  1.0000
  C   C1745     1.0  0.61269  0.47897  0.87576  1.0000
  C   C1746     1.0  0.71438  0.06473  0.54898  1.0000
  C   C1747     1.0  0.74735  0.48047  0.78105  1.0000
  H   H1412     1.0  0.58466  0.40207  0.77530  1.0000
  H   H1413     1.0  0.65864  0.04900  0.66519  1.0000
  H   H1414     1.0  0.56655  0.32846  0.83960  1.0000
  C   C1748     1.0  0.59142  0.34267  0.80728  1.0000
  C   C1749     1.0  0.55886  0.38836  0.80766  1.0000
  H   H1415     1.0  0.60399  0.32502  0.80706  1.0000
  C   C1750     1.0  0.57871  0.47648  0.77789  1.0000
  H   H1416     1.0  0.70873  0.17146  0.57957  1.0000
  C   C1751     1.0  0.55754  0.03715  0.91402  1.0000
  C   C1752     1.0  0.67340  0.19359  0.57235  1.0000
  C   C1753     1.0  0.52205  0.06960  0.73365  1.0000
  C   C1754     1.0  0.54841  0.03082  0.65048  1.0000
  C   C1755     1.0  0.73625  0.33965  0.92267  1.0000
  C   C1756     1.0  0.73157  0.44830  0.90435  1.0000
  C   C1757     1.0  0.58240  0.28304  0.96360  1.0000
  C   C1758     1.0  0.50959  0.12658  0.55518  1.0000
  H   H1417     1.0  0.59502  0.28339  0.92332  1.0000
  C   C1759     1.0  0.61532  0.26966  0.99193  1.0000
  H   H1418     1.0  0.56442  0.42535  0.89186  1.0000
  C   C1760     1.0  0.69991  0.19004  0.57263  1.0000
  H   H1419     1.0  0.70602  0.04065  0.66015  1.0000
  C   C1761     1.0  0.54715  0.15554  0.88230  1.0000
  H   H1420     1.0  0.74568  0.39203  0.95006  1.0000
  H   H1421     1.0  0.52801  0.03484  0.86739  1.0000
  C   C1762     1.0  0.67300  0.15942  0.51867  1.0000
  H   H1422     1.0  0.71991  0.26806  0.96928  1.0000
  C   C1763     1.0  0.74991  0.41059  0.99551  1.0000
  C   C1764     1.0  0.68160  0.28339  0.98255  1.0000
  H   H1423     1.0  0.75772  0.10336  0.74310  1.0000
  C   C1765     1.0  0.74456  0.46954  0.73826  1.0000
  H   H1424     1.0  0.53525  0.49010  0.93305  1.0000
  C   C1766     1.0  0.74638  0.43625  0.77367  1.0000
  H   H1425     1.0  0.71107  0.22302  0.88029  1.0000
  H   H1426     1.0  0.57993  0.49735  0.74036  1.0000
  C   C1767     1.0  0.52012  0.12108  0.81068  1.0000
  C   C1768     1.0  0.50971  0.03233  0.86131  1.0000
  H   H1427     1.0  0.75102  0.45197  0.89815  1.0000
  H   H1428     1.0  0.51191  0.10323  0.61728  1.0000
  H   H1429     1.0  0.69472  0.19159  0.91514  1.0000
  C   C1769     1.0  0.51235  0.10570  0.83299  1.0000
  H   H1430     1.0  0.66740  0.34022  0.00788  1.0000
  C   C1770     1.0  0.74338  0.17022  0.63967  1.0000
  H   H1431     1.0  0.56103  0.48562  0.84071  1.0000
  H   H1432     1.0  0.75353  0.36498  0.78346  1.0000
  H   H1433     1.0  0.60972  0.49396  0.95552  1.0000
  H   H1434     1.0  0.74544  0.50776  0.74716  1.0000
  C   C1771     1.0  0.51690  0.33070  0.96875  1.0000
  H   H1435     1.0  0.71411  0.34081  0.99858  1.0000
  H   H1436     1.0  0.69707  0.03102  0.56585  1.0000
  C   C1772     1.0  0.75147  0.08641  0.69527  1.0000
  C   C1773     1.0  0.68913  0.49395  0.87300  1.0000
  P   P60       1.0  0.74902  0.20563  0.56616  1.0000
  H   H1437     1.0  0.51144  0.43222  0.96744  1.0000
  C   C1774     1.0  0.51312  0.14381  0.71253  1.0000
  C   C1775     1.0  0.72996  0.50723  0.85393  1.0000
  C   C1776     1.0  0.50943  0.45478  0.86992  1.0000
  H   H1438     1.0  0.75605  0.35374  0.98448  1.0000
  H   H1439     1.0  0.73945  0.39544  0.00573  1.0000
  C   C1777     1.0  0.68163  0.13558  0.51040  1.0000
  H   H1440     1.0  0.51960  0.01817  0.51867  1.0000
  H   H1441     1.0  0.67411  0.20013  0.51100  1.0000
  C   C1778     1.0  0.59302  0.50318  0.94681  1.0000
  H   H1442     1.0  0.58410  0.49982  0.00367  1.0000
  C   C1779     1.0  0.55349  0.03826  0.51139  1.0000
  C   C1780     1.0  0.75620  0.18633  0.59555  1.0000
  C   C1781     1.0  0.50862  0.02480  0.83712  1.0000
  Fe  Fe121     1.0  0.65778  0.91582  0.32420  1.0000
  S   S241      1.0  0.65514  0.90341  0.36633  1.0000
  S   S242      1.0  0.65963  0.95585  0.30556  1.0000
  Fe  Fe122     1.0  0.65649  0.86279  0.31078  1.0000
  S   S243      1.0  0.65410  0.84565  0.35185  1.0000
  S   S244      1.0  0.65306  0.84251  0.27662  1.0000
  Fe  Fe123     1.0  0.62466  0.87951  0.35844  1.0000
  S   S245      1.0  0.58570  0.87766  0.38266  1.0000
  Fe  Fe124     1.0  0.68496  0.87106  0.35559  1.0000
  S   S246      1.0  0.72109  0.86113  0.37708  1.0000
  S   S247      1.0  0.62577  0.89465  0.31734  1.0000
  S   S248      1.0  0.68908  0.88541  0.31403  1.0000
  Fe  Fe125     1.0  0.64736  0.96114  0.09951  1.0000
  S   S249      1.0  0.62988  0.95867  0.14003  1.0000
  S   S250      1.0  0.65795  0.99981  0.07887  1.0000
  Fe  Fe126     1.0  0.64622  0.90173  0.09765  1.0000
  S   S251      1.0  0.62891  0.89655  0.13833  1.0000
  S   S252      1.0  0.65335  0.86762  0.07364  1.0000
  Fe  Fe127     1.0  0.60428  0.93281  0.12778  1.0000
  S   S253      1.0  0.56284  0.93668  0.14274  1.0000
  Fe  Fe128     1.0  0.65658  0.92292  0.14574  1.0000
  S   S254      1.0  0.67952  0.91934  0.17907  1.0000
  S   S255      1.0  0.61986  0.93700  0.08649  1.0000
  S   S256      1.0  0.67600  0.92633  0.10572  1.0000
  Fe  Fe129     1.0  0.64496  0.71424  0.07716  1.0000
  S   S257      1.0  0.66563  0.71608  0.03761  1.0000
  S   S258      1.0  0.63137  0.74976  0.09827  1.0000
  Fe  Fe130     1.0  0.64426  0.65459  0.07972  1.0000
  S   S259      1.0  0.66491  0.65346  0.04054  1.0000
  S   S260      1.0  0.63222  0.61837  0.10411  1.0000
  Fe  Fe131     1.0  0.68965  0.68058  0.05241  1.0000
  S   S261      1.0  0.73246  0.67465  0.04163  1.0000
  Fe  Fe132     1.0  0.63867  0.68875  0.03027  1.0000
  H   H1443     1.0  0.68638  0.54967  0.18326  1.0000
  S   S262      1.0  0.67054  0.68008  0.09267  1.0000
  S   S263      1.0  0.61638  0.68859  0.06885  1.0000
  H   H1444     1.0  0.74499  0.92299  0.32642  1.0000
  C   C1782     1.0  0.73809  0.64834  0.08898  1.0000
  H   H1445     1.0  0.71755  0.64965  0.09191  1.0000
  P   P61       1.0  0.65048  0.90394  0.49252  1.0000
  C   C1783     1.0  0.57378  0.63003  0.06828  1.0000
  H   H1446     1.0  0.51001  0.78525  0.02249  1.0000
  H   H1447     1.0  0.61016  0.90844  0.41263  1.0000
  H   H1448     1.0  0.55672  0.95788  0.21692  1.0000
  C   C1784     1.0  0.53711  0.83608  0.13633  1.0000
  C   C1785     1.0  0.62805  0.58595  0.10085  1.0000
  H   H1449     1.0  0.61422  0.57980  0.14068  1.0000
  H   H1450     1.0  0.64066  0.58546  0.06063  1.0000
  C   C1786     1.0  0.64803  0.83468  0.08147  1.0000
  C   C1787     1.0  0.65697  0.81718  0.06357  1.0000
  C   C1788     1.0  0.65232  0.79119  0.06842  1.0000
  C   C1789     1.0  0.63858  0.78223  0.09132  1.0000
  C   C1790     1.0  0.62970  0.79969  0.10927  1.0000
  C   C1791     1.0  0.63456  0.82562  0.10452  1.0000
  H   H1451     1.0  0.66758  0.82378  0.04577  1.0000
  H   H1452     1.0  0.65939  0.77812  0.05441  1.0000
  H   H1453     1.0  0.61927  0.79303  0.12715  1.0000
  H   H1454     1.0  0.62802  0.83859  0.11871  1.0000
  C   C1792     1.0  0.54100  0.94221  0.11980  1.0000
  C   C1793     1.0  0.54896  0.94720  0.09370  1.0000
  C   C1794     1.0  0.53144  0.94822  0.07561  1.0000
  C   C1795     1.0  0.51796  0.85399  0.12664  1.0000
  H   H1455     1.0  0.55012  0.91596  0.02327  1.0000
  H   H1456     1.0  0.55213  0.99833  0.43987  1.0000
  H   H1457     1.0  0.56860  0.94973  0.08734  1.0000
  H   H1458     1.0  0.53779  0.95115  0.05544  1.0000
  H   H1459     1.0  0.52278  0.83245  0.32223  1.0000
  H   H1460     1.0  0.59112  0.74968  0.04508  1.0000
  H   H1461     1.0  0.51997  0.88937  0.21633  1.0000
  C   C1796     1.0  0.66980  0.50928  0.14437  1.0000
  H   H1462     1.0  0.67772  0.89333  0.44177  1.0000
  C   C1797     1.0  0.55240  0.87930  0.37811  1.0000
  C   C1798     1.0  0.54225  0.88551  0.35441  1.0000
  C   C1799     1.0  0.72758  0.83967  0.21784  1.0000
  C   C1800     1.0  0.53535  0.87412  0.39996  1.0000
  H   H1463     1.0  0.55502  0.88975  0.33734  1.0000
  H   H1464     1.0  0.54265  0.86939  0.41836  1.0000
  C   C1801     1.0  0.65804  0.86436  0.24921  1.0000
  C   C1802     1.0  0.66545  0.88830  0.25163  1.0000
  C   C1803     1.0  0.67212  0.90487  0.22995  1.0000
  C   C1804     1.0  0.66991  0.89832  0.20564  1.0000
  C   C1805     1.0  0.66124  0.87490  0.20302  1.0000
  C   C1806     1.0  0.65577  0.85768  0.22485  1.0000
  H   H1465     1.0  0.66644  0.89410  0.27017  1.0000
  H   H1466     1.0  0.67874  0.92293  0.23216  1.0000
  H   H1467     1.0  0.65978  0.86965  0.18419  1.0000
  H   H1468     1.0  0.65028  0.83909  0.22287  1.0000
  H   H1469     1.0  0.52997  0.94809  0.18491  1.0000
  C   C1807     1.0  0.60843  0.98725  0.35843  1.0000
  C   C1808     1.0  0.62248  0.96958  0.34317  1.0000
  C   C1809     1.0  0.64129  0.97769  0.32412  1.0000
  C   C1810     1.0  0.64581  0.00339  0.32008  1.0000
  C   C1811     1.0  0.57943  0.83504  0.05304  1.0000
  H   H1470     1.0  0.59343  0.98125  0.37271  1.0000
  H   H1471     1.0  0.61864  0.94978  0.34601  1.0000
  C   C1812     1.0  0.56678  0.73848  0.07898  1.0000
  C   C1813     1.0  0.62032  0.53364  0.10009  1.0000
  C   C1814     1.0  0.72198  0.86522  0.49369  1.0000
  C   C1815     1.0  0.74739  0.93341  0.17006  1.0000
  H   H1472     1.0  0.50879  0.93659  0.14798  1.0000
  H   H1473     1.0  0.52122  0.86192  0.28260  1.0000
  H   H1474     1.0  0.60499  0.77627  0.20024  1.0000
  H   H1475     1.0  0.67332  0.96512  0.20602  1.0000
  C   C1816     1.0  0.61866  0.57123  0.12294  1.0000
  C   C1817     1.0  0.58841  0.85059  0.22597  1.0000
  H   H1476     1.0  0.71381  0.74552  0.01489  1.0000
  C   C1818     1.0  0.52490  0.72817  0.07245  1.0000
  C   C1819     1.0  0.58359  0.99012  0.03437  1.0000
  C   C1820     1.0  0.75696  0.52301  0.22410  1.0000
  H   H1477     1.0  0.70878  0.83168  0.28164  1.0000
  C   C1821     1.0  0.71379  0.78547  0.48238  1.0000
  H   H1478     1.0  0.65011  0.52664  0.17680  1.0000
  C   C1822     1.0  0.74276  0.85967  0.21721  1.0000
  H   H1479     1.0  0.75221  0.86702  0.19904  1.0000
  H   H1480     1.0  0.72117  0.93108  0.48405  1.0000
  H   H1481     1.0  0.73012  0.51832  0.11813  1.0000
  H   H1482     1.0  0.72742  0.91282  0.20214  1.0000
  C   C1823     1.0  0.54004  0.84020  0.31307  1.0000
  C   C1824     1.0  0.56299  0.83370  0.32401  1.0000
  H   H1483     1.0  0.55142  0.57595  0.05564  1.0000
  C   C1825     1.0  0.55664  0.78589  0.16180  1.0000
  C   C1826     1.0  0.56130  0.86815  0.27947  1.0000
  C   C1827     1.0  0.53920  0.85719  0.29074  1.0000
  P   P62       1.0  0.56056  0.89030  0.25077  1.0000
  C   C1828     1.0  0.58138  0.91466  0.25286  1.0000
  C   C1829     1.0  0.57251  0.87370  0.22316  1.0000
  C   C1830     1.0  0.56834  0.88504  0.19843  1.0000
  C   C1831     1.0  0.57916  0.87310  0.17706  1.0000
  C   C1832     1.0  0.59519  0.85032  0.18003  1.0000
  C   C1833     1.0  0.59851  0.92263  0.23180  1.0000
  C   C1834     1.0  0.61541  0.94044  0.23395  1.0000
  C   C1835     1.0  0.61571  0.95021  0.25720  1.0000
  C   C1836     1.0  0.59870  0.94263  0.27817  1.0000
  C   C1837     1.0  0.58165  0.92490  0.27608  1.0000
  C   C1838     1.0  0.52800  0.90519  0.25016  1.0000
  C   C1839     1.0  0.57136  0.78955  0.18116  1.0000
  C   C1840     1.0  0.73891  0.92840  0.49261  1.0000
  C   C1841     1.0  0.56288  0.83969  0.12873  1.0000
  C   C1842     1.0  0.75374  0.91193  0.28831  1.0000
  C   C1843     1.0  0.56932  0.86135  0.11250  1.0000
  H   H1484     1.0  0.55758  0.90363  0.19549  1.0000
  H   H1485     1.0  0.57596  0.88222  0.15812  1.0000
  H   H1486     1.0  0.59959  0.91477  0.21378  1.0000
  H   H1487     1.0  0.62902  0.94580  0.21780  1.0000
  H   H1488     1.0  0.62963  0.96307  0.25927  1.0000
  H   H1489     1.0  0.59963  0.94966  0.29640  1.0000
  H   H1490     1.0  0.56967  0.91829  0.29300  1.0000
  H   H1491     1.0  0.72460  0.52350  0.20322  1.0000
  H   H1492     1.0  0.57264  0.98280  0.16080  1.0000
  C   C1844     1.0  0.54896  0.95990  0.45729  1.0000
  H   H1493     1.0  0.52738  0.92114  0.28605  1.0000
  C   C1845     1.0  0.51341  0.79302  0.11199  1.0000
  H   H1494     1.0  0.69657  0.52938  0.06956  1.0000
  C   C1846     1.0  0.55484  0.84694  0.05004  1.0000
  C   C1847     1.0  0.63516  0.92095  0.46575  1.0000
  C   C1848     1.0  0.62789  0.94743  0.46423  1.0000
  C   C1849     1.0  0.59979  0.83909  0.20447  1.0000
  H   H1495     1.0  0.53848  0.98584  0.24986  1.0000
  H   H1496     1.0  0.63234  0.88636  0.44864  1.0000
  C   C1850     1.0  0.72061  0.58720  0.15653  1.0000
  C   C1851     1.0  0.69980  0.59619  0.14256  1.0000
  C   C1852     1.0  0.68741  0.62076  0.14454  1.0000
  C   C1853     1.0  0.69560  0.63657  0.16048  1.0000
  C   C1854     1.0  0.71618  0.62779  0.17455  1.0000
  C   C1855     1.0  0.72869  0.60324  0.17260  1.0000
  H   H1497     1.0  0.73538  0.86684  0.28079  1.0000
  C   C1856     1.0  0.54782  0.61220  0.03177  1.0000
  C   C1857     1.0  0.68951  0.88542  0.45665  1.0000
  H   H1498     1.0  0.69313  0.58435  0.13002  1.0000
  H   H1499     1.0  0.67154  0.62764  0.13353  1.0000
  H   H1500     1.0  0.68623  0.65576  0.16160  1.0000
  H   H1501     1.0  0.72290  0.64026  0.18649  1.0000
  C   C1858     1.0  0.75377  0.74894  0.49616  1.0000
  H   H1502     1.0  0.56408  0.99603  0.11635  1.0000
  C   C1859     1.0  0.53694  0.96591  0.21743  1.0000
  H   H1503     1.0  0.74942  0.91632  0.40830  1.0000
  C   C1860     1.0  0.66892  0.98365  0.19551  1.0000
  H   H1504     1.0  0.74273  0.62819  0.12597  1.0000
  H   H1505     1.0  0.67326  0.88598  0.02234  1.0000
  C   C1861     1.0  0.74513  0.87028  0.23977  1.0000
  H   H1506     1.0  0.63428  0.53927  0.06008  1.0000
  H   H1507     1.0  0.51771  0.68255  0.05932  1.0000
  C   C1862     1.0  0.75040  0.65898  0.06612  1.0000
  H   H1508     1.0  0.67104  0.97278  0.43275  1.0000
  C   C1863     1.0  0.73602  0.56951  0.03335  1.0000
  H   H1509     1.0  0.71442  0.96016  0.31339  1.0000
  H   H1510     1.0  0.61913  0.64362  0.02157  1.0000
  C   C1864     1.0  0.62845  0.88178  0.50783  1.0000
  C   C1865     1.0  0.55363  0.63770  0.02896  1.0000
  H   H1511     1.0  0.60695  0.53496  0.13988  1.0000
  H   H1512     1.0  0.58428  0.63669  0.08209  1.0000
  H   H1513     1.0  0.54896  0.65076  0.01252  1.0000
  C   C1866     1.0  0.56802  0.60473  0.07131  1.0000
  C   C1867     1.0  0.71535  0.82960  0.24105  1.0000
  C   C1868     1.0  0.55862  0.97755  0.50249  1.0000
  C   C1869     1.0  0.55450  0.74121  0.03604  1.0000
  H   H1514     1.0  0.61281  0.82185  0.20679  1.0000
  H   H1515     1.0  0.60175  0.86871  0.28141  1.0000
  H   H1516     1.0  0.59502  0.90862  0.50231  1.0000
  C   C1870     1.0  0.58434  0.86107  0.29026  1.0000
  C   C1871     1.0  0.55503  0.95186  0.50223  1.0000
  C   C1872     1.0  0.68130  0.88755  0.48257  1.0000
  C   C1873     1.0  0.63000  0.54810  0.07765  1.0000
  H   H1517     1.0  0.59276  0.73400  0.13948  1.0000
  H   H1518     1.0  0.68324  0.56842  0.09109  1.0000
  H   H1519     1.0  0.63125  0.95863  0.47899  1.0000
  C   C1874     1.0  0.54883  0.85830  0.02599  1.0000
  C   C1875     1.0  0.51546  0.88591  0.35285  1.0000
  H   H1520     1.0  0.58920  0.86431  0.10680  1.0000
  H   H1521     1.0  0.61869  0.74096  0.17327  1.0000
  C   C1876     1.0  0.72436  0.54710  0.04202  1.0000
  C   C1877     1.0  0.71311  0.51980  0.13155  1.0000
  H   H1522     1.0  0.67634  0.95045  0.48647  1.0000
  C   C1878     1.0  0.69787  0.56874  0.07496  1.0000
  C   C1879     1.0  0.66792  0.52432  0.16453  1.0000
  H   H1523     1.0  0.59299  0.84181  0.24460  1.0000
  C   C1880     1.0  0.55016  0.87932  0.10348  1.0000
  C   C1881     1.0  0.71352  0.87296  0.44943  1.0000
  C   C1882     1.0  0.68817  0.96032  0.42781  1.0000
  C   C1883     1.0  0.68793  0.94312  0.40988  1.0000
  C   C1884     1.0  0.71008  0.92731  0.40307  1.0000
  C   C1885     1.0  0.73252  0.92864  0.41415  1.0000
  C   C1886     1.0  0.73297  0.94603  0.43209  1.0000
  C   C1887     1.0  0.71057  0.96178  0.43890  1.0000
  H   H1524     1.0  0.55528  0.89597  0.09086  1.0000
  H   H1525     1.0  0.61704  0.99139  0.05326  1.0000
  H   H1526     1.0  0.52987  0.80165  0.10204  1.0000
  H   H1527     1.0  0.75360  0.99091  0.40470  1.0000
  C   C1888     1.0  0.59787  0.83415  0.03194  1.0000
  C   C1889     1.0  0.56656  0.64651  0.04715  1.0000
  H   H1528     1.0  0.61680  0.82480  0.03457  1.0000
  H   H1529     1.0  0.57410  0.59185  0.08749  1.0000
  H   H1530     1.0  0.70496  0.75832  0.45845  1.0000
  C   C1890     1.0  0.72973  0.86291  0.46788  1.0000
  H   H1531     1.0  0.52992  0.86801  0.02383  1.0000
  C   C1891     1.0  0.74558  0.91951  0.19424  1.0000
  C   C1892     1.0  0.58517  0.84396  0.31246  1.0000
  H   H1532     1.0  0.58439  0.82657  0.07173  1.0000
  C   C1893     1.0  0.75344  0.54553  0.18173  1.0000
  H   H1533     1.0  0.56569  0.80503  0.19290  1.0000
  H   H1534     1.0  0.74172  0.58742  0.10481  1.0000
  C   C1894     1.0  0.67045  0.94598  0.50660  1.0000
  H   H1535     1.0  0.73560  0.60964  0.03859  1.0000
  H   H1536     1.0  0.67065  0.94217  0.40106  1.0000
  H   H1537     1.0  0.70990  0.91405  0.38902  1.0000
  C   C1895     1.0  0.52197  0.96051  0.19921  1.0000
  C   C1896     1.0  0.71749  0.76217  0.47198  1.0000
  H   H1538     1.0  0.68862  0.97242  0.16000  1.0000
  C   C1897     1.0  0.55510  0.59582  0.05319  1.0000
  H   H1539     1.0  0.70287  0.81471  0.24152  1.0000
  H   H1540     1.0  0.54572  0.95294  0.43965  1.0000
  C   C1898     1.0  0.51211  0.81448  0.18692  1.0000
  C   C1899     1.0  0.67780  0.98780  0.16961  1.0000
  H   H1541     1.0  0.71956  0.87113  0.42939  1.0000
  C   C1900     1.0  0.51518  0.94023  0.12785  1.0000
  C   C1901     1.0  0.75430  0.85884  0.36477  1.0000
  C   C1902     1.0  0.62816  0.90697  0.44725  1.0000
  C   C1903     1.0  0.74320  0.53001  0.20290  1.0000
  C   C1904     1.0  0.73747  0.74394  0.47884  1.0000
  H   H1542     1.0  0.51862  0.95253  0.33260  1.0000
  H   H1543     1.0  0.58092  0.74020  0.09168  1.0000
  H   H1544     1.0  0.56354  0.82100  0.34162  1.0000
  H   H1545     1.0  0.55374  0.76252  0.13160  1.0000
  H   H1546     1.0  0.51873  0.77539  0.20423  1.0000
  H   H1547     1.0  0.69844  0.79973  0.47686  1.0000
  H   H1548     1.0  0.57809  0.82582  0.13507  1.0000
  C   C1905     1.0  0.75749  0.57257  0.10515  1.0000
  C   C1906     1.0  0.71859  0.83927  0.26369  1.0000
  C   C1907     1.0  0.51282  0.90139  0.23116  1.0000
  C   C1908     1.0  0.71130  0.53515  0.15166  1.0000
  C   C1909     1.0  0.56444  0.76570  0.14682  1.0000
  C   C1910     1.0  0.61540  0.95979  0.44363  1.0000
  P   P63       1.0  0.73612  0.55515  0.15412  1.0000
  C   C1911     1.0  0.63355  0.57434  0.07795  1.0000
  H   H1549     1.0  0.60467  0.84178  0.16340  1.0000
  C   C1912     1.0  0.65456  0.00332  0.20782  1.0000
  C   C1913     1.0  0.72440  0.94839  0.29922  1.0000
  C   C1914     1.0  0.51045  0.79465  0.20706  1.0000
  H   H1550     1.0  0.61001  0.98020  0.44229  1.0000
  C   C1915     1.0  0.73343  0.85947  0.26308  1.0000
  C   C1916     1.0  0.67199  0.87178  0.00955  1.0000
  C   C1917     1.0  0.70554  0.54668  0.06290  1.0000
  C   C1918     1.0  0.73144  0.93802  0.25547  1.0000
  C   C1919     1.0  0.61460  0.54564  0.12250  1.0000
  C   C1920     1.0  0.60927  0.94578  0.42496  1.0000
  H   H1551     1.0  0.74043  0.72596  0.47057  1.0000
  C   C1921     1.0  0.56318  0.00167  0.15576  1.0000
  H   H1552     1.0  0.59925  0.95525  0.40926  1.0000
  C   C1922     1.0  0.61545  0.91937  0.42687  1.0000
  C   C1923     1.0  0.57250  0.74383  0.05260  1.0000
  H   H1553     1.0  0.73077  0.93711  0.15949  1.0000
  H   H1554     1.0  0.53855  0.72657  0.10938  1.0000
  C   C1924     1.0  0.70863  0.59137  0.06590  1.0000
  C   C1925     1.0  0.59704  0.99820  0.05247  1.0000
  C   C1926     1.0  0.72997  0.79049  0.49975  1.0000
  C   C1927     1.0  0.68854  0.53724  0.16817  1.0000
  H   H1555     1.0  0.57740  0.99488  0.26670  1.0000
  H   H1556     1.0  0.63108  0.87629  0.01353  1.0000
  H   H1557     1.0  0.57169  0.66594  0.04446  1.0000
  C   C1928     1.0  0.69781  0.87739  0.50104  1.0000
  H   H1558     1.0  0.60305  0.83887  0.32081  1.0000
  C   C1929     1.0  0.53069  0.73284  0.04586  1.0000
  H   H1559     1.0  0.54055  0.84759  0.06640  1.0000
  C   C1930     1.0  0.54299  0.73069  0.08891  1.0000
  H   H1560     1.0  0.70545  0.96944  0.26830  1.0000
  C   C1931     1.0  0.60123  0.75331  0.17037  1.0000
  C   C1932     1.0  0.55781  0.99881  0.03331  1.0000
  H   H1561     1.0  0.70223  0.60864  0.07494  1.0000
  C   C1933     1.0  0.72762  0.59181  0.04518  1.0000
  C   C1934     1.0  0.74894  0.91710  0.26258  1.0000
  C   C1935     1.0  0.71937  0.95365  0.27372  1.0000
  H   H1562     1.0  0.64866  0.99986  0.22808  1.0000
  C   C1936     1.0  0.74153  0.92747  0.30654  1.0000
  C   C1937     1.0  0.52644  0.98166  0.23616  1.0000
  C   C1938     1.0  0.58656  0.74940  0.15125  1.0000
  C   C1939     1.0  0.59358  0.77332  0.18540  1.0000
  H   H1563     1.0  0.74496  0.59728  0.18319  1.0000
  H   H1564     1.0  0.50965  0.88953  0.10324  1.0000
  H   H1565     1.0  0.71057  0.97550  0.45248  1.0000
  H   H1566     1.0  0.54724  0.99230  0.01948  1.0000
  H   H1567     1.0  0.72964  0.53000  0.03254  1.0000
  C   C1940     1.0  0.55656  0.99480  0.48031  1.0000
  C   C1941     1.0  0.55016  0.94304  0.47965  1.0000
  H   H1568     1.0  0.74823  0.85333  0.46201  1.0000
  H   H1569     1.0  0.72668  0.94224  0.23605  1.0000
  H   H1570     1.0  0.74825  0.86051  0.32525  1.0000
  C   C1942     1.0  0.55241  0.98565  0.45753  1.0000
  C   C1943     1.0  0.51684  0.91915  0.27029  1.0000
  H   H1571     1.0  0.52392  0.98124  0.29254  1.0000
  H   H1572     1.0  0.74889  0.51137  0.24060  1.0000
  P   P64       1.0  0.52842  0.80752  0.15613  1.0000
  H   H1573     1.0  0.54764  0.92307  0.47935  1.0000
  H   H1574     1.0  0.72484  0.83236  0.20024  1.0000
  C   C1944     1.0  0.52449  0.87561  0.11044  1.0000
  H   H1575     1.0  0.59318  0.97703  0.02126  1.0000
  H   H1576     1.0  0.55932  0.74586  0.01574  1.0000
  C   C1945     1.0  0.75240  0.63592  0.10830  1.0000
  C   C1946     1.0  0.50901  0.87453  0.39844  1.0000
  C   C1947     1.0  0.74996  0.77219  0.50698  1.0000
  H   H1577     1.0  0.72703  0.80879  0.50739  1.0000
  H   H1578     1.0  0.73470  0.85769  0.50803  1.0000
  Fe  Fe133     1.0  0.63926  0.81267  0.84626  1.0000
  S   S264      1.0  0.60553  0.81744  0.82371  1.0000
  S   S265      1.0  0.65749  0.77204  0.85823  1.0000
  Fe  Fe134     1.0  0.63352  0.87175  0.85337  1.0000
  S   S266      1.0  0.59869  0.87872  0.83281  1.0000
  S   S267      1.0  0.64839  0.90607  0.86748  1.0000
  Fe  Fe135     1.0  0.58772  0.84177  0.85409  1.0000
  H   H1579     1.0  0.70832  0.75222  0.86757  1.0000
  Fe  Fe136     1.0  0.62083  0.85369  0.80490  1.0000
  S   S268      1.0  0.62214  0.87186  0.76430  1.0000
  S   S269      1.0  0.62065  0.83622  0.87744  1.0000
  S   S270      1.0  0.65655  0.84748  0.82478  1.0000
  Fe  Fe137     1.0  0.56476  0.86375  0.59282  1.0000
  S   S271      1.0  0.55718  0.87402  0.63284  1.0000
  S   S272      1.0  0.53157  0.86141  0.56916  1.0000
  Fe  Fe138     1.0  0.62463  0.86148  0.59340  1.0000
  S   S273      1.0  0.61985  0.87156  0.63355  1.0000
  S   S274      1.0  0.66550  0.85414  0.57291  1.0000
  Fe  Fe139     1.0  0.58969  0.84446  0.64117  1.0000
  S   S275      1.0  0.58665  0.81732  0.67722  1.0000
  Fe  Fe140     1.0  0.58790  0.90008  0.62122  1.0000
  S   S276      1.0  0.58407  0.93869  0.63533  1.0000
  S   S277      1.0  0.59606  0.83196  0.60168  1.0000
  S   S278      1.0  0.59393  0.89196  0.58030  1.0000
  Fe  Fe141     1.0  0.63118  0.62396  0.86226  1.0000
  S   S279      1.0  0.66189  0.61764  0.88882  1.0000
  S   S280      1.0  0.61663  0.66472  0.84592  1.0000
  Fe  Fe142     1.0  0.62477  0.56481  0.86711  1.0000
  S   S281      1.0  0.65491  0.55595  0.89382  1.0000
  S   S282      1.0  0.60253  0.53141  0.86173  1.0000
  Fe  Fe143     1.0  0.63682  0.59027  0.91220  1.0000
  S   S283      1.0  0.62877  0.58656  0.95483  1.0000
  Fe  Fe144     1.0  0.67636  0.58408  0.86722  1.0000
  S   S284      1.0  0.71707  0.57034  0.85575  1.0000
  S   S285      1.0  0.60501  0.59816  0.88733  1.0000
  S   S286      1.0  0.64738  0.59143  0.83885  1.0000
  C   C1948     1.0  0.62323  0.61664  0.96604  1.0000
  S   S287      1.0  0.54891  0.83473  0.87307  1.0000
  C   C1949     1.0  0.62056  0.63889  0.94899  1.0000
  H   H1580     1.0  0.52811  0.87366  0.78902  1.0000
  H   H1581     1.0  0.62121  0.63761  0.92872  1.0000
  H   H1582     1.0  0.64081  0.90204  0.54851  1.0000
  C   C1950     1.0  0.73395  0.61616  0.86225  1.0000
  C   C1951     1.0  0.74003  0.59003  0.86018  1.0000
  H   H1583     1.0  0.52629  0.99686  0.59494  1.0000
  H   H1584     1.0  0.71461  0.62485  0.86079  1.0000
  C   C1952     1.0  0.74370  0.80092  0.69143  1.0000
  H   H1585     1.0  0.58489  0.78220  0.88945  1.0000
  C   C1953     1.0  0.51666  0.53669  0.83152  1.0000
  C   C1954     1.0  0.73429  0.86453  0.67591  1.0000
  H   H1586     1.0  0.56152  0.79343  0.95293  1.0000
  C   C1955     1.0  0.54253  0.91394  0.86110  1.0000
  C   C1956     1.0  0.64633  0.74229  0.85403  1.0000
  C   C1957     1.0  0.65644  0.71947  0.86751  1.0000
  C   C1958     1.0  0.64802  0.69562  0.86490  1.0000
  C   C1959     1.0  0.62936  0.69411  0.84862  1.0000
  C   C1960     1.0  0.61956  0.71689  0.83484  1.0000
  C   C1961     1.0  0.62787  0.74075  0.83758  1.0000
  H   H1587     1.0  0.67074  0.72023  0.88028  1.0000
  H   H1588     1.0  0.65581  0.67844  0.87571  1.0000
  H   H1589     1.0  0.60524  0.71615  0.82210  1.0000
  H   H1590     1.0  0.62004  0.75794  0.82687  1.0000
  C   C1962     1.0  0.64508  0.94042  0.86287  1.0000
  C   C1963     1.0  0.66328  0.95265  0.87258  1.0000
  C   C1964     1.0  0.62589  0.95578  0.85006  1.0000
  H   H1591     1.0  0.67817  0.94130  0.88250  1.0000
  H   H1592     1.0  0.61162  0.94675  0.84244  1.0000
  C   C1965     1.0  0.60996  0.85641  0.74166  1.0000
  C   C1966     1.0  0.60335  0.87076  0.71903  1.0000
  C   C1967     1.0  0.59537  0.85884  0.69964  1.0000
  C   C1968     1.0  0.59436  0.83242  0.70258  1.0000
  C   C1969     1.0  0.60035  0.81806  0.72550  1.0000
  C   C1970     1.0  0.60802  0.83009  0.74514  1.0000
  H   H1593     1.0  0.60455  0.89115  0.71636  1.0000
  H   H1594     1.0  0.59006  0.87017  0.68237  1.0000
  H   H1595     1.0  0.59969  0.79759  0.72776  1.0000
  H   H1596     1.0  0.61315  0.81895  0.76258  1.0000
  C   C1971     1.0  0.52267  0.66240  0.95484  1.0000
  C   C1972     1.0  0.66291  0.97938  0.86938  1.0000
  H   H1597     1.0  0.54508  0.90151  0.84600  1.0000
  C   C1973     1.0  0.53489  0.91011  0.68210  1.0000
  H   H1598     1.0  0.62635  0.82133  0.53797  1.0000
  C   C1974     1.0  0.71855  0.88445  0.60795  1.0000
  C   C1975     1.0  0.69509  0.87888  0.60070  1.0000
  C   C1976     1.0  0.69475  0.86234  0.58214  1.0000
  C   C1977     1.0  0.71830  0.85193  0.57052  1.0000
  H   H1599     1.0  0.67718  0.88758  0.60918  1.0000
  H   H1600     1.0  0.71844  0.83959  0.55571  1.0000
  C   C1978     1.0  0.52076  0.86527  0.80766  1.0000
  H   H1601     1.0  0.51360  0.83950  0.74341  1.0000
  C   C1979     1.0  0.71899  0.78965  0.59036  1.0000
  H   H1602     1.0  0.55646  0.94612  0.83691  1.0000
  C   C1980     1.0  0.64626  0.84749  0.98833  1.0000
  P   P65       1.0  0.61540  0.84178  0.98019  1.0000
  C   C1981     1.0  0.71278  0.86964  0.71822  1.0000
  H   H1603     1.0  0.71836  0.89753  0.62213  1.0000
  C   C1982     1.0  0.66005  0.89103  0.69169  1.0000
  P   P66       1.0  0.52980  0.96684  0.92531  1.0000
  H   H1604     1.0  0.70270  0.86233  0.73602  1.0000
  C   C1983     1.0  0.64383  0.93155  0.78633  1.0000
  C   C1984     1.0  0.69036  0.50918  0.95337  1.0000
  C   C1985     1.0  0.74524  0.71089  0.90602  1.0000
  H   H1605     1.0  0.74947  0.89804  0.65547  1.0000
  C   C1986     1.0  0.52083  0.75270  0.79488  1.0000
  H   H1606     1.0  0.54247  0.99403  0.64085  1.0000
  H   H1607     1.0  0.62635  0.74030  0.95177  1.0000
  C   C1987     1.0  0.56022  0.99320  0.70997  1.0000
  H   H1608     1.0  0.70996  0.83055  0.97352  1.0000
  H   H1609     1.0  0.61627  0.68012  0.94489  1.0000
  C   C1988     1.0  0.62535  0.98300  0.84704  1.0000
  C   C1989     1.0  0.54666  0.91278  0.70368  1.0000
  C   C1990     1.0  0.62232  0.61842  0.99224  1.0000
  H   H1610     1.0  0.56412  0.92195  0.70159  1.0000
  H   H1611     1.0  0.66036  0.87166  0.70106  1.0000
  C   C1991     1.0  0.60018  0.99256  0.72817  1.0000
  C   C1992     1.0  0.62665  0.80501  0.94580  1.0000
  C   C1993     1.0  0.68107  0.81874  0.74683  1.0000
  H   H1612     1.0  0.72719  0.77339  0.78762  1.0000
  H   H1613     1.0  0.54802  0.96356  0.56900  1.0000
  C   C1994     1.0  0.53813  0.61404  0.87987  1.0000
  C   C1995     1.0  0.53392  0.81656  0.97602  1.0000
  H   H1614     1.0  0.57366  0.76468  0.82069  1.0000
  C   C1996     1.0  0.54267  0.65788  0.93573  1.0000
  C   C1997     1.0  0.52501  0.97899  0.78147  1.0000
  C   C1998     1.0  0.67179  0.79910  0.69312  1.0000
  C   C1999     1.0  0.61185  0.97447  0.71199  1.0000
  H   H1615     1.0  0.56219  0.86623  0.98636  1.0000
  H   H1616     1.0  0.53836  0.91490  0.79580  1.0000
  C   C2000     1.0  0.72748  0.72576  0.98196  1.0000
  C   C2001     1.0  0.62354  0.75972  0.95690  1.0000
  C   C2002     1.0  0.70617  0.58105  0.95426  1.0000
  C   C2003     1.0  0.61959  0.64240  0.00132  1.0000
  C   C2004     1.0  0.74143  0.72697  0.95763  1.0000
  H   H1617     1.0  0.57452  0.63174  0.92305  1.0000
  H   H1618     1.0  0.54507  0.90551  0.74467  1.0000
  H   H1619     1.0  0.54276  0.91788  0.66340  1.0000
  C   C2005     1.0  0.53819  0.95457  0.78115  1.0000
  C   C2006     1.0  0.57167  0.97514  0.69392  1.0000
  C   C2007     1.0  0.68753  0.64228  0.96652  1.0000
  C   C2008     1.0  0.72419  0.74685  0.99594  1.0000
  H   H1620     1.0  0.70927  0.59959  0.91567  1.0000
  C   C2009     1.0  0.66879  0.83486  0.97698  1.0000
  H   H1621     1.0  0.61020  0.97783  0.54880  1.0000
  H   H1622     1.0  0.72691  0.99882  0.67743  1.0000
  C   C2010     1.0  0.54305  0.66418  0.82535  1.0000
  H   H1623     1.0  0.70833  0.56388  0.99276  1.0000
  H   H1624     1.0  0.55628  0.95175  0.76940  1.0000
  H   H1625     1.0  0.65588  0.96006  0.65748  1.0000
  C   C2011     1.0  0.74216  0.87324  0.59703  1.0000
  C   C2012     1.0  0.54882  0.71968  0.95710  1.0000
  H   H1626     1.0  0.59284  0.94371  0.57984  1.0000
  C   C2013     1.0  0.59337  0.84804  0.53125  1.0000
  H   H1627     1.0  0.56883  0.59996  0.96045  1.0000
  H   H1628     1.0  0.55792  0.85388  0.81989  1.0000
  C   C2014     1.0  0.55058  0.99218  0.91782  1.0000
  C   C2015     1.0  0.73094  0.58659  0.76723  1.0000
  H   H1629     1.0  0.67362  0.62886  0.97307  1.0000
  C   C2016     1.0  0.61765  0.80968  0.97103  1.0000
  H   H1630     1.0  0.63797  0.78311  0.68612  1.0000
  H   H1631     1.0  0.53341  0.99483  0.77015  1.0000
  C   C2017     1.0  0.63707  0.85694  0.51784  1.0000
  C   C2018     1.0  0.54634  0.92458  0.00428  1.0000
  H   H1632     1.0  0.68677  0.97796  0.51753  1.0000
  H   H1633     1.0  0.56086  0.96863  0.68027  1.0000
  C   C2019     1.0  0.52811  0.93378  0.79604  1.0000
  H   H1634     1.0  0.66841  0.93588  0.81474  1.0000
  C   C2020     1.0  0.73445  0.78933  0.61002  1.0000
  C   C2021     1.0  0.51926  0.64442  0.97622  1.0000
  C   C2022     1.0  0.72580  0.72983  0.89883  1.0000
  C   C2023     1.0  0.74336  0.58022  0.97734  1.0000
  H   H1635     1.0  0.58606  0.92652  0.99070  1.0000
  C   C2024     1.0  0.53964  0.58741  0.88456  1.0000
  S   S288      1.0  0.61723  0.69447  0.99544  1.0000
  C   C2025     1.0  0.66941  0.95569  0.55024  1.0000
  H   H1636     1.0  0.74151  0.85294  0.66059  1.0000
  C   C2026     1.0  0.51404  0.89065  0.73033  1.0000
  C   C2027     1.0  0.52736  0.80552  0.93454  1.0000
  C   C2028     1.0  0.67250  0.52358  0.99400  1.0000
  C   C2029     1.0  0.69023  0.81589  0.68348  1.0000
  C   C2030     1.0  0.67651  0.96149  0.52411  1.0000
  H   H1637     1.0  0.67277  0.65339  0.93023  1.0000
  H   H1638     1.0  0.53842  0.91842  0.57960  1.0000
  C   C2031     1.0  0.70564  0.81057  0.73571  1.0000
  C   C2032     1.0  0.71806  0.54984  0.79553  1.0000
  P   P67       1.0  0.52968  0.73717  0.84532  1.0000
  C   C2033     1.0  0.56727  0.85734  0.00480  1.0000
  C   C2034     1.0  0.52945  0.92065  0.90537  1.0000
  H   H1639     1.0  0.54578  0.81511  0.99153  1.0000
  C   C2035     1.0  0.52815  0.84423  0.84972  1.0000
  C   C2036     1.0  0.60653  0.86445  0.95363  1.0000
  C   C2037     1.0  0.61784  0.88742  0.94770  1.0000
  C   C2038     1.0  0.61181  0.90410  0.92622  1.0000
  C   C2039     1.0  0.59449  0.89800  0.91056  1.0000
  C   C2040     1.0  0.58293  0.87536  0.91657  1.0000
  C   C2041     1.0  0.58871  0.85876  0.93811  1.0000
  H   H1640     1.0  0.65627  0.53532  0.95853  1.0000
  H   H1641     1.0  0.70630  0.63502  0.00093  1.0000
  H   H1642     1.0  0.63214  0.82049  0.93167  1.0000
  H   H1643     1.0  0.63686  0.77671  0.91931  1.0000
  H   H1644     1.0  0.63188  0.89225  0.95907  1.0000
  H   H1645     1.0  0.62148  0.92122  0.92095  1.0000
  H   H1646     1.0  0.59082  0.91038  0.89325  1.0000
  C   C2042     1.0  0.71841  0.57406  0.97644  1.0000
  H   H1647     1.0  0.65185  0.90760  0.72672  1.0000
  P   P68       1.0  0.64558  0.96415  0.71211  1.0000
  C   C2043     1.0  0.67086  0.96782  0.75497  1.0000
  C   C2044     1.0  0.66302  0.92020  0.65295  1.0000
  C   C2045     1.0  0.71296  0.57519  0.78510  1.0000
  H   H1648     1.0  0.66829  0.87919  0.65406  1.0000
  C   C2046     1.0  0.59315  0.00540  0.90553  1.0000
  P   P69       1.0  0.52306  0.54122  0.90706  1.0000
  H   H1649     1.0  0.60204  0.98583  0.64177  1.0000
  H   H1650     1.0  0.72587  0.79222  0.62917  1.0000
  C   C2047     1.0  0.73898  0.89019  0.67292  1.0000
  H   H1651     1.0  0.62140  0.50865  0.81541  1.0000
  C   C2048     1.0  0.54886  0.93903  0.85601  1.0000
  H   H1652     1.0  0.73766  0.66602  0.98641  1.0000
  H   H1653     1.0  0.68925  0.50952  0.93307  1.0000
  H   H1654     1.0  0.56431  0.87867  0.52267  1.0000
  C   C2049     1.0  0.53353  0.51532  0.82596  1.0000
  C   C2050     1.0  0.57673  0.98621  0.91024  1.0000
  C   C2051     1.0  0.72378  0.66318  0.97386  1.0000
  C   C2052     1.0  0.65755  0.94090  0.66737  1.0000
  C   C2053     1.0  0.71741  0.89534  0.71507  1.0000
  H   H1655     1.0  0.66569  0.92357  0.63230  1.0000
  C   C2054     1.0  0.74338  0.60059  0.93372  1.0000
  C   C2055     1.0  0.66343  0.94205  0.79555  1.0000
  H   H1656     1.0  0.70420  0.68397  0.91514  1.0000
  C   C2056     1.0  0.67651  0.96061  0.78011  1.0000
  H   H1657     1.0  0.63352  0.91734  0.79848  1.0000
  H   H1658     1.0  0.50880  0.95979  0.67828  1.0000
  C   C2057     1.0  0.57974  0.76367  0.88640  1.0000
  C   C2058     1.0  0.54522  0.95508  0.87548  1.0000
  H   H1659     1.0  0.74867  0.65144  0.86689  1.0000
  C   C2059     1.0  0.61460  0.76418  0.98200  1.0000
  C   C2060     1.0  0.69008  0.82745  0.65821  1.0000
  C   C2061     1.0  0.54989  0.52694  0.92395  1.0000
  C   C2062     1.0  0.64411  0.99496  0.85665  1.0000
  H   H1660     1.0  0.71223  0.73830  0.91318  1.0000
  C   C2063     1.0  0.61957  0.84024  0.52967  1.0000
  H   H1661     1.0  0.55035  0.77972  0.86283  1.0000
  H   H1662     1.0  0.50853  0.81228  0.78429  1.0000
  H   H1663     1.0  0.74635  0.51711  0.85548  1.0000
  C   C2064     1.0  0.73897  0.91781  0.51815  1.0000
  C   C2065     1.0  0.73043  0.90562  0.69240  1.0000
  C   C2066     1.0  0.52680  0.53044  0.87557  1.0000
  C   C2067     1.0  0.63781  0.93904  0.76135  1.0000
  C   C2068     1.0  0.74174  0.85697  0.57821  1.0000
  C   C2069     1.0  0.58667  0.71751  0.89264  1.0000
  C   C2070     1.0  0.66437  0.89527  0.66514  1.0000
  H   H1664     1.0  0.72326  0.76969  0.68467  1.0000
  C   C2071     1.0  0.66463  0.98864  0.69592  1.0000
  C   C2072     1.0  0.53279  0.90481  0.88570  1.0000
  C   C2073     1.0  0.68707  0.65614  0.94238  1.0000
  C   C2074     1.0  0.56034  0.76218  0.87108  1.0000
  H   H1665     1.0  0.56660  0.70887  0.95064  1.0000
  C   C2075     1.0  0.65684  0.92481  0.51506  1.0000
  C   C2076     1.0  0.54632  0.68865  0.83087  1.0000
  C   C2077     1.0  0.53736  0.75307  0.81366  1.0000
  C   C2078     1.0  0.67320  0.81034  0.77224  1.0000
  C   C2079     1.0  0.56158  0.94293  0.96191  1.0000
  C   C2080     1.0  0.54947  0.77549  0.76349  1.0000
  C   C2081     1.0  0.56597  0.77599  0.78207  1.0000
  H   H1666     1.0  0.63733  0.80468  0.64216  1.0000
  H   H1667     1.0  0.56327  0.69721  0.87387  1.0000
  C   C2082     1.0  0.52698  0.76368  0.76986  1.0000
  H   H1668     1.0  0.51606  0.63709  0.82380  1.0000
  C   C2083     1.0  0.65276  0.79525  0.67829  1.0000
  H   H1669     1.0  0.71079  0.90727  0.73025  1.0000
  H   H1670     1.0  0.55955  0.65165  0.81872  1.0000
  H   H1671     1.0  0.56535  0.69481  0.82796  1.0000
  H   H1672     1.0  0.68119  0.98235  0.74356  1.0000
  H   H1673     1.0  0.73214  0.78560  0.99681  1.0000
  H   H1674     1.0  0.55414  0.78422  0.74414  1.0000
  C   C2084     1.0  0.59195  0.52896  0.93715  1.0000
  C   C2085     1.0  0.62949  0.78016  0.93875  1.0000
  C   C2086     1.0  0.72097  0.85398  0.69855  1.0000
  C   C2087     1.0  0.59303  0.74134  0.89702  1.0000
  C   C2088     1.0  0.53605  0.90334  0.72787  1.0000
  C   C2089     1.0  0.70494  0.67359  0.93395  1.0000
  H   H1675     1.0  0.52168  0.91330  0.92430  1.0000
  H   H1676     1.0  0.52104  0.81961  0.64230  1.0000
  C   C2090     1.0  0.53583  0.94586  0.90041  1.0000
  H   H1677     1.0  0.61054  0.99467  0.83732  1.0000
  H   H1678     1.0  0.57978  0.83518  0.54060  1.0000
  C   C2091     1.0  0.65658  0.93419  0.55886  1.0000
  H   H1679     1.0  0.68683  0.57650  0.95369  1.0000
  C   C2092     1.0  0.65238  0.80739  0.65346  1.0000
  H   H1680     1.0  0.55468  0.57592  0.87406  1.0000
  C   C2093     1.0  0.73005  0.78646  0.56546  1.0000
  H   H1681     1.0  0.73410  0.92549  0.68994  1.0000
  H   H1682     1.0  0.70402  0.54175  0.80982  1.0000
  H   H1683     1.0  0.51423  0.76323  0.75541  1.0000
  H   H1684     1.0  0.54562  0.67192  0.91932  1.0000
  C   C2094     1.0  0.65202  0.95640  0.74509  1.0000
  C   C2095     1.0  0.61758  0.66293  0.95814  1.0000
  H   H1685     1.0  0.73789  0.73218  0.83413  1.0000
  C   C2096     1.0  0.54073  0.71886  0.98324  1.0000
  C   C2097     1.0  0.70597  0.64569  0.98218  1.0000
  H   H1686     1.0  0.53975  0.73457  0.91923  1.0000
  H   H1687     1.0  0.62451  0.60131  0.00551  1.0000
  C   C2098     1.0  0.54276  0.80416  0.95437  1.0000
  H   H1688     1.0  0.72704  0.60636  0.75948  1.0000
  H   H1689     1.0  0.69111  0.96931  0.78770  1.0000
  H   H1690     1.0  0.67185  0.78892  0.71206  1.0000
  H   H1691     1.0  0.67738  0.98810  0.87708  1.0000
  C   C2099     1.0  0.55896  0.63519  0.93781  1.0000
  H   H1692     1.0  0.71923  0.70866  0.99053  1.0000
  H   H1693     1.0  0.55214  0.62293  0.86613  1.0000
  C   C2100     1.0  0.55557  0.61710  0.95912  1.0000
  C   C2101     1.0  0.60209  0.88953  0.50970  1.0000
  C   C2102     1.0  0.52182  0.57566  0.90257  1.0000
  H   H1694     1.0  0.69526  0.58617  0.79143  1.0000
  C   C2103     1.0  0.71870  0.59422  0.93288  1.0000
  C   C2104     1.0  0.75677  0.78316  0.56001  1.0000
  C   C2105     1.0  0.51080  0.74767  0.94777  1.0000
  H   H1695     1.0  0.60871  0.74245  0.90805  1.0000
  H   H1696     1.0  0.65124  0.92952  0.57914  1.0000
  C   C2106     1.0  0.53433  0.95844  0.58511  1.0000
  H   H1697     1.0  0.57760  0.94774  0.94839  1.0000
  C   C2107     1.0  0.74137  0.53574  0.78830  1.0000
  C   C2108     1.0  0.61167  0.78899  0.98909  1.0000
  H   H1698     1.0  0.75304  0.61080  0.91714  1.0000
  C   C2109     1.0  0.65032  0.91882  0.54136  1.0000
  C   C2110     1.0  0.74174  0.77674  0.68398  1.0000
  H   H1699     1.0  0.67093  0.83239  0.62402  1.0000
  C   C2111     1.0  0.67160  0.52383  0.96774  1.0000
  C   C2112     1.0  0.72334  0.67739  0.94979  1.0000
  H   H1700     1.0  0.58456  0.96677  0.90771  1.0000
  C   C2113     1.0  0.56013  0.76462  0.80699  1.0000
  H   H1701     1.0  0.74141  0.78784  0.74270  1.0000
  C   C2114     1.0  0.51863  0.65602  0.82818  1.0000
  H   H1702     1.0  0.60571  0.95197  0.68202  1.0000
  C   C2115     1.0  0.59734  0.96575  0.69492  1.0000
  C   C2116     1.0  0.68978  0.79396  0.78691  1.0000
  C   C2117     1.0  0.52901  0.93307  0.59110  1.0000
  C   C2118     1.0  0.59892  0.96005  0.58667  1.0000
  H   H1703     1.0  0.54956  0.97469  0.87090  1.0000
  H   H1704     1.0  0.61108  0.99981  0.74124  1.0000
  H   H1705     1.0  0.53424  0.79605  0.91763  1.0000
  H   H1706     1.0  0.68357  0.78749  0.80665  1.0000
  C   C2119     1.0  0.55447  0.73832  0.86574  1.0000
  H   H1707     1.0  0.67370  0.96791  0.56383  1.0000
  C   C2120     1.0  0.59646  0.96232  0.61292  1.0000
  H   H1708     1.0  0.62253  0.93065  0.75455  1.0000
  C   C2121     1.0  0.56653  0.93074  0.98602  1.0000
  H   H1709     1.0  0.58350  0.78496  0.77712  1.0000
  C   C2122     1.0  0.72341  0.73766  0.87299  1.0000
  H   H1710     1.0  0.60785  0.53978  0.93827  1.0000
  C   C2123     1.0  0.69267  0.84041  0.98224  1.0000
  H   H1711     1.0  0.66787  0.83149  0.73583  1.0000
  C   C2124     1.0  0.69138  0.98379  0.69257  1.0000
  C   C2125     1.0  0.72232  0.79427  0.75064  1.0000
  P   P70       1.0  0.71525  0.82057  0.70242  1.0000
  C   C2126     1.0  0.53632  0.94904  0.95577  1.0000
  H   H1712     1.0  0.52802  0.88530  0.88949  1.0000
  C   C2127     1.0  0.61771  0.66466  0.98426  1.0000
  H   H1713     1.0  0.59737  0.70019  0.90045  1.0000
  C   C2128     1.0  0.53574  0.62165  0.97859  1.0000
  C   C2129     1.0  0.74011  0.72640  0.85412  1.0000
  C   C2130     1.0  0.61377  0.00308  0.60409  1.0000
  H   H1714     1.0  0.70441  0.83974  0.64976  1.0000
  H   H1715     1.0  0.70066  0.96550  0.69983  1.0000
  C   C2131     1.0  0.53763  0.85411  0.82521  1.0000
  C   C2132     1.0  0.52525  0.70500  0.83988  1.0000
  C   C2133     1.0  0.56745  0.71594  0.87710  1.0000
  C   C2134     1.0  0.71436  0.78601  0.77614  1.0000
  H   H1716     1.0  0.69838  0.79297  0.59428  1.0000
  H   H1717     1.0  0.55218  0.70692  0.99666  1.0000
  C   C2135     1.0  0.65356  0.93685  0.69418  1.0000
  H   H1718     1.0  0.57039  0.56065  0.91816  1.0000
  C   C2136     1.0  0.64807  0.86611  0.00459  1.0000
  C   C2137     1.0  0.57048  0.54083  0.92581  1.0000
  C   C2138     1.0  0.60860  0.97945  0.56909  1.0000
  C   C2139     1.0  0.67120  0.82320  0.64335  1.0000
  C   C2140     1.0  0.75323  0.63118  0.86561  1.0000
  C   C2141     1.0  0.60380  0.98392  0.62156  1.0000
  H   H1719     1.0  0.51902  0.84345  0.67971  1.0000
  H   H1720     1.0  0.57993  0.84109  0.94209  1.0000
  C   C2142     1.0  0.65493  0.91168  0.70623  1.0000
  H   H1721     1.0  0.57035  0.87001  0.90393  1.0000
  H   H1722     1.0  0.65420  0.81664  0.78058  1.0000
  C   C2143     1.0  0.58464  0.87265  0.52117  1.0000
  C   C2144     1.0  0.53380  0.73407  0.93942  1.0000
  H   H1723     1.0  0.65720  0.85045  0.51706  1.0000
  H   H1724     1.0  0.73499  0.53114  0.93643  1.0000
  C   C2145     1.0  0.51325  0.89694  0.68445  1.0000
  H   H1725     1.0  0.66812  0.82078  0.96400  1.0000
  H   H1726     1.0  0.71758  0.78698  0.55069  1.0000
  C   C2146     1.0  0.52209  0.97725  0.59999  1.0000
  C   C2147     1.0  0.52123  0.92980  0.99814  1.0000
  C   C2148     1.0  0.73456  0.76941  0.98575  1.0000
  H   H1727     1.0  0.54046  0.00071  0.70879  1.0000
  C   C2149     1.0  0.70627  0.00257  0.67989  1.0000
  H   H1728     1.0  0.51002  0.68000  0.95332  1.0000
  C   C2150     1.0  0.54393  0.50914  0.86971  1.0000
  C   C2151     1.0  0.61602  0.00100  0.57785  1.0000
  C   C2152     1.0  0.51806  0.73327  0.99182  1.0000
  H   H1729     1.0  0.71328  0.51418  0.89167  1.0000
  C   C2153     1.0  0.69427  0.85883  0.99857  1.0000
  C   C2154     1.0  0.51135  0.92655  0.61190  1.0000
  C   C2155     1.0  0.75581  0.59342  0.95572  1.0000
  C   C2156     1.0  0.74831  0.77088  0.96152  1.0000
  P   P71       1.0  0.74682  0.69965  0.93946  1.0000
  H   H1730     1.0  0.53625  0.50961  0.80681  1.0000
  H   H1731     1.0  0.56314  0.98390  0.51996  1.0000
  H   H1732     1.0  0.55623  0.93873  0.51952  1.0000
  H   H1733     1.0  0.61338  0.00066  0.90035  1.0000
  H   H1734     1.0  0.75652  0.78831  0.95367  1.0000
  C   C2157     1.0  0.75409  0.57263  0.75974  1.0000
  C   C2158     1.0  0.75179  0.74976  0.94753  1.0000
  H   H1735     1.0  0.61058  0.74822  0.99615  1.0000
  C   C2159     1.0  0.51852  0.62912  0.89271  1.0000
  C   C2160     1.0  0.75217  0.52189  0.92696  1.0000
  H   H1736     1.0  0.51708  0.64973  0.88864  1.0000
  C   C2161     1.0  0.51620  0.94156  0.97391  1.0000
  H   H1737     1.0  0.72133  0.91292  0.52925  1.0000
  C   C2162     1.0  0.51330  0.54424  0.85617  1.0000
  C   C2163     1.0  0.57446  0.00189  0.72713  1.0000
  H   H1738     1.0  0.69197  0.87883  0.52119  1.0000
  H   H1739     1.0  0.65781  0.53476  0.00517  1.0000
  H   H1740     1.0  0.71273  0.86310  0.00279  1.0000
  C   C2164     1.0  0.69228  0.50878  0.00585  1.0000
  C   C2165     1.0  0.59184  0.84485  0.00757  1.0000
  C   C2166     1.0  0.57429  0.51900  0.00323  1.0000
  C   C2167     1.0  0.58822  0.53991  0.00254  1.0000
  C   C2168     1.0  0.53503  0.54751  0.00315  1.0000
  H   H1741     1.0  0.51443  0.54993  0.00373  1.0000
  C   C2169     1.0  0.57558  0.56457  0.00262  1.0000
  C   C2170     1.0  0.54885  0.56856  0.00330  1.0000
  H   H1742     1.0  0.58663  0.58047  0.00269  1.0000
  H   H1743     1.0  0.60882  0.53702  0.00224  1.0000
  C   C2171     1.0  0.54776  0.52283  0.00313  1.0000
  C   C2172     1.0  0.50982  0.83069  0.97768  1.0000
  H   H1744     1.0  0.60536  0.79164  0.00880  1.0000
  P   P72       1.0  0.53254  0.59993  0.00761  1.0000
  Fe  Fe145     1.0  0.91302  0.38210  0.31139  1.0000
  S   S289      1.0  0.87211  0.39915  0.31419  1.0000
  S   S290      1.0  0.94551  0.40645  0.30764  1.0000
  Fe  Fe146     1.0  0.89824  0.32844  0.31473  1.0000
  S   S291      1.0  0.85656  0.34181  0.31829  1.0000
  S   S292      1.0  0.91330  0.28722  0.31660  1.0000
  Fe  Fe147     1.0  0.86776  0.37153  0.28563  1.0000
  S   S293      1.0  0.84758  0.37901  0.24860  1.0000
  Fe  Fe148     1.0  0.86647  0.36715  0.34640  1.0000
  S   S294      1.0  0.84600  0.36757  0.38743  1.0000
  S   S295      1.0  0.90915  0.35664  0.28150  1.0000
  S   S296      1.0  0.90752  0.35171  0.34413  1.0000
  Fe  Fe149     1.0  0.87329  0.12899  0.34841  1.0000
  S   S297      1.0  0.86890  0.16776  0.36163  1.0000
  S   S298      1.0  0.91425  0.11118  0.33697  1.0000
  Fe  Fe150     1.0  0.81313  0.12751  0.35402  1.0000
  S   S299      1.0  0.80654  0.16625  0.36776  1.0000
  S   S300      1.0  0.77829  0.10595  0.35133  1.0000
  Fe  Fe151     1.0  0.83712  0.17680  0.33651  1.0000
  S   S301      1.0  0.83062  0.21278  0.30974  1.0000
  Fe  Fe152     1.0  0.83914  0.15255  0.39098  1.0000
  S   S302      1.0  0.83946  0.16324  0.43050  1.0000
  S   S303      1.0  0.84261  0.13877  0.32120  1.0000
  S   S304      1.0  0.84447  0.11282  0.37929  1.0000
  Fe  Fe153     1.0  0.85296  0.41136  0.05654  1.0000
  S   S305      1.0  0.89183  0.38978  0.05774  1.0000
  S   S306      1.0  0.84701  0.45329  0.04407  1.0000
  Fe  Fe154     1.0  0.82626  0.36414  0.07131  1.0000
  S   S307      1.0  0.86286  0.33865  0.07337  1.0000
  S   S308      1.0  0.78768  0.34981  0.07863  1.0000
  Fe  Fe155     1.0  0.87451  0.36923  0.09481  1.0000
  S   S309      1.0  0.89326  0.36207  0.13258  1.0000
  Fe  Fe156     1.0  0.87585  0.36193  0.03618  1.0000
  C   C2173     1.0  0.77251  0.39485  0.19250  1.0000
  S   S310      1.0  0.83687  0.39316  0.09455  1.0000
  S   S311      1.0  0.83820  0.38498  0.03320  1.0000
  C   C2174     1.0  0.85703  0.47055  0.06647  1.0000
  C   C2175     1.0  0.85476  0.49725  0.06264  1.0000
  H   H1745     1.0  0.77284  0.05618  0.43611  1.0000
  H   H1746     1.0  0.78940  0.27058  0.24701  1.0000
  C   C2176     1.0  0.87701  0.47164  0.10507  1.0000
  C   C2177     1.0  0.86797  0.45775  0.08780  1.0000
  H   H1747     1.0  0.91668  0.30017  0.17928  1.0000
  C   C2178     1.0  0.76082  0.21143  0.33479  1.0000
  H   H1748     1.0  0.88591  0.46166  0.12129  1.0000
  H   H1749     1.0  0.86988  0.43710  0.09082  1.0000
  C   C2179     1.0  0.77532  0.40044  0.06473  1.0000
  H   H1750     1.0  0.98410  0.11046  0.46942  1.0000
  C   C2180     1.0  0.99911  0.38722  0.44241  1.0000
  H   H1751     1.0  0.79500  0.40274  0.06592  1.0000
  H   H1752     1.0  0.78551  0.39541  0.01007  1.0000
  H   H1753     1.0  0.87263  0.07539  0.45963  1.0000
  C   C2181     1.0  0.98351  0.50457  0.34244  1.0000
  C   C2182     1.0  0.95140  0.48736  0.28639  1.0000
  C   C2183     1.0  0.85768  0.28597  0.45739  1.0000
  H   H1754     1.0  0.89017  0.44901  0.47851  1.0000
  H   H1755     1.0  0.95875  0.41265  0.50785  1.0000
  C   C2184     1.0  0.85509  0.13959  0.45103  1.0000
  H   H1756     1.0  0.94078  0.13991  0.36996  1.0000
  C   C2185     1.0  0.86086  0.14599  0.47427  1.0000
  H   H1757     1.0  0.85682  0.10913  0.42730  1.0000
  H   H1758     1.0  0.85779  0.16566  0.47839  1.0000
  C   C2186     1.0  0.86079  0.37365  0.21657  1.0000
  C   C2187     1.0  0.84445  0.37653  0.19704  1.0000
  C   C2188     1.0  0.85390  0.37289  0.17143  1.0000
  C   C2189     1.0  0.88008  0.36681  0.16471  1.0000
  C   C2190     1.0  0.89641  0.36376  0.18425  1.0000
  C   C2191     1.0  0.88690  0.36694  0.20994  1.0000
  H   H1759     1.0  0.82433  0.38178  0.20180  1.0000
  H   H1760     1.0  0.84094  0.37489  0.15686  1.0000
  H   H1761     1.0  0.91668  0.35915  0.17943  1.0000
  H   H1762     1.0  0.89990  0.36461  0.22449  1.0000
  C   C2192     1.0  0.85879  0.36649  0.41759  1.0000
  C   C2193     1.0  0.84254  0.36252  0.44050  1.0000
  C   C2194     1.0  0.85112  0.36339  0.46469  1.0000
  H   H1763     1.0  0.96010  0.09142  0.30996  1.0000
  C   C2195     1.0  0.89254  0.37207  0.44362  1.0000
  C   C2196     1.0  0.88412  0.37069  0.41945  1.0000
  H   H1764     1.0  0.82292  0.35929  0.43948  1.0000
  H   H1765     1.0  0.83800  0.36114  0.48187  1.0000
  H   H1766     1.0  0.89701  0.37373  0.40220  1.0000
  C   C2197     1.0  0.89021  0.26694  0.31406  1.0000
  C   C2198     1.0  0.86730  0.27617  0.30393  1.0000
  C   C2199     1.0  0.84911  0.25941  0.30229  1.0000
  C   C2200     1.0  0.85397  0.23341  0.31055  1.0000
  C   C2201     1.0  0.87740  0.22412  0.31947  1.0000
  C   C2202     1.0  0.89530  0.24092  0.32163  1.0000
  H   H1767     1.0  0.86373  0.29607  0.29703  1.0000
  H   H1768     1.0  0.83117  0.26661  0.29498  1.0000
  H   H1769     1.0  0.88203  0.20398  0.32420  1.0000
  H   H1770     1.0  0.91314  0.23381  0.32916  1.0000
  C   C2203     1.0  0.96683  0.39478  0.33017  1.0000
  H   H1771     1.0  0.90352  0.45403  0.43297  1.0000
  C   C2204     1.0  0.86962  0.09509  0.46368  1.0000
  C   C2205     1.0  0.87611  0.36865  0.46647  1.0000
  H   H1772     1.0  0.76916  0.28762  0.04334  1.0000
  C   C2206     1.0  0.95786  0.38442  0.35470  1.0000
  C   C2207     1.0  0.90920  0.47210  0.49958  1.0000
  H   H1773     1.0  0.76083  0.09253  0.49713  1.0000
  C   C2208     1.0  0.87463  0.49835  0.10141  1.0000
  H   H1774     1.0  0.93761  0.38481  0.36039  1.0000
  C   C2209     1.0  0.94692  0.11573  0.33951  1.0000
  C   C2210     1.0  0.92746  0.50222  0.42109  1.0000
  C   C2211     1.0  0.95495  0.13049  0.35694  1.0000
  C   C2212     1.0  0.92147  0.29925  0.19866  1.0000
  C   C2213     1.0  0.91469  0.28507  0.24391  1.0000
  C   C2214     1.0  0.94213  0.31176  0.20299  1.0000
  C   C2215     1.0  0.91020  0.22305  0.21251  1.0000
  H   H1775     1.0  0.99475  0.44062  0.03683  1.0000
  H   H1776     1.0  0.00056  0.44846  0.48646  1.0000
  H   H1777     1.0  0.00579  0.09496  0.31129  1.0000
  P   P73       1.0  0.95351  0.45781  0.40327  1.0000
  C   C2216     1.0  0.92377  0.44829  0.39588  1.0000
  H   H1778     1.0  0.90252  0.46369  0.02769  1.0000
  C   C2217     1.0  0.99184  0.10508  0.32410  1.0000
  C   C2218     1.0  0.92208  0.43958  0.37221  1.0000
  H   H1779     1.0  0.86901  0.18776  0.26822  1.0000
  C   C2219     1.0  0.77153  0.11648  0.42502  1.0000
  H   H1780     1.0  0.82466  0.23233  0.50075  1.0000
  H   H1781     1.0  0.98600  0.43175  0.36356  1.0000
  H   H1782     1.0  0.89874  0.42355  0.34904  1.0000
  H   H1783     1.0  0.86706  0.31564  0.24237  1.0000
  H   H1784     1.0  0.91358  0.17061  0.46105  1.0000
  H   H1785     1.0  0.93815  0.43903  0.35764  1.0000
  C   C2220     1.0  0.78347  0.33982  0.01062  1.0000
  H   H1786     1.0  0.76702  0.20185  0.29621  1.0000
  C   C2221     1.0  0.98147  0.13257  0.35773  1.0000
  C   C2222     1.0  0.97935  0.05749  0.38533  1.0000
  C   C2223     1.0  0.86484  0.28334  0.12975  1.0000
  H   H1787     1.0  0.96158  0.47242  0.27582  1.0000
  H   H1788     1.0  0.87147  0.24249  0.12979  1.0000
  H   H1789     1.0  0.78808  0.31009  0.26838  1.0000
  C   C2224     1.0  0.88031  0.19747  0.25233  1.0000
  C   C2225     1.0  0.80623  0.28059  0.24562  1.0000
  C   C2226     1.0  0.97512  0.37392  0.37216  1.0000
  C   C2227     1.0  0.95862  0.41051  0.43296  1.0000
  C   C2228     1.0  0.97287  0.06381  0.50176  1.0000
  H   H1790     1.0  0.91132  0.27698  0.45045  1.0000
  H   H1791     1.0  0.89392  0.21499  0.46166  1.0000
  C   C2229     1.0  0.95903  0.50295  0.45965  1.0000
  C   C2230     1.0  0.90733  0.28612  0.21920  1.0000
  C   C2231     1.0  0.00137  0.37388  0.36512  1.0000
  C   C2232     1.0  0.97467  0.44604  0.03480  1.0000
  H   H1792     1.0  0.96483  0.27294  0.30631  1.0000
  C   C2233     1.0  0.87867  0.43006  0.38585  1.0000
  C   C2234     1.0  0.78551  0.36999  0.14846  1.0000
  H   H1793     1.0  0.80421  0.09866  0.47684  1.0000
  C   C2235     1.0  0.79821  0.27090  0.16120  1.0000
  C   C2236     1.0  0.79513  0.29400  0.14559  1.0000
  H   H1794     1.0  0.81116  0.11419  0.43083  1.0000
  H   H1795     1.0  0.79092  0.36044  0.13136  1.0000
  C   C2237     1.0  0.00039  0.19272  0.40412  1.0000
  C   C2238     1.0  0.99068  0.21979  0.36546  1.0000
  C   C2239     1.0  0.96869  0.22679  0.29067  1.0000
  H   H1796     1.0  0.78874  0.49089  0.18080  1.0000
  H   H1797     1.0  0.81630  0.26474  0.16880  1.0000
  H   H1798     1.0  0.81078  0.30575  0.14089  1.0000
  H   H1799     1.0  0.76453  0.29878  0.08729  1.0000
  H   H1800     1.0  0.87901  0.23451  0.17512  1.0000
  H   H1801     1.0  0.94583  0.30511  0.43809  1.0000
  C   C2240     1.0  0.76404  0.16405  0.50443  1.0000
  C   C2241     1.0  0.80552  0.30271  0.25771  1.0000
  C   C2242     1.0  0.82753  0.31517  0.25638  1.0000
  C   C2243     1.0  0.77178  0.30212  0.13594  1.0000
  H   H1802     1.0  0.82703  0.33227  0.26582  1.0000
  C   C2244     1.0  0.95181  0.33324  0.49720  1.0000
  C   C2245     1.0  0.77033  0.03598  0.43821  1.0000
  H   H1803     1.0  0.98012  0.24101  0.28012  1.0000
  H   H1804     1.0  0.78045  0.23760  0.17862  1.0000
  C   C2246     1.0  0.83268  0.27164  0.49660  1.0000
  C   C2247     1.0  0.99308  0.39551  0.32346  1.0000
  C   C2248     1.0  0.94534  0.42955  0.50536  1.0000
  H   H1805     1.0  0.77479  0.12328  0.40487  1.0000
  C   C2249     1.0  0.98539  0.45215  0.35800  1.0000
  C   C2250     1.0  0.88865  0.23639  0.22477  1.0000
  H   H1806     1.0  0.80007  0.15618  0.48161  1.0000
  H   H1807     1.0  0.86663  0.31570  0.18097  1.0000
  H   H1808     1.0  0.82922  0.25377  0.22301  1.0000
  H   H1809     1.0  0.96244  0.37395  0.45557  1.0000
  H   H1810     1.0  0.96950  0.29861  0.48283  1.0000
  H   H1811     1.0  0.94967  0.00989  0.42121  1.0000
  C   C2251     1.0  0.00628  0.20021  0.37801  1.0000
  H   H1812     1.0  0.93312  0.33114  0.49177  1.0000
  H   H1813     1.0  0.99106  0.33739  0.33254  1.0000
  C   C2252     1.0  0.77801  0.25568  0.16674  1.0000
  H   H1814     1.0  0.86151  0.42236  0.38218  1.0000
  C   C2253     1.0  0.97820  0.28034  0.31655  1.0000
  C   C2254     1.0  0.75906  0.42167  0.05652  1.0000
  C   C2255     1.0  0.99662  0.31762  0.49938  1.0000
  H   H1815     1.0  0.84622  0.50712  0.04617  1.0000
  C   C2256     1.0  0.94086  0.18791  0.31624  1.0000
  C   C2257     1.0  0.76362  0.45622  0.13491  1.0000
  C   C2258     1.0  0.97245  0.31493  0.49217  1.0000
  C   C2259     1.0  0.99827  0.46099  0.33462  1.0000
  C   C2260     1.0  0.96713  0.45989  0.01224  1.0000
  H   H1816     1.0  0.78098  0.21159  0.33633  1.0000
  C   C2261     1.0  0.97124  0.46947  0.37370  1.0000
  C   C2262     1.0  0.87422  0.22354  0.24526  1.0000
  C   C2263     1.0  0.79834  0.49979  0.02145  1.0000
  C   C2264     1.0  0.96015  0.04495  0.40038  1.0000
  H   H1817     1.0  0.77184  0.10449  0.25436  1.0000
  H   H1818     1.0  0.76974  0.32014  0.12397  1.0000
  C   C2265     1.0  0.96328  0.48319  0.44386  1.0000
  H   H1819     1.0  0.93448  0.05357  0.50344  1.0000
  C   C2266     1.0  0.87379  0.10136  0.48759  1.0000
  C   C2267     1.0  0.96461  0.50312  0.07574  1.0000
  C   C2268     1.0  0.83368  0.24737  0.48851  1.0000
  H   H1820     1.0  0.86404  0.43761  0.42410  1.0000
  C   C2269     1.0  0.97916  0.20480  0.41779  1.0000
  C   C2270     1.0  0.89961  0.43064  0.36721  1.0000
  C   C2271     1.0  0.99562  0.47611  0.23318  1.0000
  C   C2272     1.0  0.79211  0.11119  0.43963  1.0000
  C   C2273     1.0  0.76334  0.09903  0.47700  1.0000
  C   C2274     1.0  0.95825  0.19828  0.32884  1.0000
  H   H1821     1.0  0.84326  0.30994  0.48701  1.0000
  C   C2275     1.0  0.86769  0.29953  0.17001  1.0000
  H   H1822     1.0  0.93277  0.18666  0.20994  1.0000
  H   H1823     1.0  0.86174  0.28681  0.10971  1.0000
  H   H1824     1.0  0.93029  0.17255  0.32592  1.0000
  C   C2276     1.0  0.87042  0.25840  0.14106  1.0000
  H   H1825     1.0  0.83120  0.50548  0.18209  1.0000
  C   C2277     1.0  0.78274  0.35576  0.17242  1.0000
  H   H1826     1.0  0.95265  0.32226  0.18714  1.0000
  H   H1827     1.0  0.85903  0.32322  0.13553  1.0000
  C   C2278     1.0  0.95629  0.43890  0.05471  1.0000
  H   H1828     1.0  0.85838  0.23345  0.25610  1.0000
  C   C2279     1.0  0.90112  0.18407  0.23929  1.0000
  C   C2280     1.0  0.85036  0.30545  0.24323  1.0000
  C   C2281     1.0  0.84434  0.29102  0.48090  1.0000
  C   C2282     1.0  0.93040  0.44571  0.05214  1.0000
  C   C2283     1.0  0.85027  0.44606  0.16456  1.0000
  C   C2284     1.0  0.85196  0.47038  0.17146  1.0000
  C   C2285     1.0  0.82973  0.48648  0.17720  1.0000
  C   C2286     1.0  0.80577  0.47818  0.17632  1.0000
  C   C2287     1.0  0.80397  0.45377  0.16932  1.0000
  C   C2288     1.0  0.82640  0.43799  0.16298  1.0000
  H   H1829     1.0  0.77707  0.44540  0.22035  1.0000
  C   C2289     1.0  0.97040  0.49578  0.36570  1.0000
  H   H1830     1.0  0.92211  0.23281  0.19724  1.0000
  C   C2290     1.0  0.90253  0.44788  0.41444  1.0000
  H   H1831     1.0  0.89507  0.48852  0.49748  1.0000
  P   P74       1.0  0.88047  0.26982  0.21441  1.0000
  H   H1832     1.0  0.94787  0.22388  0.25873  1.0000
  C   C2291     1.0  0.86330  0.30385  0.14428  1.0000
  C   C2292     1.0  0.86047  0.11426  0.44535  1.0000
  H   H1833     1.0  0.91188  0.37612  0.44453  1.0000
  C   C2293     1.0  0.94109  0.46683  0.00948  1.0000
  C   C2294     1.0  0.00014  0.11971  0.34120  1.0000
  C   C2295     1.0  0.92277  0.45946  0.02961  1.0000
  C   C2296     1.0  0.92117  0.49895  0.32215  1.0000
  C   C2297     1.0  0.00814  0.29507  0.41789  1.0000
  C   C2298     1.0  0.96575  0.10305  0.32334  1.0000
  H   H1834     1.0  0.93278  0.46027  0.31377  1.0000
  C   C2299     1.0  0.99735  0.10851  0.42977  1.0000
  H   H1835     1.0  0.86751  0.43356  0.15999  1.0000
  H   H1836     1.0  0.87054  0.47690  0.17191  1.0000
  C   C2300     1.0  0.78808  0.10244  0.46556  1.0000
  C   C2301     1.0  0.79012  0.16569  0.49753  1.0000
  H   H1837     1.0  0.82562  0.41954  0.15663  1.0000
  H   H1838     1.0  0.76659  0.43988  0.05099  1.0000
  C   C2302     1.0  0.96931  0.23176  0.37931  1.0000
  H   H1839     1.0  0.94733  0.23387  0.41597  1.0000
  H   H1840     1.0  0.00697  0.49391  0.30855  1.0000
  H   H1841     1.0  0.97897  0.46854  0.44672  1.0000
  C   C2303     1.0  0.99727  0.48718  0.32681  1.0000
  C   C2304     1.0  0.97244  0.38919  0.44488  1.0000
  H   H1842     1.0  0.79642  0.47750  0.12302  1.0000
  C   C2305     1.0  0.95083  0.21676  0.27831  1.0000
  H   H1843     1.0  0.92245  0.41158  0.48316  1.0000
  H   H1844     1.0  0.82376  0.18062  0.50615  1.0000
  H   H1845     1.0  0.90584  0.16386  0.24492  1.0000
  H   H1846     1.0  0.81506  0.32611  0.03251  1.0000
  H   H1847     1.0  0.98742  0.14396  0.37112  1.0000
  C   C2306     1.0  0.87419  0.27463  0.18131  1.0000
  P   P75       1.0  0.99659  0.22950  0.33167  1.0000
  C   C2307     1.0  0.83128  0.28904  0.36742  1.0000
  C   C2308     1.0  0.82029  0.26855  0.36044  1.0000
  C   C2309     1.0  0.82661  0.24379  0.37184  1.0000
  C   C2310     1.0  0.84409  0.23945  0.39007  1.0000
  C   C2311     1.0  0.85599  0.25983  0.39641  1.0000
  C   C2312     1.0  0.84898  0.28476  0.38545  1.0000
  P   P76       1.0  0.87841  0.25444  0.42007  1.0000
  C   C2313     1.0  0.86007  0.26122  0.44981  1.0000
  C   C2314     1.0  0.89405  0.22227  0.42043  1.0000
  C   C2315     1.0  0.89915  0.20746  0.44346  1.0000
  C   C2316     1.0  0.91078  0.18238  0.44320  1.0000
  C   C2317     1.0  0.91807  0.17222  0.41997  1.0000
  C   C2318     1.0  0.91411  0.18728  0.39698  1.0000
  C   C2319     1.0  0.90221  0.21219  0.39717  1.0000
  C   C2320     1.0  0.99918  0.10271  0.45599  1.0000
  C   C2321     1.0  0.84703  0.24223  0.46501  1.0000
  C   C2322     1.0  0.90392  0.27466  0.41149  1.0000
  C   C2323     1.0  0.91213  0.28135  0.38568  1.0000
  C   C2324     1.0  0.93206  0.29673  0.37886  1.0000
  C   C2325     1.0  0.94397  0.30558  0.39769  1.0000
  C   C2326     1.0  0.93647  0.29837  0.42349  1.0000
  C   C2327     1.0  0.91671  0.28267  0.43040  1.0000
  H   H1848     1.0  0.82626  0.30829  0.35877  1.0000
  H   H1849     1.0  0.80705  0.27178  0.34602  1.0000
  H   H1850     1.0  0.81822  0.22787  0.36629  1.0000
  H   H1851     1.0  0.84836  0.22015  0.39899  1.0000
  H   H1852     1.0  0.85723  0.30094  0.39067  1.0000
  C   C2328     1.0  0.93500  0.48029  0.30810  1.0000
  H   H1853     1.0  0.92648  0.15259  0.41979  1.0000
  H   H1854     1.0  0.91967  0.17952  0.37895  1.0000
  H   H1855     1.0  0.89900  0.22345  0.37913  1.0000
  H   H1856     1.0  0.94050  0.29725  0.26737  1.0000
  H   H1857     1.0  0.84741  0.22337  0.45890  1.0000
  H   H1858     1.0  0.90311  0.27475  0.37075  1.0000
  H   H1859     1.0  0.93803  0.30202  0.35887  1.0000
  H   H1860     1.0  0.95889  0.31810  0.39217  1.0000
  H   H1861     1.0  0.96811  0.36578  0.39105  1.0000
  H   H1862     1.0  0.95684  0.24663  0.36979  1.0000
  H   H1863     1.0  0.96225  0.31928  0.30762  1.0000
  C   C2329     1.0  0.78198  0.39668  0.14649  1.0000
  H   H1864     1.0  0.78615  0.33516  0.17410  1.0000
  H   H1865     1.0  0.97818  0.05792  0.48282  1.0000
  H   H1866     1.0  0.86617  0.30141  0.44526  1.0000
  C   C2330     1.0  0.77100  0.48176  0.09398  1.0000
  H   H1867     1.0  0.96125  0.19021  0.34812  1.0000
  H   H1868     1.0  0.97703  0.47475  0.22715  1.0000
  H   H1869     1.0  0.95590  0.48539  0.07774  1.0000
  H   H1870     1.0  0.94123  0.05497  0.40383  1.0000
  C   C2331     1.0  0.92476  0.42883  0.49135  1.0000
  C   C2332     1.0  0.97658  0.30676  0.31739  1.0000
  H   H1871     1.0  0.93801  0.41147  0.43493  1.0000
  H   H1872     1.0  0.77449  0.35715  0.21301  1.0000
  H   H1873     1.0  0.92317  0.18945  0.28176  1.0000
  C   C2333     1.0  0.93530  0.29767  0.24816  1.0000
  C   C2334     1.0  0.85135  0.28288  0.23157  1.0000
  H   H1874     1.0  0.90432  0.27474  0.25996  1.0000
  C   C2335     1.0  0.76627  0.37649  0.07065  1.0000
  C   C2336     1.0  0.76138  0.12239  0.25915  1.0000
  C   C2337     1.0  0.77551  0.02067  0.46076  1.0000
  C   C2338     1.0  0.97191  0.21829  0.31636  1.0000
  C   C2339     1.0  0.94890  0.31117  0.22776  1.0000
  C   C2340     1.0  0.82894  0.27094  0.23228  1.0000
  H   H1875     1.0  0.96458  0.32129  0.23116  1.0000
  C   C2341     1.0  0.00012  0.49740  0.24483  1.0000
  H   H1876     1.0  0.91619  0.43984  0.06748  1.0000
  C   C2342     1.0  0.87027  0.12697  0.49243  1.0000
  H   H1877     1.0  0.96204  0.42793  0.07212  1.0000
  C   C2343     1.0  0.97139  0.43002  0.41837  1.0000
  C   C2344     1.0  0.94746  0.48264  0.42449  1.0000
  H   H1878     1.0  0.97470  0.19895  0.43798  1.0000
  C   C2345     1.0  0.88013  0.43868  0.40947  1.0000
  P   P77       1.0  0.77315  0.44394  0.16602  1.0000
  C   C2346     1.0  0.93696  0.19733  0.29114  1.0000
  C   C2347     1.0  0.96374  0.22446  0.40541  1.0000
  C   C2348     1.0  0.91628  0.19694  0.21963  1.0000
  C   C2349     1.0  0.87495  0.25400  0.16680  1.0000
  H   H1879     1.0  0.97121  0.50334  0.47458  1.0000
  C   C2350     1.0  0.77604  0.36817  0.19438  1.0000
  C   C2351     1.0  0.76226  0.02518  0.41817  1.0000
  H   H1880     1.0  0.78187  0.02911  0.47624  1.0000
  H   H1881     1.0  0.97534  0.07716  0.37733  1.0000
  H   H1882     1.0  0.75851  0.03708  0.40057  1.0000
  C   C2352     1.0  0.99819  0.42810  0.41640  1.0000
  C   C2353     1.0  0.99619  0.26389  0.32962  1.0000
  H   H1883     1.0  0.80199  0.48652  0.03815  1.0000
  C   C2354     1.0  0.77558  0.40939  0.16855  1.0000
  H   H1884     1.0  0.77005  0.34253  0.02743  1.0000
  C   C2355     1.0  0.77862  0.47238  0.11800  1.0000
  H   H1885     1.0  0.00006  0.40357  0.30453  1.0000
  C   C2356     1.0  0.00353  0.04448  0.38005  1.0000
  H   H1886     1.0  0.78490  0.40730  0.12776  1.0000
  H   H1887     1.0  0.91530  0.50247  0.40597  1.0000
  C   C2357     1.0  0.80885  0.33052  0.01354  1.0000
  S   S312      1.0  0.88679  0.37430  0.49610  1.0000
  C   C2358     1.0  0.99265  0.31695  0.33166  1.0000
  H   H1888     1.0  0.98099  0.12052  0.42301  1.0000
  H   H1889     1.0  0.90828  0.49341  0.33882  1.0000
  C   C2359     1.0  0.90657  0.44999  0.48864  1.0000
  C   C2360     1.0  0.96511  0.01939  0.41033  1.0000
  H   H1890     1.0  0.78279  0.49402  0.08103  1.0000
  H   H1891     1.0  0.76821  0.40386  0.20992  1.0000
  H   H1892     1.0  0.76443  0.11371  0.29950  1.0000
  H   H1893     1.0  0.00248  0.30932  0.40261  1.0000
  H   H1894     1.0  0.98818  0.49563  0.04093  1.0000
  H   H1895     1.0  0.00801  0.26316  0.39629  1.0000
  Fe  Fe157     1.0  0.89459  0.11016  0.59508  1.0000
  S   S313      1.0  0.89965  0.12576  0.55403  1.0000
  S   S314      1.0  0.92887  0.10081  0.61870  1.0000
  Fe  Fe158     1.0  0.83592  0.10686  0.59397  1.0000
  S   S315      1.0  0.83738  0.12242  0.55284  1.0000
  S   S316      1.0  0.79833  0.09394  0.61530  1.0000
  Fe  Fe159     1.0  0.87400  0.09699  0.54766  1.0000
  C   C2361     1.0  0.99560  0.28364  0.65702  1.0000
  Fe  Fe160     1.0  0.86274  0.14997  0.56247  1.0000
  S   S317      1.0  0.86038  0.18883  0.54053  1.0000
  S   S318      1.0  0.87130  0.07888  0.58819  1.0000
  S   S319      1.0  0.85893  0.13686  0.60453  1.0000
  Fe  Fe161     1.0  0.91991  0.32766  0.57210  1.0000
  S   S320      1.0  0.90906  0.36969  0.56383  1.0000
  S   S321      1.0  0.96075  0.31037  0.56922  1.0000
  Fe  Fe162     1.0  0.86467  0.31669  0.58119  1.0000
  S   S322      1.0  0.85000  0.35795  0.57225  1.0000
  S   S323      1.0  0.83896  0.28692  0.59887  1.0000
  Fe  Fe163     1.0  0.88137  0.35799  0.53885  1.0000
  C   C2362     1.0  0.00095  0.09418  0.63898  1.0000
  Fe  Fe164     1.0  0.87924  0.36487  0.59795  1.0000
  S   S324      1.0  0.86975  0.38938  0.63177  1.0000
  S   S325      1.0  0.89367  0.31604  0.54662  1.0000
  S   S326      1.0  0.89257  0.32364  0.60741  1.0000
  Fe  Fe165     1.0  0.83368  0.39489  0.81778  1.0000
  S   S327      1.0  0.85106  0.35436  0.81712  1.0000
  S   S328      1.0  0.79131  0.40750  0.82028  1.0000
  Fe  Fe166     1.0  0.88559  0.41439  0.81464  1.0000
  S   S329      1.0  0.90643  0.37519  0.81340  1.0000
  S   S330      1.0  0.90768  0.44864  0.81073  1.0000
  Fe  Fe167     1.0  0.87891  0.37020  0.78524  1.0000
  S   S331      1.0  0.88988  0.35098  0.74827  1.0000
  Fe  Fe168     1.0  0.87625  0.36396  0.84539  1.0000
  S   S332      1.0  0.88479  0.33756  0.88166  1.0000
  S   S333      1.0  0.86026  0.41030  0.78473  1.0000
  S   S334      1.0  0.85694  0.40348  0.84771  1.0000
  C   C2363     1.0  0.88643  0.34168  0.91448  1.0000
  C   C2364     1.0  0.89966  0.32190  0.92919  1.0000
  C   C2365     1.0  0.90192  0.32340  0.95509  1.0000
  H   H1896     1.0  0.78528  0.08220  0.66858  1.0000
  C   C2366     1.0  0.87640  0.36421  0.95303  1.0000
  C   C2367     1.0  0.87493  0.36308  0.92647  1.0000
  H   H1897     1.0  0.90862  0.30525  0.92039  1.0000
  H   H1898     1.0  0.91276  0.30796  0.96573  1.0000
  H   H1899     1.0  0.86484  0.37855  0.91528  1.0000
  C   C2368     1.0  0.89928  0.46778  0.83579  1.0000
  C   C2369     1.0  0.90408  0.49343  0.83204  1.0000
  C   C2370     1.0  0.00558  0.45240  0.88055  1.0000
  C   C2371     1.0  0.87678  0.47449  0.87743  1.0000
  C   C2372     1.0  0.88652  0.45813  0.85893  1.0000
  H   H1900     1.0  0.77158  0.14429  0.65842  1.0000
  C   C2373     1.0  0.89029  0.34433  0.96745  1.0000
  H   H1901     1.0  0.88419  0.43810  0.86265  1.0000
  C   C2374     1.0  0.87460  0.37852  0.66438  1.0000
  C   C2375     1.0  0.88562  0.35382  0.67153  1.0000
  C   C2376     1.0  0.88991  0.34583  0.69720  1.0000
  C   C2377     1.0  0.88283  0.36221  0.71639  1.0000
  C   C2378     1.0  0.87123  0.38684  0.70946  1.0000
  C   C2379     1.0  0.86733  0.39495  0.68360  1.0000
  H   H1902     1.0  0.89082  0.34090  0.65718  1.0000
  H   H1903     1.0  0.89895  0.32683  0.70226  1.0000
  H   H1904     1.0  0.86569  0.39978  0.72390  1.0000
  H   H1905     1.0  0.85864  0.41407  0.67851  1.0000
  C   C2380     1.0  0.00306  0.17138  0.64730  1.0000
  H   H1906     1.0  0.86633  0.46709  0.89503  1.0000
  C   C2381     1.0  0.85493  0.21527  0.55785  1.0000
  C   C2382     1.0  0.86096  0.23884  0.54531  1.0000
  C   C2383     1.0  0.85610  0.26077  0.55798  1.0000
  C   C2384     1.0  0.84518  0.25923  0.58329  1.0000
  C   C2385     1.0  0.83904  0.23561  0.59602  1.0000
  C   C2386     1.0  0.84410  0.21348  0.58332  1.0000
  H   H1907     1.0  0.86961  0.24011  0.52573  1.0000
  H   H1908     1.0  0.86023  0.27896  0.54788  1.0000
  H   H1909     1.0  0.83042  0.23443  0.61560  1.0000
  H   H1910     1.0  0.83933  0.19524  0.59301  1.0000
  C   C2387     1.0  0.77582  0.41065  0.99810  1.0000
  C   C2388     1.0  0.95621  0.49908  0.96174  1.0000
  H   H1911     1.0  0.79202  0.46220  0.80572  1.0000
  C   C2389     1.0  0.78602  0.15825  0.62030  1.0000
  H   H1912     1.0  0.82286  0.47689  0.99580  1.0000
  C   C2390     1.0  0.89194  0.48782  0.74844  1.0000
  H   H1913     1.0  0.82673  0.48903  0.68457  1.0000
  H   H1914     1.0  0.94598  0.35264  0.90565  1.0000
  C   C2391     1.0  0.96699  0.34638  0.60017  1.0000
  C   C2392     1.0  0.97901  0.32909  0.58349  1.0000
  C   C2393     1.0  0.96693  0.43166  0.61494  1.0000
  H   H1915     1.0  0.76706  0.23237  0.60530  1.0000
  H   H1916     1.0  0.97232  0.37370  0.62543  1.0000
  H   H1917     1.0  0.94645  0.34805  0.60453  1.0000
  H   H1918     1.0  0.77532  0.38706  0.88640  1.0000
  C   C2394     1.0  0.81853  0.33352  0.96752  1.0000
  H   H1919     1.0  0.99733  0.50600  0.62902  1.0000
  C   C2395     1.0  0.97572  0.12063  0.59871  1.0000
  C   C2396     1.0  0.96193  0.10540  0.61798  1.0000
  C   C2397     1.0  0.97484  0.09257  0.63813  1.0000
  H   H1920     1.0  0.83495  0.46048  0.81935  1.0000
  H   H1921     1.0  0.96606  0.13083  0.58306  1.0000
  H   H1922     1.0  0.96462  0.08086  0.65318  1.0000
  C   C2398     1.0  0.77829  0.04659  0.69102  1.0000
  C   C2399     1.0  0.85017  0.46942  0.65547  1.0000
  C   C2400     1.0  0.89079  0.47159  0.68451  1.0000
  C   C2401     1.0  0.95088  0.37047  0.89489  1.0000
  C   C2402     1.0  0.87995  0.50051  0.87283  1.0000
  H   H1923     1.0  0.77973  0.29792  0.93881  1.0000
  S   S335      1.0  0.89550  0.34441  0.00032  1.0000
  H   H1924     1.0  0.84904  0.49864  0.83398  1.0000
  P   P78       1.0  0.78396  0.35266  0.93248  1.0000
  H   H1925     1.0  0.94539  0.37375  0.75302  1.0000
  C   C2403     1.0  0.79576  0.38279  0.91993  1.0000
  C   C2404     1.0  0.78851  0.39513  0.89654  1.0000
  C   C2405     1.0  0.79900  0.41745  0.88563  1.0000
  C   C2406     1.0  0.81683  0.42754  0.89790  1.0000
  C   C2407     1.0  0.84577  0.48083  0.67824  1.0000
  C   C2408     1.0  0.81264  0.39384  0.93284  1.0000
  H   H1926     1.0  0.94915  0.49229  0.56714  1.0000
  P   P79       1.0  0.78437  0.35494  0.73535  1.0000
  H   H1927     1.0  0.80708  0.43639  0.68685  1.0000
  C   C2409     1.0  0.89510  0.46089  0.66118  1.0000
  H   H1928     1.0  0.80873  0.43150  0.98930  1.0000
  C   C2410     1.0  0.79796  0.32734  0.91366  1.0000
  C   C2411     1.0  0.81548  0.33211  0.89204  1.0000
  C   C2412     1.0  0.82690  0.31200  0.87841  1.0000
  C   C2413     1.0  0.82105  0.28706  0.88626  1.0000
  C   C2414     1.0  0.80390  0.28210  0.90794  1.0000
  C   C2415     1.0  0.79261  0.30211  0.92176  1.0000
  H   H1929     1.0  0.79016  0.30086  0.56186  1.0000
  H   H1930     1.0  0.82832  0.35604  0.69585  1.0000
  H   H1931     1.0  0.00483  0.40697  0.56160  1.0000
  C   C2416     1.0  0.96365  0.41605  0.86644  1.0000
  C   C2417     1.0  0.77562  0.34620  0.98616  1.0000
  C   C2418     1.0  0.82634  0.32733  0.99201  1.0000
  H   H1932     1.0  0.94721  0.41246  0.77463  1.0000
  H   H1933     1.0  0.82568  0.44425  0.88888  1.0000
  H   H1934     1.0  0.93275  0.37819  0.70914  1.0000
  C   C2419     1.0  0.98274  0.29783  0.67630  1.0000
  C   C2420     1.0  0.97188  0.38190  0.90015  1.0000
  C   C2421     1.0  0.96501  0.49935  0.55451  1.0000
  C   C2422     1.0  0.94182  0.41435  0.75533  1.0000
  C   C2423     1.0  0.76517  0.33976  0.84851  1.0000
  H   H1935     1.0  0.88313  0.47014  0.75023  1.0000
  C   C2424     1.0  0.98272  0.08199  0.53880  1.0000
  C   C2425     1.0  0.77627  0.45099  0.97132  1.0000
  H   H1936     1.0  0.83019  0.27155  0.87578  1.0000
  H   H1937     1.0  0.79963  0.26270  0.91422  1.0000
  C   C2426     1.0  0.82212  0.47798  0.81984  1.0000
  C   C2427     1.0  0.82263  0.29971  0.79711  1.0000
  H   H1938     1.0  0.98952  0.20051  0.71657  1.0000
  H   H1939     1.0  0.91227  0.40944  0.60339  1.0000
  H   H1940     1.0  0.91883  0.42830  0.99383  1.0000
  H   H1941     1.0  0.81167  0.30383  0.64587  1.0000
  C   C2428     1.0  0.97361  0.03157  0.60836  1.0000
  C   C2429     1.0  0.99176  0.41227  0.97058  1.0000
  C   C2430     1.0  0.90921  0.49440  0.72706  1.0000
  C   C2431     1.0  0.00524  0.50479  0.86397  1.0000
  C   C2432     1.0  0.92695  0.44131  0.71834  1.0000
  C   C2433     1.0  0.76739  0.15649  0.64118  1.0000
  H   H1942     1.0  0.83944  0.33458  0.65673  1.0000
  C   C2434     1.0  0.79740  0.49967  0.90223  1.0000
  C   C2435     1.0  0.76710  0.10052  0.60474  1.0000
  C   C2436     1.0  0.93528  0.43861  0.74287  1.0000
  C   C2437     1.0  0.79613  0.30165  0.79694  1.0000
  P   P80       1.0  0.97283  0.45109  0.53746  1.0000
  H   H1943     1.0  0.79385  0.42657  0.86727  1.0000
  C   C2438     1.0  0.94276  0.40450  0.86121  1.0000
  H   H1944     1.0  0.93637  0.45508  0.75279  1.0000
  H   H1945     1.0  0.91416  0.45359  0.65397  1.0000
  C   C2439     1.0  0.97801  0.40517  0.88642  1.0000
  H   H1946     1.0  0.98171  0.46475  0.99696  1.0000
  C   C2440     1.0  0.97550  0.44115  0.58999  1.0000
  H   H1947     1.0  0.97186  0.45334  0.69240  1.0000
  P   P81       1.0  0.91737  0.47275  0.70275  1.0000
  H   H1948     1.0  0.97583  0.40851  0.98487  1.0000
  C   C2441     1.0  0.96767  0.47005  0.67905  1.0000
  H   H1949     1.0  0.83686  0.42404  0.93143  1.0000
  C   C2442     1.0  0.78889  0.43104  0.98636  1.0000
  C   C2443     1.0  0.77429  0.27527  0.54071  1.0000
  C   C2444     1.0  0.95809  0.07885  0.55055  1.0000
  H   H1950     1.0  0.98530  0.15588  0.68355  1.0000
  H   H1951     1.0  0.99190  0.26839  0.62159  1.0000
  C   C2445     1.0  0.00028  0.43056  0.52546  1.0000
  H   H1952     1.0  0.77320  0.32039  0.85384  1.0000
  H   H1953     1.0  0.90389  0.02463  0.53173  1.0000
  H   H1954     1.0  0.98896  0.24396  0.69390  1.0000
  C   C2446     1.0  0.81004  0.49427  0.99746  1.0000
  C   C2447     1.0  0.93630  0.38185  0.87548  1.0000
  H   H1955     1.0  0.76928  0.12620  0.77720  1.0000
  C   C2448     1.0  0.86596  0.48186  0.69278  1.0000
  C   C2449     1.0  0.80840  0.42130  0.75091  1.0000
  C   C2450     1.0  0.79625  0.38584  0.73166  1.0000
  H   H1956     1.0  0.78671  0.46673  0.96292  1.0000
  H   H1957     1.0  0.93093  0.49000  0.52252  1.0000
  H   H1958     1.0  0.95225  0.08467  0.56946  1.0000
  H   H1959     1.0  0.92158  0.06651  0.54690  1.0000
  H   H1960     1.0  0.80170  0.35378  0.83807  1.0000
  C   C2451     1.0  0.80534  0.42533  0.70543  1.0000
  C   C2452     1.0  0.98226  0.49968  0.64321  1.0000
  C   C2453     1.0  0.79255  0.33935  0.70655  1.0000
  H   H1961     1.0  0.89122  0.50218  0.94559  1.0000
  C   C2454     1.0  0.80158  0.39636  0.75322  1.0000
  H   H1962     1.0  0.93763  0.41243  0.63896  1.0000
  C   C2455     1.0  0.78051  0.17300  0.59754  1.0000
  C   C2456     1.0  0.76473  0.19030  0.53893  1.0000
  C   C2457     1.0  0.78428  0.30848  0.67894  1.0000
  C   C2458     1.0  0.93838  0.42776  0.57469  1.0000
  C   C2459     1.0  0.78433  0.31821  0.77819  1.0000
  H   H1963     1.0  0.81159  0.42961  0.76779  1.0000
  C   C2460     1.0  0.00632  0.23107  0.69212  1.0000
  C   C2461     1.0  0.78178  0.28302  0.56274  1.0000
  H   H1964     1.0  0.93178  0.41285  0.84576  1.0000
  P   P82       1.0  0.93108  0.48153  0.97911  1.0000
  C   C2462     1.0  0.83732  0.31430  0.77849  1.0000
  H   H1965     1.0  0.77245  0.29465  0.67440  1.0000
  C   C2463     1.0  0.94080  0.06851  0.53787  1.0000
  H   H1966     1.0  0.84084  0.31572  0.86211  1.0000
  C   C2464     1.0  0.93358  0.39512  0.71846  1.0000
  H   H1967     1.0  0.83711  0.34286  0.74611  1.0000
  H   H1968     1.0  0.98355  0.27484  0.53119  1.0000
  H   H1969     1.0  0.96506  0.46123  0.89087  1.0000
  C   C2465     1.0  0.98252  0.27929  0.63669  1.0000
  C   C2466     1.0  0.95710  0.28939  0.63548  1.0000
  C   C2467     1.0  0.94476  0.30418  0.65422  1.0000
  C   C2468     1.0  0.95746  0.30831  0.67472  1.0000
  H   H1970     1.0  0.97015  0.41107  0.93920  1.0000
  C   C2469     1.0  0.96134  0.43911  0.56965  1.0000
  C   C2470     1.0  0.79768  0.40070  0.70779  1.0000
  C   C2471     1.0  0.78138  0.35868  0.83944  1.0000
  C   C2472     1.0  0.98031  0.48345  0.53806  1.0000
  H   H1971     1.0  0.79524  0.17358  0.58157  1.0000
  H   H1972     1.0  0.83251  0.33126  0.95104  1.0000
  C   C2473     1.0  0.90282  0.50398  0.98326  1.0000
  C   C2474     1.0  0.80646  0.31350  0.66293  1.0000
  H   H1973     1.0  0.83181  0.28691  0.81162  1.0000
  C   C2475     1.0  0.79095  0.19180  0.53183  1.0000
  C   C2476     1.0  0.92980  0.41851  0.59968  1.0000
  C   C2477     1.0  0.77289  0.07267  0.68359  1.0000
  C   C2478     1.0  0.99966  0.33867  0.51204  1.0000
  C   C2479     1.0  0.98714  0.47817  0.66069  1.0000
  H   H1974     1.0  0.94712  0.28637  0.61963  1.0000
  H   H1975     1.0  0.92533  0.31239  0.65275  1.0000
  H   H1976     1.0  0.94775  0.31976  0.68928  1.0000
  H   H1977     1.0  0.77768  0.12647  0.57175  1.0000
  H   H1978     1.0  0.92705  0.42575  0.55950  1.0000
  C   C2480     1.0  0.98272  0.46866  0.88269  1.0000
  C   C2481     1.0  0.00041  0.49346  0.52166  1.0000
  C   C2482     1.0  0.94087  0.39260  0.74317  1.0000
  H   H1979     1.0  0.86207  0.49103  0.71016  1.0000
  H   H1980     1.0  0.82091  0.35111  0.88585  1.0000
  C   C2483     1.0  0.94816  0.06106  0.51345  1.0000
  C   C2484     1.0  0.78101  0.50173  0.81264  1.0000
  C   C2485     1.0  0.00220  0.12257  0.59978  1.0000
  C   C2486     1.0  0.77745  0.32115  0.70082  1.0000
  C   C2487     1.0  0.99686  0.49951  0.93507  1.0000
  C   C2488     1.0  0.92637  0.41930  0.70617  1.0000
  C   C2489     1.0  0.98873  0.41331  0.94460  1.0000
  H   H1981     1.0  0.80455  0.14745  0.62147  1.0000
  C   C2490     1.0  0.77935  0.48425  0.91539  1.0000
  C   C2491     1.0  0.94313  0.48340  0.67995  1.0000
  H   H1982     1.0  0.99346  0.44949  0.58646  1.0000
  H   H1983     1.0  0.83454  0.46837  0.64431  1.0000
  H   H1984     1.0  0.97840  0.43239  0.63040  1.0000
  C   C2492     1.0  0.92477  0.45659  0.96093  1.0000
  C   C2493     1.0  0.91948  0.43249  0.97330  1.0000
  C   C2494     1.0  0.91472  0.41325  0.95921  1.0000
  C   C2495     1.0  0.91476  0.41794  0.93271  1.0000
  C   C2496     1.0  0.91996  0.44182  0.92022  1.0000
  C   C2497     1.0  0.92502  0.46107  0.93422  1.0000
  H   H1985     1.0  0.81831  0.38507  0.95109  1.0000
  H   H1986     1.0  0.97276  0.21058  0.60234  1.0000
  C   C2498     1.0  0.00005  0.23869  0.54778  1.0000
  C   C2499     1.0  0.98161  0.36103  0.61190  1.0000
  H   H1987     1.0  0.85792  0.31273  0.77843  1.0000
  H   H1988     1.0  0.97822  0.46572  0.94763  1.0000
  H   H1989     1.0  0.79289  0.39336  0.69097  1.0000
  H   H1990     1.0  0.98346  0.37241  0.91474  1.0000
  C   C2500     1.0  0.82549  0.33146  0.76023  1.0000
  C   C2501     1.0  0.81068  0.43563  0.72701  1.0000
  H   H1991     1.0  0.78517  0.27339  0.60287  1.0000
  C   C2502     1.0  0.97889  0.35678  0.51728  1.0000
  H   H1992     1.0  0.91090  0.39467  0.96899  1.0000
  H   H1993     1.0  0.91070  0.40307  0.92191  1.0000
  H   H1994     1.0  0.91992  0.44541  0.89966  1.0000
  H   H1995     1.0  0.92878  0.47955  0.92421  1.0000
  C   C2503     1.0  0.79890  0.33377  0.76010  1.0000
  H   H1996     1.0  0.82322  0.27531  0.51521  1.0000
  C   C2504     1.0  0.82212  0.33081  0.66906  1.0000
  H   H1997     1.0  0.92008  0.42048  0.68740  1.0000
  C   C2505     1.0  0.79309  0.34314  0.96438  1.0000
  H   H1998     1.0  0.81637  0.45477  0.72534  1.0000
  H   H1999     1.0  0.79487  0.03603  0.68173  1.0000
  C   C2506     1.0  0.82318  0.41610  0.92178  1.0000
  C   C2507     1.0  0.97711  0.48615  0.94809  1.0000
  C   C2508     1.0  0.94802  0.45158  0.51669  1.0000
  H   H2000     1.0  0.96873  0.43312  0.85447  1.0000
  H   H2001     1.0  0.86734  0.38060  0.96215  1.0000
  C   C2509     1.0  0.87485  0.45947  0.64694  1.0000
  C   C2510     1.0  0.97517  0.19910  0.62034  1.0000
  H   H2002     1.0  0.87825  0.45047  0.62934  1.0000
  C   C2511     1.0  0.81549  0.34329  0.69105  1.0000
  H   H2003     1.0  0.80190  0.20224  0.54229  1.0000
  C   C2512     1.0  0.89090  0.14157  0.65768  1.0000
  C   C2513     1.0  0.86513  0.14982  0.66369  1.0000
  C   C2514     1.0  0.85639  0.17564  0.65879  1.0000
  C   C2515     1.0  0.87358  0.19331  0.64871  1.0000
  C   C2516     1.0  0.89975  0.18534  0.64356  1.0000
  C   C2517     1.0  0.90806  0.15912  0.64711  1.0000
  P   P83       1.0  0.92217  0.20859  0.63214  1.0000
  C   C2518     1.0  0.91152  0.23652  0.64863  1.0000
  C   C2519     1.0  0.95421  0.19563  0.63887  1.0000
  H   H2004     1.0  0.99225  0.30094  0.69248  1.0000
  C   C2520     1.0  0.77893  0.26750  0.58593  1.0000
  C   C2521     1.0  0.77122  0.38369  0.83234  1.0000
  H   H2005     1.0  0.92023  0.37291  0.87117  1.0000
  C   C2522     1.0  0.95823  0.18059  0.66206  1.0000
  C   C2523     1.0  0.89161  0.25410  0.63992  1.0000
  C   C2524     1.0  0.88074  0.27373  0.65438  1.0000
  C   C2525     1.0  0.88988  0.27630  0.67747  1.0000
  C   C2526     1.0  0.91019  0.25942  0.68595  1.0000
  C   C2527     1.0  0.92098  0.23956  0.67163  1.0000
  C   C2528     1.0  0.92204  0.21622  0.59802  1.0000
  C   C2529     1.0  0.91847  0.19731  0.58279  1.0000
  C   C2530     1.0  0.91969  0.20282  0.55622  1.0000
  C   C2531     1.0  0.92435  0.22722  0.54470  1.0000
  C   C2532     1.0  0.92807  0.24611  0.55974  1.0000
  C   C2533     1.0  0.92715  0.24059  0.58627  1.0000
  H   H2006     1.0  0.89753  0.12140  0.66064  1.0000
  H   H2007     1.0  0.85185  0.13603  0.67130  1.0000
  H   H2008     1.0  0.83626  0.18195  0.66261  1.0000
  H   H2009     1.0  0.86624  0.21311  0.64496  1.0000
  H   H2010     1.0  0.92772  0.15201  0.64171  1.0000
  C   C2534     1.0  0.98250  0.16832  0.66611  1.0000
  H   H2011     1.0  0.98271  0.23484  0.55989  1.0000
  H   H2012     1.0  0.79994  0.38551  0.77193  1.0000
  C   C2535     1.0  0.94404  0.42039  0.61977  1.0000
  H   H2013     1.0  0.94243  0.17755  0.67665  1.0000
  H   H2014     1.0  0.88377  0.25216  0.62234  1.0000
  H   H2015     1.0  0.86499  0.28678  0.64771  1.0000
  H   H2016     1.0  0.88119  0.29140  0.68874  1.0000
  H   H2017     1.0  0.91742  0.26162  0.70376  1.0000
  H   H2018     1.0  0.93632  0.22643  0.67882  1.0000
  H   H2019     1.0  0.91470  0.17830  0.59132  1.0000
  H   H2020     1.0  0.91634  0.18829  0.54460  1.0000
  H   H2021     1.0  0.92462  0.23156  0.52418  1.0000
  H   H2022     1.0  0.93162  0.26508  0.55088  1.0000
  H   H2023     1.0  0.93049  0.25537  0.59750  1.0000
  H   H2024     1.0  0.78468  0.29029  0.81130  1.0000
  H   H2025     1.0  0.84613  0.32041  0.99430  1.0000
  C   C2536     1.0  0.76455  0.25173  0.54175  1.0000
  H   H2026     1.0  0.91460  0.50080  0.81449  1.0000
  H   H2027     1.0  0.81514  0.49123  0.89285  1.0000
  H   H2028     1.0  0.76390  0.31867  0.77797  1.0000
  C   C2537     1.0  0.76153  0.23606  0.56503  1.0000
  C   C2538     1.0  0.00063  0.26147  0.53143  1.0000
  C   C2539     1.0  0.99946  0.18698  0.62457  1.0000
  C   C2540     1.0  0.79766  0.47907  0.81209  1.0000
  C   C2541     1.0  0.98251  0.49470  0.87416  1.0000
  H   H2029     1.0  0.76679  0.01410  0.71639  1.0000
  H   H2030     1.0  0.77644  0.28735  0.52273  1.0000
  H   H2031     1.0  0.94511  0.01412  0.55002  1.0000
  C   C2542     1.0  0.00653  0.20639  0.70502  1.0000
  H   H2032     1.0  0.99550  0.09034  0.54907  1.0000
  H   H2033     1.0  0.96470  0.50710  0.87555  1.0000
  C   C2543     1.0  0.00567  0.32670  0.57836  1.0000
  H   H2034     1.0  0.00059  0.05955  0.59877  1.0000
  C   C2544     1.0  0.76242  0.03427  0.71044  1.0000
  C   C2545     1.0  0.83011  0.49945  0.82817  1.0000
  C   C2546     1.0  0.76879  0.24414  0.58716  1.0000
  H   H2035     1.0  0.87375  0.49800  0.78486  1.0000
  H   H2036     1.0  0.78350  0.46378  0.91654  1.0000
  C   C2547     1.0  0.76215  0.11752  0.58312  1.0000
  H   H2037     1.0  0.98110  0.37243  0.52790  1.0000
  S   S336      1.0  0.88149  0.07730  0.51207  1.0000
  H   H2038     1.0  0.93893  0.36811  0.51379  1.0000
  H   H2039     1.0  0.81491  0.50720  0.95721  1.0000
  H   H2040     1.0  0.00600  0.46770  0.66000  1.0000
  H   H2041     1.0  0.75938  0.24571  0.52439  1.0000
  H   H2042     1.0  0.96284  0.04166  0.62347  1.0000
  C   C2548     1.0  0.99036  0.07446  0.51427  1.0000
  C   C2549     1.0  0.93841  0.50504  0.66238  1.0000
  C   C2550     1.0  0.99479  0.04177  0.59433  1.0000
  C   C2551     1.0  0.88664  0.50351  0.76819  1.0000
  C   C2552     1.0  0.80350  0.17956  0.51125  1.0000
  P   P84       1.0  0.00603  0.41897  0.89234  1.0000
  C   C2553     1.0  0.00825  0.02923  0.57438  1.0000
  H   H2043     1.0  0.76050  0.31666  0.71331  1.0000
  C   C2554     1.0  0.92972  0.47287  0.51373  1.0000
  C   C2555     1.0  0.95506  0.35417  0.50969  1.0000
  C   C2556     1.0  0.00817  0.35919  0.60633  1.0000
  C   C2557     1.0  0.96623  0.00851  0.60284  1.0000
  H   H2044     1.0  0.87429  0.13231  0.51035  1.0000
  Fe  Fe169     1.0  0.87722  0.85003  0.35466  1.0000
  S   S337      1.0  0.87679  0.83574  0.39619  1.0000
  S   S338      1.0  0.84074  0.85194  0.33425  1.0000
  Fe  Fe170     1.0  0.93599  0.85757  0.35037  1.0000
  S   S339      1.0  0.93803  0.84465  0.39179  1.0000
  S   S340      1.0  0.97263  0.86674  0.32464  1.0000
  Fe  Fe171     1.0  0.91472  0.81372  0.38567  1.0000
  S   S341      1.0  0.92584  0.77416  0.40490  1.0000
  Fe  Fe172     1.0  0.90031  0.86793  0.39788  1.0000
  S   S342      1.0  0.89111  0.89207  0.43025  1.0000
  S   S343      1.0  0.91388  0.82538  0.34363  1.0000
  S   S344      1.0  0.89925  0.88371  0.35675  1.0000
  Fe  Fe173     1.0  0.93863  0.64515  0.34851  1.0000
  S   S345      1.0  0.90025  0.63043  0.35698  1.0000
  S   S346      1.0  0.94333  0.68589  0.33268  1.0000
  Fe  Fe174     1.0  0.96610  0.59232  0.35637  1.0000
  S   S347      1.0  0.92979  0.57341  0.36505  1.0000
  C   C2558     1.0  0.93295  0.94648  0.47920  1.0000
  Fe  Fe175     1.0  0.91660  0.60028  0.33123  1.0000
  S   S348      1.0  0.89406  0.59015  0.29984  1.0000
  Fe  Fe176     1.0  0.91726  0.60543  0.38998  1.0000
  S   S349      1.0  0.89579  0.60188  0.43060  1.0000
  S   S350      1.0  0.95406  0.61639  0.32130  1.0000
  S   S351      1.0  0.95436  0.62272  0.38292  1.0000
  C   C2559     1.0  0.00615  0.82278  0.42798  1.0000
  Fe  Fe177     1.0  0.88903  0.60253  0.14449  1.0000
  S   S352      1.0  0.85707  0.57756  0.15183  1.0000
  S   S353      1.0  0.91181  0.61077  0.17675  1.0000
  Fe  Fe178     1.0  0.88632  0.60669  0.08474  1.0000
  S   S354      1.0  0.85434  0.58186  0.08919  1.0000
  S   S355      1.0  0.90349  0.62347  0.04520  1.0000
  Fe  Fe179     1.0  0.83818  0.60441  0.12167  1.0000
  S   S356      1.0  0.79574  0.61540  0.12928  1.0000
  Fe  Fe180     1.0  0.87648  0.55779  0.11866  1.0000
  H   H2045     1.0  0.89502  0.54390  0.20766  1.0000
  S   S357      1.0  0.86887  0.63112  0.11602  1.0000
  S   S358      1.0  0.90968  0.58102  0.11247  1.0000
  C   C2560     1.0  0.77757  0.55401  0.18214  1.0000
  C   C2561     1.0  0.77911  0.63282  0.10469  1.0000
  C   C2562     1.0  0.79162  0.64328  0.08173  1.0000
  C   C2563     1.0  0.79598  0.83854  0.47591  1.0000
  H   H2046     1.0  0.92949  0.64890  0.08636  1.0000
  H   H2047     1.0  0.81228  0.64136  0.07885  1.0000
  C   C2564     1.0  0.89958  0.59597  0.26562  1.0000
  C   C2565     1.0  0.92166  0.60589  0.25302  1.0000
  C   C2566     1.0  0.92505  0.61015  0.22596  1.0000
  C   C2567     1.0  0.90650  0.60465  0.21096  1.0000
  C   C2568     1.0  0.88448  0.59465  0.22358  1.0000
  C   C2569     1.0  0.88117  0.59022  0.25062  1.0000
  H   H2048     1.0  0.93612  0.61034  0.26408  1.0000
  H   H2049     1.0  0.94213  0.61794  0.21658  1.0000
  H   H2050     1.0  0.86995  0.59039  0.21250  1.0000
  H   H2051     1.0  0.86405  0.58248  0.26000  1.0000
  C   C2570     1.0  0.90577  0.59964  0.46209  1.0000
  C   C2571     1.0  0.93112  0.59236  0.46720  1.0000
  S   S359      1.0  0.00528  0.57080  0.35608  1.0000
  H   H2052     1.0  0.86174  0.64724  0.44297  1.0000
  H   H2053     1.0  0.93574  0.53763  0.46837  1.0000
  C   C2572     1.0  0.88717  0.60375  0.48290  1.0000
  H   H2054     1.0  0.94569  0.58894  0.45154  1.0000
  H   H2055     1.0  0.93054  0.91601  0.45632  1.0000
  C   C2573     1.0  0.97891  0.77288  0.49752  1.0000
  H   H2056     1.0  0.86746  0.60915  0.47941  1.0000
  H   H2057     1.0  0.96623  0.74735  0.44478  1.0000
  C   C2574     1.0  0.93988  0.53195  0.29258  1.0000
  C   C2575     1.0  0.94009  0.93263  0.45821  1.0000
  H   H2058     1.0  0.91797  0.94054  0.49371  1.0000
  C   C2576     1.0  0.88291  0.87143  0.45753  1.0000
  C   C2577     1.0  0.88998  0.84515  0.45773  1.0000
  C   C2578     1.0  0.88313  0.82853  0.47938  1.0000
  H   H2059     1.0  0.80248  0.93523  0.47923  1.0000
  C   C2579     1.0  0.86903  0.83800  0.50075  1.0000
  C   C2580     1.0  0.86927  0.88108  0.47913  1.0000
  H   H2060     1.0  0.90140  0.83765  0.44153  1.0000
  H   H2061     1.0  0.88925  0.80834  0.47993  1.0000
  H   H2062     1.0  0.77491  0.52713  0.04296  1.0000
  H   H2063     1.0  0.86385  0.90141  0.47902  1.0000
  C   C2581     1.0  0.93069  0.74949  0.38494  1.0000
  C   C2582     1.0  0.93212  0.72391  0.39567  1.0000
  C   C2583     1.0  0.93535  0.70405  0.37987  1.0000
  C   C2584     1.0  0.93778  0.70984  0.35331  1.0000
  C   C2585     1.0  0.93657  0.73535  0.34266  1.0000
  C   C2586     1.0  0.93316  0.75510  0.35842  1.0000
  H   H2064     1.0  0.93081  0.71941  0.41614  1.0000
  H   H2065     1.0  0.93635  0.68433  0.38815  1.0000
  H   H2066     1.0  0.93844  0.73986  0.32212  1.0000
  H   H2067     1.0  0.93288  0.77460  0.34994  1.0000
  C   C2587     1.0  0.86235  0.86433  0.50076  1.0000
  C   C2588     1.0  0.79957  0.85424  0.37299  1.0000
  C   C2589     1.0  0.80762  0.85457  0.34679  1.0000
  C   C2590     1.0  0.78877  0.85683  0.32976  1.0000
  H   H2068     1.0  0.77729  0.98304  0.48080  1.0000
  H   H2069     1.0  0.81373  0.85223  0.38637  1.0000
  H   H2070     1.0  0.79468  0.85700  0.30951  1.0000
  C   C2591     1.0  0.94470  0.63540  0.09350  1.0000
  C   C2592     1.0  0.99341  0.79552  0.39921  1.0000
  H   H2071     1.0  0.98636  0.73506  0.37494  1.0000
  H   H2072     1.0  0.96120  0.93986  0.34632  1.0000
  H   H2073     1.0  0.90274  0.74103  0.44683  1.0000
  H   H2074     1.0  0.82110  0.87381  0.42414  1.0000
  H   H2075     1.0  0.91964  0.53703  0.24491  1.0000
  H   H2076     1.0  0.77184  0.95318  0.14078  1.0000
  C   C2593     1.0  0.83250  0.90802  0.40209  1.0000
  C   C2594     1.0  0.88281  0.74609  0.45294  1.0000
  H   H2077     1.0  0.76941  0.73476  0.50068  1.0000
  C   C2595     1.0  0.77723  0.65681  0.06272  1.0000
  H   H2078     1.0  0.82947  0.64063  0.01852  1.0000
  C   C2596     1.0  0.98614  0.54971  0.07034  1.0000
  H   H2079     1.0  0.96353  0.52847  0.15783  1.0000
  C   C2597     1.0  0.76167  0.93514  0.47838  1.0000
  C   C2598     1.0  0.76512  0.98336  0.44305  1.0000
  C   C2599     1.0  0.79748  0.77545  0.25433  1.0000
  P   P85       1.0  0.87725  0.69379  0.45939  1.0000
  H   H2080     1.0  0.81090  0.76617  0.47061  1.0000
  C   C2600     1.0  0.78597  0.81600  0.48695  1.0000
  H   H2081     1.0  0.87291  0.54513  0.02479  1.0000
  H   H2082     1.0  0.94035  0.86172  0.46513  1.0000
  H   H2083     1.0  0.79886  0.84259  0.45531  1.0000
  S   S360      1.0  0.88521  0.51512  0.12400  1.0000
  C   C2601     1.0  0.00553  0.86702  0.32975  1.0000
  C   C2602     1.0  0.94509  0.96802  0.48142  1.0000
  C   C2603     1.0  0.78265  0.52262  0.02401  1.0000
  C   C2604     1.0  0.92954  0.53457  0.22616  1.0000
  H   H2084     1.0  0.96949  0.61229  0.14898  1.0000
  H   H2085     1.0  0.78692  0.66585  0.04552  1.0000
  H   H2086     1.0  0.91664  0.53974  0.16417  1.0000
  C   C2605     1.0  0.97551  0.80031  0.31400  1.0000
  C   C2606     1.0  0.97420  0.78003  0.29982  1.0000
  H   H2087     1.0  0.00128  0.83472  0.44341  1.0000
  H   H2088     1.0  0.83280  0.77542  0.41128  1.0000
  C   C2607     1.0  0.77295  0.99446  0.46322  1.0000
  H   H2089     1.0  0.94427  0.76355  0.48434  1.0000
  C   C2608     1.0  0.83649  0.66921  0.48615  1.0000
  H   H2090     1.0  0.88660  0.78632  0.44540  1.0000
  H   H2091     1.0  0.84102  0.79942  0.45838  1.0000
  C   C2609     1.0  0.95425  0.51328  0.27861  1.0000
  H   H2092     1.0  0.95959  0.50970  0.37717  1.0000
  H   H2093     1.0  0.90816  0.53736  0.43389  1.0000
  H   H2094     1.0  0.87623  0.77672  0.38846  1.0000
  C   C2610     1.0  0.92454  0.69961  0.47530  1.0000
  H   H2095     1.0  0.96092  0.70369  0.48786  1.0000
  H   H2096     1.0  0.96781  0.81280  0.42838  1.0000
  H   H2097     1.0  0.83976  0.94505  0.38312  1.0000
  C   C2611     1.0  0.98726  0.81067  0.41936  1.0000
  H   H2098     1.0  0.96466  0.81856  0.30939  1.0000
  H   H2099     1.0  0.96207  0.78241  0.28451  1.0000
  H   H2100     1.0  0.96482  0.92891  0.42363  1.0000
  H   H2101     1.0  0.91433  0.71359  0.48714  1.0000
  C   C2612     1.0  0.78006  0.53505  0.12615  1.0000
  C   C2613     1.0  0.79479  0.90676  0.43266  1.0000
  C   C2614     1.0  0.96011  0.62007  0.07685  1.0000
  C   C2615     1.0  0.99494  0.59321  0.03218  1.0000
  C   C2616     1.0  0.99619  0.59549  0.23805  1.0000
  H   H2102     1.0  0.95684  0.58162  0.49647  1.0000
  C   C2617     1.0  0.00281  0.72638  0.38433  1.0000
  C   C2618     1.0  0.93741  0.58825  0.49277  1.0000
  C   C2619     1.0  0.00496  0.59833  0.26128  1.0000
  H   H2103     1.0  0.97857  0.78614  0.39284  1.0000
  C   C2620     1.0  0.86146  0.67550  0.48660  1.0000
  H   H2104     1.0  0.99619  0.53981  0.29260  1.0000
  H   H2105     1.0  0.98481  0.67116  0.46166  1.0000
  C   C2621     1.0  0.79925  0.53511  0.10570  1.0000
  H   H2106     1.0  0.86223  0.53168  0.07684  1.0000
  C   C2622     1.0  0.98294  0.59946  0.11208  1.0000
  H   H2107     1.0  0.83941  0.59457  0.03182  1.0000
  C   C2623     1.0  0.96423  0.97585  0.46255  1.0000
  C   C2624     1.0  0.78684  0.80587  0.28549  1.0000
  C   C2625     1.0  0.95933  0.94031  0.43939  1.0000
  C   C2626     1.0  0.82706  0.93442  0.39689  1.0000
  C   C2627     1.0  0.77317  0.85636  0.38187  1.0000
  C   C2628     1.0  0.89356  0.60021  0.50836  1.0000
  H   H2108     1.0  0.91535  0.65762  0.43402  1.0000
  C   C2629     1.0  0.79562  0.88328  0.24816  1.0000
  C   C2630     1.0  0.80505  0.85800  0.24432  1.0000
  C   C2631     1.0  0.82827  0.84731  0.25305  1.0000
  C   C2632     1.0  0.84223  0.86183  0.26555  1.0000
  C   C2633     1.0  0.83336  0.88722  0.26876  1.0000
  C   C2634     1.0  0.81030  0.89804  0.25983  1.0000
  C   C2635     1.0  0.84786  0.77929  0.45882  1.0000
  C   C2636     1.0  0.78930  0.93338  0.42776  1.0000
  C   C2637     1.0  0.00362  0.75446  0.45261  1.0000
  H   H2109     1.0  0.98754  0.74085  0.29450  1.0000
  H   H2110     1.0  0.99737  0.58534  0.11965  1.0000
  H   H2111     1.0  0.94315  0.51598  0.10976  1.0000
  C   C2638     1.0  0.77674  0.57265  0.08466  1.0000
  C   C2639     1.0  0.90322  0.62200  0.01163  1.0000
  H   H2112     1.0  0.88162  0.58979  0.01358  1.0000
  H   H2113     1.0  0.79435  0.84637  0.23496  1.0000
  H   H2114     1.0  0.83523  0.82762  0.25060  1.0000
  H   H2115     1.0  0.85977  0.85338  0.27311  1.0000
  H   H2116     1.0  0.84413  0.89829  0.27875  1.0000
  H   H2117     1.0  0.80363  0.91770  0.26268  1.0000
  C   C2640     1.0  0.92356  0.52477  0.31433  1.0000
  C   C2641     1.0  0.76696  0.91431  0.20808  1.0000
  H   H2118     1.0  0.80211  0.96762  0.40552  1.0000
  H   H2119     1.0  0.80689  0.91993  0.20770  1.0000
  H   H2120     1.0  0.79716  0.76587  0.38882  1.0000
  C   C2642     1.0  0.79133  0.54680  0.20323  1.0000
  C   C2643     1.0  0.81638  0.62719  0.01566  1.0000
  H   H2121     1.0  0.80987  0.55355  0.20335  1.0000
  H   H2122     1.0  0.76734  0.85607  0.40214  1.0000
  C   C2644     1.0  0.79187  0.93747  0.17323  1.0000
  C   C2645     1.0  0.97925  0.60184  0.08604  1.0000
  H   H2123     1.0  0.80979  0.94450  0.16507  1.0000
  C   C2646     1.0  0.85536  0.65637  0.40357  1.0000
  C   C2647     1.0  0.85635  0.67473  0.38228  1.0000
  C   C2648     1.0  0.86406  0.69863  0.38429  1.0000
  C   C2649     1.0  0.87019  0.70442  0.40772  1.0000
  C   C2650     1.0  0.86854  0.68632  0.42941  1.0000
  C   C2651     1.0  0.86168  0.66204  0.42698  1.0000
  C   C2652     1.0  0.91143  0.68699  0.45986  1.0000
  C   C2653     1.0  0.95143  0.66266  0.44608  1.0000
  C   C2654     1.0  0.96440  0.67560  0.46115  1.0000
  H   H2124     1.0  0.95789  0.96244  0.38496  1.0000
  H   H2125     1.0  0.77590  0.58793  0.06914  1.0000
  C   C2655     1.0  0.83099  0.76064  0.46577  1.0000
  C   C2656     1.0  0.84010  0.73474  0.46692  1.0000
  H   H2126     1.0  0.85059  0.63737  0.40177  1.0000
  H   H2127     1.0  0.85202  0.67011  0.36400  1.0000
  H   H2128     1.0  0.86587  0.71247  0.36755  1.0000
  H   H2129     1.0  0.87664  0.72287  0.40868  1.0000
  H   H2130     1.0  0.96172  0.64814  0.43491  1.0000
  C   C2657     1.0  0.00532  0.77371  0.33986  1.0000
  C   C2658     1.0  0.96828  0.52582  0.19800  1.0000
  H   H2131     1.0  0.78179  0.52049  0.14215  1.0000
  C   C2659     1.0  0.92504  0.66819  0.44555  1.0000
  H   H2132     1.0  0.82668  0.72071  0.47236  1.0000
  H   H2133     1.0  0.84938  0.89828  0.39244  1.0000
  H   H2134     1.0  0.99558  0.61137  0.22311  1.0000
  C   C2660     1.0  0.90074  0.81200  0.28186  1.0000
  C   C2661     1.0  0.91630  0.80089  0.26214  1.0000
  C   C2662     1.0  0.91212  0.77688  0.25610  1.0000
  C   C2663     1.0  0.89238  0.76395  0.26979  1.0000
  C   C2664     1.0  0.87703  0.77473  0.29005  1.0000
  C   C2665     1.0  0.88096  0.79914  0.29554  1.0000
  P   P86       1.0  0.85007  0.75934  0.30625  1.0000
  C   C2666     1.0  0.84481  0.76423  0.33961  1.0000
  C   C2667     1.0  0.82317  0.77365  0.28970  1.0000
  C   C2668     1.0  0.80779  0.79503  0.29829  1.0000
  C   C2669     1.0  0.99849  0.95639  0.38876  1.0000
  H   H2135     1.0  0.95824  0.81742  0.47614  1.0000
  C   C2670     1.0  0.79014  0.92348  0.19743  1.0000
  C   C2671     1.0  0.81827  0.76437  0.26724  1.0000
  C   C2672     1.0  0.86504  0.76882  0.35271  1.0000
  H   H2136     1.0  0.79363  0.76806  0.23713  1.0000
  C   C2673     1.0  0.00536  0.77347  0.49160  1.0000
  C   C2674     1.0  0.81612  0.76660  0.37876  1.0000
  C   C2675     1.0  0.82046  0.76249  0.35298  1.0000
  C   C2676     1.0  0.85480  0.72504  0.30589  1.0000
  C   C2677     1.0  0.87907  0.71171  0.30820  1.0000
  C   C2678     1.0  0.88275  0.68522  0.30746  1.0000
  C   C2679     1.0  0.86219  0.67173  0.30516  1.0000
  C   C2680     1.0  0.83777  0.68470  0.30393  1.0000
  C   C2681     1.0  0.83401  0.71123  0.30448  1.0000
  H   H2137     1.0  0.90387  0.83069  0.28649  1.0000
  H   H2138     1.0  0.93154  0.81097  0.25149  1.0000
  H   H2139     1.0  0.92404  0.76834  0.24065  1.0000
  H   H2140     1.0  0.88903  0.74568  0.26436  1.0000
  H   H2141     1.0  0.86867  0.80835  0.31034  1.0000
  H   H2142     1.0  0.81199  0.80349  0.31476  1.0000
  H   H2143     1.0  0.97993  0.57110  0.21645  1.0000
  H   H2144     1.0  0.97352  0.99255  0.46453  1.0000
  C   C2682     1.0  0.95094  0.69397  0.47585  1.0000
  H   H2145     1.0  0.83051  0.74858  0.25969  1.0000
  H   H2146     1.0  0.88416  0.76938  0.34307  1.0000
  H   H2147     1.0  0.91929  0.88762  0.49912  1.0000
  H   H2148     1.0  0.78569  0.56653  0.16624  1.0000
  C   C2683     1.0  0.91544  0.53857  0.20505  1.0000
  H   H2149     1.0  0.80473  0.75827  0.34342  1.0000
  H   H2150     1.0  0.89527  0.72166  0.31047  1.0000
  H   H2151     1.0  0.90162  0.67505  0.30863  1.0000
  H   H2152     1.0  0.86526  0.65118  0.30445  1.0000
  H   H2153     1.0  0.82180  0.67414  0.30241  1.0000
  H   H2154     1.0  0.81491  0.72088  0.30376  1.0000
  C   C2684     1.0  0.97112  0.96237  0.44110  1.0000
  C   C2685     1.0  0.87365  0.77195  0.45196  1.0000
  C   C2686     1.0  0.86620  0.72721  0.46082  1.0000
  C   C2687     1.0  0.98266  0.50896  0.05501  1.0000
  H   H2155     1.0  0.76550  0.80452  0.25361  1.0000
  H   H2156     1.0  0.77479  0.82209  0.29243  1.0000
  C   C2688     1.0  0.96734  0.61473  0.12871  1.0000
  C   C2689     1.0  0.98865  0.75667  0.30537  1.0000
  H   H2157     1.0  0.95652  0.62229  0.05700  1.0000
  H   H2158     1.0  0.81311  0.55453  0.06974  1.0000
  C   C2690     1.0  0.95750  0.52034  0.09390  1.0000
  H   H2159     1.0  0.99202  0.81325  0.34457  1.0000
  H   H2160     1.0  0.81009  0.56377  0.02527  1.0000
  C   C2691     1.0  0.00151  0.70250  0.39857  1.0000
  H   H2161     1.0  0.78245  0.89576  0.44641  1.0000
  C   C2692     1.0  0.83619  0.77194  0.39145  1.0000
  C   C2693     1.0  0.76239  0.85895  0.33862  1.0000
  H   H2162     1.0  0.79170  0.52582  0.24062  1.0000
  H   H2163     1.0  0.00091  0.86222  0.37094  1.0000
  C   C2694     1.0  0.93959  0.85369  0.48499  1.0000
  H   H2164     1.0  0.96222  0.55649  0.10555  1.0000
  C   C2695     1.0  0.75944  0.55425  0.12639  1.0000
  C   C2696     1.0  0.80559  0.94713  0.40969  1.0000
  C   C2697     1.0  0.86065  0.77282  0.37852  1.0000
  C   C2698     1.0  0.80516  0.58382  0.01954  1.0000
  P   P87       1.0  0.97456  0.52272  0.24992  1.0000
  H   H2165     1.0  0.98876  0.52116  0.19488  1.0000
  H   H2166     1.0  0.93575  0.64403  0.13246  1.0000
  C   C2699     1.0  0.99641  0.55505  0.27711  1.0000
  C   C2700     1.0  0.97721  0.75416  0.45816  1.0000
  C   C2701     1.0  0.79769  0.55400  0.08503  1.0000
  C   C2702     1.0  0.94823  0.63267  0.11942  1.0000
  C   C2703     1.0  0.95410  0.53001  0.17693  1.0000
  C   C2704     1.0  0.80249  0.85574  0.49144  1.0000
  H   H2167     1.0  0.76669  0.89568  0.29442  1.0000
  H   H2168     1.0  0.98458  0.69267  0.39935  1.0000
  C   C2705     1.0  0.92776  0.86834  0.50410  1.0000
  H   H2169     1.0  0.81062  0.87303  0.48295  1.0000
  C   C2706     1.0  0.78163  0.79602  0.26359  1.0000
  C   C2707     1.0  0.98737  0.57249  0.23433  1.0000
  C   C2708     1.0  0.96485  0.76337  0.48053  1.0000
  H   H2170     1.0  0.99957  0.62570  0.34969  1.0000
  H   H2171     1.0  0.78092  0.80305  0.47454  1.0000
  P   P88       1.0  0.99595  0.97284  0.41703  1.0000
  C   C2709     1.0  0.98953  0.00626  0.40552  1.0000
  C   C2710     1.0  0.81645  0.89421  0.42002  1.0000
  C   C2711     1.0  0.94954  0.82840  0.49136  1.0000
  H   H2172     1.0  0.00239  0.59171  0.46208  1.0000
  C   C2712     1.0  0.93905  0.52230  0.45617  1.0000
  C   C2713     1.0  0.78459  0.93043  0.48989  1.0000
  H   H2173     1.0  0.94086  0.55212  0.28648  1.0000
  H   H2174     1.0  0.81569  0.52090  0.10625  1.0000
  C   C2714     1.0  0.96833  0.54345  0.09135  1.0000
  C   C2715     1.0  0.98737  0.55204  0.25388  1.0000
  H   H2175     1.0  0.91235  0.53934  0.32480  1.0000
  H   H2176     1.0  0.95914  0.57738  0.03121  1.0000
  P   P89       1.0  0.76441  0.89631  0.23936  1.0000
  C   C2716     1.0  0.97647  0.95442  0.37703  1.0000
  C   C2717     1.0  0.77052  0.94240  0.15954  1.0000
  H   H2177     1.0  0.82654  0.67474  0.46932  1.0000
  H   H2178     1.0  0.93958  0.97873  0.49771  1.0000
  C   C2718     1.0  0.78106  0.53125  0.22420  1.0000
  C   C2719     1.0  0.92335  0.52200  0.43684  1.0000
  P   P90       1.0  0.76208  0.94941  0.44552  1.0000
  C   C2720     1.0  0.99099  0.79720  0.33402  1.0000
  C   C2721     1.0  0.97825  0.94190  0.35502  1.0000
  C   C2722     1.0  0.75956  0.99901  0.42058  1.0000
  H   H2179     1.0  0.98264  0.52495  0.33652  1.0000
  C   C2723     1.0  0.92768  0.53633  0.18047  1.0000
  C   C2724     1.0  0.00516  0.57808  0.28077  1.0000
  C   C2725     1.0  0.86372  0.51115  0.08002  1.0000
  C   C2726     1.0  0.99327  0.53221  0.05222  1.0000
  C   C2727     1.0  0.95606  0.52785  0.22282  1.0000
  H   H2180     1.0  0.90943  0.51224  0.02095  1.0000
  C   C2728     1.0  0.00435  0.75358  0.32513  1.0000
  P   P91       1.0  0.99815  0.58072  0.06505  1.0000
  H   H2181     1.0  0.00677  0.53675  0.03575  1.0000
  C   C2729     1.0  0.82420  0.65556  0.50743  1.0000
  H   H2182     1.0  0.80508  0.65049  0.50685  1.0000
  C   C2730     1.0  0.82206  0.60116  0.02303  1.0000
  H   H2183     1.0  0.99749  0.92097  0.49867  1.0000
  C   C2731     1.0  0.97367  0.58845  0.02062  1.0000
  H   H2184     1.0  0.00347  0.92226  0.32706  1.0000
  C   C2732     1.0  0.00208  0.93197  0.34412  1.0000
  C   C2733     1.0  0.87380  0.66795  0.50878  1.0000
  Fe  Fe181     1.0  0.85099  0.83300  0.56375  1.0000
  S   S361      1.0  0.84367  0.87460  0.56890  1.0000
  Fe  Fe182     1.0  0.84893  0.81676  0.62019  1.0000
  S   S362      1.0  0.84188  0.85741  0.62972  1.0000
  S   S363      1.0  0.85388  0.78214  0.64898  1.0000
  Fe  Fe183     1.0  0.81323  0.86225  0.60016  1.0000
  S   S364      1.0  0.77149  0.88105  0.60660  1.0000
  Fe  Fe184     1.0  0.87316  0.86517  0.59730  1.0000
  S   S365      1.0  0.90825  0.88820  0.59178  1.0000
  S   S366      1.0  0.81921  0.82116  0.59286  1.0000
  S   S367      1.0  0.88135  0.82422  0.59018  1.0000
  Fe  Fe185     1.0  0.91472  0.60297  0.58253  1.0000
  S   S368      1.0  0.92066  0.64444  0.57910  1.0000
  S   S369      1.0  0.92668  0.58314  0.54571  1.0000
  Fe  Fe186     1.0  0.90132  0.60175  0.64262  1.0000
  S   S370      1.0  0.90653  0.64311  0.64148  1.0000
  S   S371      1.0  0.88816  0.58141  0.68226  1.0000
  Fe  Fe187     1.0  0.88540  0.64882  0.60666  1.0000
  S   S372      1.0  0.85410  0.68022  0.59758  1.0000
  Fe  Fe188     1.0  0.94108  0.63415  0.61419  1.0000
  S   S373      1.0  0.97665  0.65211  0.61713  1.0000
  S   S374      1.0  0.87778  0.60772  0.60870  1.0000
  S   S375      1.0  0.93748  0.59222  0.61675  1.0000
  Fe  Fe189     1.0  0.88906  0.60014  0.83529  1.0000
  S   S376      1.0  0.85205  0.58279  0.84432  1.0000
  S   S377      1.0  0.90805  0.60691  0.79378  1.0000
  Fe  Fe190     1.0  0.89091  0.60746  0.89339  1.0000
  S   S378      1.0  0.85375  0.59128  0.90514  1.0000
  S   S379      1.0  0.91211  0.62147  0.92346  1.0000
  Fe  Fe191     1.0  0.86926  0.56195  0.87877  1.0000
  H   H2185     1.0  0.84584  0.64680  0.94998  1.0000
  Fe  Fe192     1.0  0.84059  0.61411  0.86985  1.0000
  S   S380      1.0  0.80260  0.63818  0.87157  1.0000
  S   S381      1.0  0.90755  0.57668  0.86836  1.0000
  S   S382      1.0  0.87670  0.63285  0.85933  1.0000
  C   C2734     1.0  0.90666  0.62145  0.95747  1.0000
  C   C2735     1.0  0.91835  0.63928  0.96832  1.0000
  H   H2186     1.0  0.80234  0.91613  0.52415  1.0000
  C   C2736     1.0  0.77784  0.53977  0.00234  1.0000
  C   C2737     1.0  0.76372  0.76137  0.67561  1.0000
  C   C2738     1.0  0.89290  0.60375  0.97398  1.0000
  H   H2187     1.0  0.92915  0.65294  0.95601  1.0000
  H   H2188     1.0  0.87932  0.72842  0.70483  1.0000
  C   C2739     1.0  0.76798  0.80929  0.69081  1.0000
  H   H2189     1.0  0.88410  0.58960  0.96595  1.0000
  C   C2740     1.0  0.84480  0.74482  0.52841  1.0000
  C   C2741     1.0  0.78405  0.59371  0.86587  1.0000
  H   H2190     1.0  0.86542  0.77427  0.70463  1.0000
  H   H2191     1.0  0.80301  0.58470  0.86824  1.0000
  H   H2192     1.0  0.98515  0.59717  0.63364  1.0000
  C   C2742     1.0  0.00006  0.63616  0.76967  1.0000
  C   C2743     1.0  0.89271  0.59046  0.71287  1.0000
  C   C2744     1.0  0.87566  0.58359  0.73450  1.0000
  C   C2745     1.0  0.87954  0.58901  0.75924  1.0000
  C   C2746     1.0  0.90091  0.60089  0.76288  1.0000
  C   C2747     1.0  0.91782  0.60781  0.74123  1.0000
  C   C2748     1.0  0.91353  0.60317  0.71643  1.0000
  H   H2193     1.0  0.85951  0.57370  0.73216  1.0000
  H   H2194     1.0  0.86631  0.58346  0.77556  1.0000
  H   H2195     1.0  0.93454  0.61669  0.74374  1.0000
  H   H2196     1.0  0.92678  0.60884  0.70014  1.0000
  C   C2749     1.0  0.99381  0.86439  0.60301  1.0000
  H   H2197     1.0  0.77518  0.59803  0.95569  1.0000
  C   C2750     1.0  0.80558  0.51133  0.97582  1.0000
  H   H2198     1.0  0.91687  0.86917  0.54439  1.0000
  H   H2199     1.0  0.88733  0.94668  0.55094  1.0000
  H   H2200     1.0  0.99230  0.55469  0.53720  1.0000
  C   C2751     1.0  0.94108  0.87621  0.59478  1.0000
  C   C2752     1.0  0.96068  0.88567  0.57698  1.0000
  C   C2753     1.0  0.91603  0.53235  0.74583  1.0000
  C   C2754     1.0  0.94822  0.85988  0.61614  1.0000
  H   H2201     1.0  0.95564  0.89820  0.56030  1.0000
  H   H2202     1.0  0.93358  0.85258  0.63020  1.0000
  C   C2755     1.0  0.85383  0.75371  0.63501  1.0000
  C   C2756     1.0  0.87073  0.73231  0.64187  1.0000
  C   C2757     1.0  0.87101  0.70971  0.63042  1.0000
  C   C2758     1.0  0.85387  0.70814  0.61266  1.0000
  C   C2759     1.0  0.83645  0.72933  0.60643  1.0000
  C   C2760     1.0  0.83663  0.75212  0.61733  1.0000
  H   H2203     1.0  0.88412  0.73344  0.65549  1.0000
  H   H2204     1.0  0.88461  0.69364  0.63525  1.0000
  H   H2205     1.0  0.82289  0.72826  0.59304  1.0000
  H   H2206     1.0  0.82317  0.76831  0.61238  1.0000
  H   H2207     1.0  0.92807  0.93607  0.56962  1.0000
  H   H2208     1.0  0.84922  0.69184  0.78108  1.0000
  H   H2209     1.0  0.99183  0.57332  0.76918  1.0000
  C   C2761     1.0  0.90333  0.67884  0.69971  1.0000
  C   C2762     1.0  0.79887  0.75626  0.53107  1.0000
  C   C2763     1.0  0.98943  0.59243  0.77495  1.0000
  C   C2764     1.0  0.97427  0.85427  0.62031  1.0000
  C   C2765     1.0  0.89706  0.75655  0.56081  1.0000
  H   H2210     1.0  0.77686  0.54091  0.82161  1.0000
  C   C2766     1.0  0.79661  0.69421  0.95412  1.0000
  P   P92       1.0  0.96257  0.78565  0.52581  1.0000
  C   C2767     1.0  0.76207  0.69979  0.88692  1.0000
  C   C2768     1.0  0.82683  0.65671  0.94862  1.0000
  C   C2769     1.0  0.84578  0.71629  0.72869  1.0000
  C   C2770     1.0  0.99570  0.52597  0.93523  1.0000
  H   H2211     1.0  0.83536  0.69009  0.96403  1.0000
  H   H2212     1.0  0.81543  0.60916  0.77716  1.0000
  C   C2771     1.0  0.82252  0.62739  0.77784  1.0000
  H   H2213     1.0  0.77002  0.64900  0.92845  1.0000
  H   H2214     1.0  0.89677  0.52998  0.84682  1.0000
  H   H2215     1.0  0.81346  0.69434  0.55553  1.0000
  H   H2216     1.0  0.77018  0.82760  0.69692  1.0000
  C   C2772     1.0  0.00205  0.60601  0.63543  1.0000
  C   C2773     1.0  0.93958  0.97433  0.56141  1.0000
  C   C2774     1.0  0.79953  0.85009  0.51798  1.0000
  C   C2775     1.0  0.00347  0.92820  0.51504  1.0000
  H   H2217     1.0  0.83157  0.66735  0.82069  1.0000
  H   H2218     1.0  0.81443  0.62632  0.81870  1.0000
  H   H2219     1.0  0.92400  0.96152  0.61279  1.0000
  C   C2776     1.0  0.99320  0.76536  0.56466  1.0000
  C   C2777     1.0  0.82093  0.68117  0.95641  1.0000
  C   C2778     1.0  0.98537  0.78713  0.54840  1.0000
  C   C2779     1.0  0.77795  0.68277  0.94403  1.0000
  C   C2780     1.0  0.86131  0.73435  0.71543  1.0000
  C   C2781     1.0  0.78462  0.91962  0.51532  1.0000
  C   C2782     1.0  0.92627  0.85789  0.52963  1.0000
  H   H2220     1.0  0.83287  0.63294  0.73756  1.0000
  H   H2221     1.0  0.93372  0.70027  0.55375  1.0000
  C   C2783     1.0  0.94573  0.73759  0.54067  1.0000
  H   H2222     1.0  0.95426  0.62661  0.81967  1.0000
  C   C2784     1.0  0.79037  0.82717  0.52898  1.0000
  C   C2785     1.0  0.93912  0.76416  0.53945  1.0000
  C   C2786     1.0  0.98327  0.92891  0.61492  1.0000
  C   C2787     1.0  0.86134  0.65458  0.53011  1.0000
  H   H2223     1.0  0.87820  0.76394  0.56875  1.0000
  H   H2224     1.0  0.89071  0.71713  0.57174  1.0000
  H   H2225     1.0  0.95042  0.90190  0.66849  1.0000
  H   H2226     1.0  0.87502  0.99113  0.53195  1.0000
  H   H2227     1.0  0.86399  0.75027  0.52325  1.0000
  C   C2788     1.0  0.83661  0.64828  0.52941  1.0000
  C   C2789     1.0  0.81620  0.71334  0.54622  1.0000
  C   C2790     1.0  0.93273  0.99923  0.55028  1.0000
  C   C2791     1.0  0.00062  0.00644  0.56850  1.0000
  C   C2792     1.0  0.78954  0.53399  0.97823  1.0000
  C   C2793     1.0  0.99575  0.81012  0.54970  1.0000
  H   H2228     1.0  0.96055  0.58323  0.80587  1.0000
  C   C2794     1.0  0.96370  0.94632  0.60531  1.0000
  C   C2795     1.0  0.78775  0.77005  0.67462  1.0000
  C   C2796     1.0  0.78984  0.79402  0.68210  1.0000
  H   H2229     1.0  0.91963  0.51575  0.66288  1.0000
  C   C2797     1.0  0.87686  0.53552  0.00761  1.0000
  C   C2798     1.0  0.85347  0.76047  0.71528  1.0000
  H   H2230     1.0  0.99360  0.89938  0.64462  1.0000
  H   H2231     1.0  0.76216  0.74277  0.66978  1.0000
  C   C2799     1.0  0.00341  0.61164  0.76144  1.0000
  C   C2800     1.0  0.98253  0.64148  0.79072  1.0000
  C   C2801     1.0  0.77833  0.61988  0.86732  1.0000
  H   H2232     1.0  0.87098  0.64891  0.54719  1.0000
  C   C2802     1.0  0.95529  0.52568  0.96195  1.0000
  H   H2233     1.0  0.91574  0.93303  0.65235  1.0000
  H   H2234     1.0  0.75850  0.62579  0.99490  1.0000
  C   C2803     1.0  0.82190  0.72479  0.74104  1.0000
  H   H2235     1.0  0.80702  0.53811  0.89152  1.0000
  H   H2236     1.0  0.93450  0.52263  0.70976  1.0000
  C   C2804     1.0  0.84318  0.67325  0.69928  1.0000
  H   H2237     1.0  0.85035  0.62356  0.66292  1.0000
  C   C2805     1.0  0.89748  0.51659  0.00545  1.0000
  H   H2238     1.0  0.85134  0.87179  0.51708  1.0000
  H   H2239     1.0  0.80484  0.75829  0.66801  1.0000
  H   H2240     1.0  0.80853  0.80079  0.68103  1.0000
  H   H2241     1.0  0.79261  0.71318  0.96011  1.0000
  C   C2806     1.0  0.89875  0.52571  0.76693  1.0000
  H   H2242     1.0  0.80915  0.71120  0.75051  1.0000
  C   C2807     1.0  0.83002  0.76878  0.72818  1.0000
  C   C2808     1.0  0.93671  0.83284  0.53617  1.0000
  S   S383      1.0  0.85919  0.81629  0.52659  1.0000
  P   P93       1.0  0.85490  0.68256  0.72709  1.0000
  H   H2243     1.0  0.76282  0.75110  0.92893  1.0000
  C   C2809     1.0  0.91443  0.77347  0.54918  1.0000
  C   C2810     1.0  0.81374  0.52203  0.82884  1.0000
  C   C2811     1.0  0.98748  0.58358  0.71447  1.0000
  C   C2812     1.0  0.78391  0.65799  0.93673  1.0000
  C   C2813     1.0  0.90947  0.00523  0.53976  1.0000
  C   C2814     1.0  0.82206  0.63699  0.80129  1.0000
  H   H2244     1.0  0.87877  0.60248  0.52403  1.0000
  H   H2245     1.0  0.97926  0.84252  0.63751  1.0000
  C   C2815     1.0  0.90402  0.73021  0.56241  1.0000
  C   C2816     1.0  0.93945  0.94811  0.61941  1.0000
  H   H2246     1.0  0.89492  0.53771  0.78242  1.0000
  H   H2247     1.0  0.97978  0.66046  0.79686  1.0000
  C   C2817     1.0  0.78932  0.52321  0.82104  1.0000
  H   H2248     1.0  0.97374  0.55963  0.94845  1.0000
  P   P94       1.0  0.75956  0.57040  0.00565  1.0000
  C   C2818     1.0  0.83167  0.66022  0.80234  1.0000
  H   H2249     1.0  0.78986  0.82247  0.54936  1.0000
  H   H2250     1.0  0.81874  0.70848  0.69124  1.0000
  C   C2819     1.0  0.97194  0.59785  0.79596  1.0000
  H   H2251     1.0  0.84603  0.55731  0.98896  1.0000
  H   H2252     1.0  0.76185  0.90519  0.54928  1.0000
  C   C2820     1.0  0.79517  0.73141  0.54236  1.0000
  C   C2821     1.0  0.90004  0.96139  0.55051  1.0000
  H   H2253     1.0  0.82719  0.63769  0.54594  1.0000
  C   C2822     1.0  0.80827  0.64512  0.93886  1.0000
  H   H2254     1.0  0.82402  0.78906  0.72787  1.0000
  H   H2255     1.0  0.92537  0.54961  0.74491  1.0000
  H   H2256     1.0  0.77234  0.69846  0.84657  1.0000
  C   C2823     1.0  0.98930  0.53473  0.53764  1.0000
  C   C2824     1.0  0.95793  0.51317  0.64414  1.0000
  H   H2257     1.0  0.95363  0.59552  0.98699  1.0000
  C   C2825     1.0  0.99290  0.95002  0.55341  1.0000
  C   C2826     1.0  0.97033  0.59892  0.99560  1.0000
  C   C2827     1.0  0.96949  0.52485  0.55424  1.0000
  C   C2828     1.0  0.77637  0.61870  0.00230  1.0000
  C   C2829     1.0  0.95421  0.91466  0.65123  1.0000
  H   H2258     1.0  0.93941  0.66482  0.76022  1.0000
  H   H2259     1.0  0.85724  0.70637  0.54325  1.0000
  H   H2260     1.0  0.82001  0.53863  0.83540  1.0000
  C   C2830     1.0  0.79289  0.52617  0.90152  1.0000
  C   C2831     1.0  0.92318  0.95540  0.56116  1.0000
  C   C2832     1.0  0.86693  0.53003  0.96537  1.0000
  C   C2833     1.0  0.82386  0.76286  0.52447  1.0000
  C   C2834     1.0  0.81417  0.75095  0.74096  1.0000
  C   C2835     1.0  0.97745  0.56509  0.70301  1.0000
  C   C2836     1.0  0.89313  0.98633  0.53988  1.0000
  H   H2261     1.0  0.95720  0.53720  0.56649  1.0000
  C   C2837     1.0  0.82550  0.68971  0.68566  1.0000
  H   H2262     1.0  0.78865  0.65622  0.00032  1.0000
  H   H2263     1.0  0.95735  0.56725  0.70012  1.0000
  H   H2264     1.0  0.77755  0.53686  0.76465  1.0000
  C   C2838     1.0  0.97489  0.53905  0.94860  1.0000
  H   H2265     1.0  0.76965  0.55873  0.86057  1.0000
  H   H2266     1.0  0.89360  0.68301  0.68259  1.0000
  C   C2839     1.0  0.91648  0.63968  0.99493  1.0000
  C   C2840     1.0  0.84206  0.66455  0.75611  1.0000
  C   C2841     1.0  0.86162  0.54227  0.98757  1.0000
  H   H2267     1.0  0.80390  0.69528  0.65306  1.0000
  H   H2268     1.0  0.90837  0.79370  0.54798  1.0000
  C   C2842     1.0  0.81682  0.68225  0.66406  1.0000
  C   C2843     1.0  0.82557  0.65832  0.65601  1.0000
  C   C2844     1.0  0.84099  0.72009  0.53934  1.0000
  C   C2845     1.0  0.94306  0.67088  0.71906  1.0000
  C   C2846     1.0  0.84319  0.64194  0.66939  1.0000
  C   C2847     1.0  0.85221  0.64950  0.69073  1.0000
  H   H2269     1.0  0.81933  0.65280  0.63891  1.0000
  P   P95       1.0  0.96943  0.96633  0.57538  1.0000
  C   C2848     1.0  0.93469  0.93215  0.64209  1.0000
  S   S384      1.0  0.86455  0.52129  0.89429  1.0000
  H   H2270     1.0  0.92585  0.65367  0.00266  1.0000
  H   H2271     1.0  0.93587  0.82531  0.55618  1.0000
  C   C2849     1.0  0.76507  0.57896  0.86178  1.0000
  C   C2850     1.0  0.90268  0.67192  0.74581  1.0000
  C   C2851     1.0  0.89140  0.60390  0.00100  1.0000
  H   H2272     1.0  0.81295  0.62640  0.93232  1.0000
  H   H2273     1.0  0.77714  0.68503  0.89166  1.0000
  H   H2274     1.0  0.89264  0.66991  0.76481  1.0000
  C   C2852     1.0  0.92938  0.66906  0.74330  1.0000
  C   C2853     1.0  0.93005  0.67560  0.69725  1.0000
  C   C2854     1.0  0.96835  0.62238  0.80374  1.0000
  C   C2855     1.0  0.83250  0.64104  0.75534  1.0000
  C   C2856     1.0  0.88940  0.67699  0.72403  1.0000
  H   H2275     1.0  0.96561  0.94282  0.52834  1.0000
  H   H2276     1.0  0.96372  0.66856  0.71723  1.0000
  C   C2857     1.0  0.97853  0.91328  0.63780  1.0000
  H   H2277     1.0  0.79579  0.75742  0.75058  1.0000
  H   H2278     1.0  0.99044  0.82722  0.53733  1.0000
  C   C2858     1.0  0.89414  0.50990  0.85042  1.0000
  C   C2859     1.0  0.79349  0.63594  0.00532  1.0000
  H   H2279     1.0  0.94064  0.67683  0.67839  1.0000
  C   C2860     1.0  0.84162  0.67398  0.77987  1.0000
  H   H2280     1.0  0.85551  0.53563  0.94954  1.0000
  C   C2861     1.0  0.00277  0.63231  0.62847  1.0000
  C   C2862     1.0  0.98540  0.94076  0.53197  1.0000
  H   H2281     1.0  0.86636  0.63687  0.70051  1.0000
  H   H2282     1.0  0.96457  0.72986  0.53318  1.0000
  C   C2863     1.0  0.92828  0.72072  0.55219  1.0000
  H   H2283     1.0  0.97479  0.59969  0.72071  1.0000
  H   H2284     1.0  0.76674  0.55780  0.91299  1.0000
  C   C2864     1.0  0.98682  0.87957  0.58085  1.0000
  H   H2285     1.0  0.98576  0.74734  0.56418  1.0000
  H   H2286     1.0  0.76813  0.58156  0.74607  1.0000
  H   H2287     1.0  0.94972  0.00098  0.61388  1.0000
  C   C2865     1.0  0.91870  0.59217  0.51361  1.0000
  C   C2866     1.0  0.92110  0.51693  0.72583  1.0000
  H   H2288     1.0  0.98457  0.62359  0.96305  1.0000
  H   H2289     1.0  0.98548  0.52958  0.68640  1.0000
  H   H2290     1.0  0.93943  0.53629  0.97219  1.0000
  H   H2291     1.0  0.78691  0.54721  0.96133  1.0000
  C   C2867     1.0  0.77025  0.53724  0.91376  1.0000
  C   C2868     1.0  0.97987  0.99558  0.58301  1.0000
  C   C2869     1.0  0.75946  0.70749  0.86110  1.0000
  C   C2870     1.0  0.75933  0.54731  0.77026  1.0000
  C   C2871     1.0  0.77209  0.78216  0.58009  1.0000
  H   H2292     1.0  0.95414  0.53000  0.63076  1.0000
  C   C2872     1.0  0.99330  0.54388  0.69523  1.0000
  H   H2293     1.0  0.77610  0.72619  0.54865  1.0000
  H   H2294     1.0  0.79273  0.77926  0.57651  1.0000
  C   C2873     1.0  0.94816  0.81773  0.51705  1.0000
  C   C2874     1.0  0.76181  0.91341  0.52948  1.0000
  H   H2295     1.0  0.77304  0.78537  0.62009  1.0000
  P   P96       1.0  0.77181  0.78011  0.52785  1.0000
  C   C2875     1.0  0.78304  0.81013  0.51366  1.0000
  H   H2296     1.0  0.80544  0.86290  0.53008  1.0000
  C   C2876     1.0  0.00486  0.51901  0.52149  1.0000
  C   C2877     1.0  0.88735  0.51093  0.96322  1.0000
  H   H2297     1.0  0.82741  0.78192  0.51621  1.0000
  H   H2298     1.0  0.00145  0.88764  0.56734  1.0000
  H   H2299     1.0  0.00504  0.52499  0.85743  1.0000
  H   H2300     1.0  0.99529  0.63248  0.69454  1.0000
  H   H2301     1.0  0.00210  0.92667  0.60471  1.0000
  C   C2878     1.0  0.98776  0.61478  0.98213  1.0000
  H   H2302     1.0  0.99780  0.67424  0.66929  1.0000
  C   C2879     1.0  0.76099  0.78546  0.60491  1.0000
  H   H2303     1.0  0.89303  0.67229  0.50988  1.0000
  H   H2304     1.0  0.75954  0.84852  0.56943  1.0000
  C   C2880     1.0  0.78210  0.59249  0.00919  1.0000
