data_image0
_chemical_formula_structural       H2C3HCHC2H3C16SCHC2H4FeHPCHS2H4C2HC6H2SC2HSCH3SC4H2C2HCH3SCH3C3H2C3PHC7H2CHFeC3HCHC4SC5HC3HC2HC3HCH2C2SH2CHCSCHC3SCHCH3CSHC2HC4H3CHCFeHC2HPCHCHSH2SH2CHCFeHC2HC2HC4H2FeCH3FeH5C2HSH2CH2C2HSCHPHC4PC3SC4HC9H6CHCHC2HCHCHCSH2C3HC2HCHC2H2CHC2H7SCH2C5H5C3HC2HSH2C5HSH2C8HCHCH3C2H3CH5CPCH2C10HC2H2CPH5C2HCHCHCH2CHCHC2HCHCPCHC3H3C6HC3H2C2H2CH2CHCHCH4CH4C3HFeCSCS2FeS2HFeCSFeSFeH2FeHS2PSC6H3CHC2HC4H3C5PH4CHSPC16H10CH3CH2C3HFeCHSC2FeHC2HCSCHC5HC2H4CHC2HCHCHSH2CSC3H2SCHCH2CH2SHC3HCHCSHCSFeHSFeSC2SHCHFeS2FeS2FeHFeCFeHS2HCHC3HC6H4CHSHC4FeHCFeC2PH2CHPC3H2C10H2CH10CHC3HC2H5C3H2CH2C2HC4HC5HC3SHC4HC3HCH2CH2PH3CHC3HSC2FeSCS2C3HC2FeHC2HC2FeHCHC2HCH2C2H3CHCHFeSHC2FeHSFeS2FeSCFeCFeS2HS2FeSCFeSFeCSCH2PHC6H8C6H5C2HC3PSCHC9PC5H4S2HC3H3C2HC5HC3H2CH2SCH2SC2H2CH3C3HC4H2CH2C2SHC2HC4H2CH2CH2CH4C2H2CHC3HC7HCH2SHC2FeH2C3HCHPC2HC2H4CHFeCFeHSHSFeS2FeCFeS2HSC2HFeHFeCHC4HCFeCHC2HCHCFeHC2HCH2CFeHC3HC3HS2HC2H2CSCH2C2H2CHC6PC3HCHC12HSH4SH12C3PC3FeH4C2HC2H4CHC2HCHC2SC4H2CH2C4H2CHCHCPCHSHFeHCSCHC2SH2CHC4HC2HC2HC2HC2H6CHC2HC2H2C5HC2PHCH4PH2C4HC4H3CHSCHC3HSCHC2H2CHCH3CH5CSCHC4SC2HC2H3C3HCHC2HCHCHC2H2CHC2HC7HCH6C2HC3H3CHC2HCH3CH2C2HCHCHPHCH2C2HC3HC4HC2H2C3H5SH4CHC2H2C2H4CHCH4C2SC8HC2H3C2H2
_chemical_formula_sum              "H576 C720 S96 Fe48 P24"
_cell_length_a       39.0184
_cell_length_b       39.0655
_cell_length_c       45.3518
_cell_angle_alpha    88.2126
_cell_angle_beta     88.3633
_cell_angle_gamma    119.954

_space_group_name_H-M_alt    "P 1"
_space_group_IT_number       1

loop_
  _space_group_symop_operation_xyz
  'x, y, z'

loop_
  _atom_site_type_symbol
  _atom_site_label
  _atom_site_symmetry_multiplicity
  _atom_site_fract_x
  _atom_site_fract_y
  _atom_site_fract_z
  _atom_site_occupancy
  H   H1        1.0  0.43514  0.07971  0.16998  1.0000
  H   H2        1.0  0.36374  0.37504  0.10909  1.0000
  C   C1        1.0  0.47153  0.42093  0.22518  1.0000
  C   C2        1.0  0.17267  0.38461  0.20572  1.0000
  C   C3        1.0  0.38970  0.23125  0.21168  1.0000
  H   H3        1.0  0.35442  0.16943  0.20340  1.0000
  C   C4        1.0  0.12651  0.41227  0.28872  1.0000
  H   H4        1.0  0.40975  0.15684  0.20509  1.0000
  C   C5        1.0  0.40542  0.19125  0.13303  1.0000
  C   C6        1.0  0.40572  0.15661  0.12643  1.0000
  H   H5        1.0  0.37860  0.18921  0.14234  1.0000
  H   H6        1.0  0.37909  0.12822  0.13065  1.0000
  H   H7        1.0  0.24573  0.37331  0.12437  1.0000
  C   C7        1.0  0.46787  0.44365  0.01574  1.0000
  C   C8        1.0  0.47448  0.19537  0.10938  1.0000
  C   C9        1.0  0.46037  0.45133  0.26846  1.0000
  C   C10       1.0  0.47041  0.11315  0.02193  1.0000
  C   C11       1.0  0.38369  0.19338  0.20764  1.0000
  C   C12       1.0  0.30605  0.39960  0.13737  1.0000
  C   C13       1.0  0.44026  0.15822  0.11509  1.0000
  C   C14       1.0  0.37751  0.38468  0.15509  1.0000
  C   C15       1.0  0.38456  0.36885  0.18091  1.0000
  C   C16       1.0  0.38026  0.33106  0.18156  1.0000
  C   C17       1.0  0.36944  0.30902  0.15634  1.0000
  C   C18       1.0  0.36294  0.32479  0.13043  1.0000
  C   C19       1.0  0.36724  0.36258  0.12970  1.0000
  C   C20       1.0  0.47609  0.14975  0.03003  1.0000
  C   C21       1.0  0.05989  0.40009  0.28288  1.0000
  C   C22       1.0  0.19919  0.41153  0.18381  1.0000
  S   S1        1.0  0.01027  0.44967  0.29864  1.0000
  C   C23       1.0  0.01033  0.46239  0.99800  1.0000
  H   H8        1.0  0.03834  0.40331  0.27041  1.0000
  C   C24       1.0  0.42356  0.34218  0.98945  1.0000
  C   C25       1.0  0.48162  0.15804  0.21381  1.0000
  H   H9        1.0  0.39449  0.38589  0.20033  1.0000
  H   H10       1.0  0.38645  0.31934  0.20136  1.0000
  H   H11       1.0  0.36750  0.28033  0.15650  1.0000
  H   H12       1.0  0.35616  0.30834  0.11056  1.0000
  Fe  Fe1       1.0  0.48137  0.33428  0.12490  1.0000
  H   H13       1.0  0.17241  0.35718  0.21077  1.0000
  P   P1        1.0  0.11392  0.44031  0.23535  1.0000
  C   C26       1.0  0.17290  0.45514  0.19248  1.0000
  H   H14       1.0  0.42326  0.39045  0.25806  1.0000
  S   S2        1.0  0.45770  0.41333  0.04877  1.0000
  S   S3        1.0  0.43678  0.27046  0.13834  1.0000
  H   H15       1.0  0.46211  0.01883  0.02409  1.0000
  H   H16       1.0  0.33997  0.40364  0.20974  1.0000
  H   H17       1.0  0.03873  0.47051  0.16290  1.0000
  H   H18       1.0  0.15703  0.42487  0.28067  1.0000
  C   C27       1.0  0.42750  0.26215  0.21693  1.0000
  C   C28       1.0  0.04001  0.44762  0.17615  1.0000
  H   H19       1.0  0.45486  0.15010  0.17169  1.0000
  C   C29       1.0  0.14645  0.39303  0.22120  1.0000
  C   C30       1.0  0.45055  0.09626  0.18872  1.0000
  C   C31       1.0  0.04188  0.38868  0.21147  1.0000
  C   C32       1.0  0.47360  0.23047  0.11491  1.0000
  C   C33       1.0  0.14705  0.42880  0.21514  1.0000
  C   C34       1.0  0.09852  0.41429  0.27106  1.0000
  H   H20       1.0  0.12579  0.37161  0.23786  1.0000
  H   H21       1.0  0.45334  0.04759  0.20980  1.0000
  S   S4        1.0  0.43122  0.44571  0.30140  1.0000
  C   C35       1.0  0.43926  0.22839  0.12757  1.0000
  C   C36       1.0  0.46166  0.13617  0.18977  1.0000
  H   H22       1.0  0.34977  0.43108  0.25927  1.0000
  S   S5        1.0  0.43783  0.11269  0.10787  1.0000
  C   C37       1.0  0.04917  0.38337  0.31171  1.0000
  H   H23       1.0  0.04221  0.36549  0.22496  1.0000
  H   H24       1.0  0.44390  0.08620  0.02992  1.0000
  H   H25       1.0  0.40611  0.42379  0.01037  1.0000
  S   S6        1.0  0.46445  0.38147  0.12712  1.0000
  C   C38       1.0  0.99622  0.45862  0.26335  1.0000
  C   C39       1.0  0.43596  0.44267  0.00121  1.0000
  C   C40       1.0  0.07222  0.45724  0.19365  1.0000
  C   C41       1.0  0.41557  0.18648  0.20824  1.0000
  H   H26       1.0  0.46826  0.18966  0.27590  1.0000
  H   H27       1.0  0.30247  0.37146  0.14511  1.0000
  C   C42       1.0  0.45935  0.25526  0.21774  1.0000
  C   C43       1.0  0.07293  0.42799  0.21204  1.0000
  H   H28       1.0  0.36516  0.23672  0.21039  1.0000
  C   C44       1.0  0.44929  0.41831  0.25120  1.0000
  H   H29       1.0  0.43227  0.29162  0.21969  1.0000
  H   H30       1.0  0.21966  0.40507  0.17202  1.0000
  H   H31       1.0  0.09613  0.48760  0.19305  1.0000
  S   S7        1.0  0.47632  0.03721  0.12219  1.0000
  C   C45       1.0  0.19910  0.44665  0.17703  1.0000
  H   H32       1.0  0.17290  0.48231  0.18688  1.0000
  H   H33       1.0  0.40550  0.32772  0.00948  1.0000
  H   H34       1.0  0.39608  0.46067  0.08989  1.0000
  C   C46       1.0  0.36444  0.43306  0.21271  1.0000
  C   C47       1.0  0.00862  0.40871  0.17645  1.0000
  C   C48       1.0  0.45395  0.21763  0.21268  1.0000
  H   H35       1.0  0.03330  0.45765  0.00656  1.0000
  H   H36       1.0  0.21935  0.46732  0.15982  1.0000
  C   C49       1.0  0.46081  0.07822  0.21111  1.0000
  C   C50       1.0  0.48211  0.10009  0.23458  1.0000
  C   C51       1.0  0.36954  0.44860  0.24067  1.0000
  P   P2        1.0  0.38497  0.43423  0.15315  1.0000
  H   H37       1.0  0.46276  0.39521  0.21236  1.0000
  C   C52       1.0  0.39144  0.45498  0.18903  1.0000
  C   C53       1.0  0.27363  0.40057  0.12587  1.0000
  C   C54       1.0  0.46949  0.00092  0.01054  1.0000
  C   C55       1.0  0.34262  0.43468  0.13860  1.0000
  C   C56       1.0  0.46478  0.36209  0.99038  1.0000
  C   C57       1.0  0.27725  0.43660  0.11614  1.0000
  C   C58       1.0  0.00968  0.37919  0.19394  1.0000
  H   H38       1.0  0.46898  0.46517  0.16112  1.0000
  H   H39       1.0  0.45383  0.15106  0.04410  1.0000
  C   C59       1.0  0.42824  0.46207  0.12856  1.0000
  H   H40       1.0  0.47840  0.36314  0.01110  1.0000
  Fe  Fe2       1.0  0.48791  0.09939  0.11216  1.0000
  C   C60       1.0  0.46582  0.47305  0.13866  1.0000
  C   C61       1.0  0.42475  0.47075  0.09886  1.0000
  C   C62       1.0  0.40096  0.48647  0.24499  1.0000
  H   H41       1.0  0.25223  0.43727  0.10696  1.0000
  C   C63       1.0  0.11560  0.39516  0.31744  1.0000
  H   H42       1.0  0.48838  0.27944  0.22187  1.0000
  C   C64       1.0  0.34568  0.47086  0.12961  1.0000
  C   C65       1.0  0.31318  0.47176  0.11822  1.0000
  C   C66       1.0  0.45860  0.49152  0.07999  1.0000
  C   C67       1.0  0.13841  0.49176  0.24373  1.0000
  S   S8        1.0  0.40589  0.46001  0.38202  1.0000
  C   C68       1.0  0.37217  0.37893  0.54661  1.0000
  C   C69       1.0  0.35712  0.38486  0.44778  1.0000
  C   C70       1.0  0.34530  0.36872  0.47685  1.0000
  C   C71       1.0  0.37854  0.36960  0.57517  1.0000
  C   C72       1.0  0.45996  0.42544  0.48638  1.0000
  H   H43       1.0  0.15895  0.37802  0.41249  1.0000
  C   C73       1.0  0.30839  0.36934  0.56352  1.0000
  C   C74       1.0  0.09255  0.47090  0.46872  1.0000
  C   C75       1.0  0.34789  0.46496  0.47609  1.0000
  H   H44       1.0  0.10649  0.44392  0.53752  1.0000
  C   C76       1.0  0.34993  0.36015  0.59795  1.0000
  C   C77       1.0  0.21739  0.34029  0.47415  1.0000
  H   H45       1.0  0.44456  0.44102  0.44444  1.0000
  C   C78       1.0  0.20166  0.36147  0.48765  1.0000
  C   C79       1.0  0.26308  0.39992  0.51191  1.0000
  C   C80       1.0  0.39513  0.46805  0.51098  1.0000
  H   H46       1.0  0.01967  0.37385  0.32100  1.0000
  C   C81       1.0  0.34362  0.33277  0.48459  1.0000
  H   H47       1.0  0.08260  0.38017  0.51395  1.0000
  H   H48       1.0  0.17587  0.43984  0.45990  1.0000
  C   C82       1.0  0.25241  0.47148  0.37849  1.0000
  C   C83       1.0  0.46083  0.45208  0.46412  1.0000
  S   S9        1.0  0.13221  0.42779  0.38940  1.0000
  H   H49       1.0  0.44283  0.39396  0.48349  1.0000
  H   H50       1.0  0.35406  0.28661  0.47007  1.0000
  C   C84       1.0  0.07948  0.43489  0.45545  1.0000
  H   H51       1.0  0.32140  0.44842  0.46399  1.0000
  C   C85       1.0  0.37984  0.00213  0.63508  1.0000
  S   S10       1.0  0.47571  0.38308  0.62675  1.0000
  C   C86       1.0  0.25635  0.44168  0.39348  1.0000
  H   H52       1.0  0.35784  0.41205  0.44096  1.0000
  C   C87       1.0  0.07639  0.40237  0.47158  1.0000
  C   C88       1.0  0.38837  0.06511  0.61633  1.0000
  C   C89       1.0  0.35975  0.44571  0.49664  1.0000
  S   S11       1.0  0.47930  0.40394  0.53933  1.0000
  C   C90       1.0  0.37401  0.02473  0.61317  1.0000
  H   H53       1.0  0.35506  0.35300  0.62009  1.0000
  C   C91       1.0  0.27914  0.37879  0.49841  1.0000
  H   H54       1.0  0.28096  0.36880  0.55961  1.0000
  H   H55       1.0  0.26763  0.33246  0.46835  1.0000
  H   H56       1.0  0.28077  0.42364  0.52612  1.0000
  C   C92       1.0  0.22440  0.39109  0.50669  1.0000
  S   S12       1.0  0.30252  0.44517  0.40050  1.0000
  H   H57       1.0  0.22486  0.38484  0.41689  1.0000
  C   C93       1.0  0.36804  0.36582  0.42703  1.0000
  C   C94       1.0  0.31483  0.35993  0.59212  1.0000
  H   H58       1.0  0.33361  0.31908  0.50661  1.0000
  C   C95       1.0  0.40776  0.08303  0.64165  1.0000
  C   C96       1.0  0.21455  0.46798  0.37643  1.0000
  C   C97       1.0  0.22225  0.40803  0.40538  1.0000
  C   C98       1.0  0.48499  0.99364  0.47515  1.0000
  H   H59       1.0  0.06624  0.37462  0.46107  1.0000
  H   H60       1.0  0.17850  0.49089  0.51119  1.0000
  H   H61       1.0  0.39482  0.38625  0.52930  1.0000
  C   C99       1.0  0.18481  0.40418  0.40288  1.0000
  H   H62       1.0  0.37717  0.37841  0.40463  1.0000
  C   C100      1.0  0.08591  0.40565  0.50123  1.0000
  Fe  Fe3       1.0  0.36449  0.48445  0.37951  1.0000
  H   H63       1.0  0.40584  0.45423  0.52628  1.0000
  C   C101      1.0  0.25592  0.34881  0.47951  1.0000
  C   C102      1.0  0.18061  0.43425  0.38893  1.0000
  H   H64       1.0  0.17201  0.35516  0.48305  1.0000
  P   P3        1.0  0.33024  0.39272  0.50350  1.0000
  C   C103      1.0  0.36721  0.33061  0.43509  1.0000
  H   H65       1.0  0.29263  0.35248  0.60983  1.0000
  C   C104      1.0  0.33710  0.37901  0.54049  1.0000
  H   H66       1.0  0.40587  0.36986  0.57958  1.0000
  S   S13       1.0  0.47829  0.05200  0.61661  1.0000
  H   H67       1.0  0.21228  0.40766  0.51700  1.0000
  H   H68       1.0  0.19996  0.31771  0.45905  1.0000
  S   S14       1.0  0.04829  0.45170  0.37566  1.0000
  H   H69       1.0  0.35943  0.01161  0.59324  1.0000
  H   H70       1.0  0.07166  0.43218  0.43258  1.0000
  C   C105      1.0  0.35490  0.31403  0.46384  1.0000
  H   H71       1.0  0.42016  0.11463  0.64348  1.0000
  C   C106      1.0  0.00405  0.48369  0.46379  1.0000
  Fe  Fe4       1.0  0.11334  0.47118  0.37312  1.0000
  H   H72       1.0  0.38568  0.08295  0.59875  1.0000
  C   C107      1.0  0.07696  0.38076  0.32895  1.0000
  C   C108      1.0  0.09938  0.44175  0.51449  1.0000
  H   H73       1.0  0.24540  0.45445  0.46286  1.0000
  C   C109      1.0  0.20028  0.46944  0.45445  1.0000
  C   C110      1.0  0.10375  0.47491  0.49807  1.0000
  H   H74       1.0  0.37594  0.31614  0.41898  1.0000
  C   C111      1.0  0.48112  0.43912  0.51216  1.0000
  C   C112      1.0  0.05048  0.48694  0.54723  1.0000
  C   C113      1.0  0.99379  0.44385  0.46394  1.0000
  C   C114      1.0  0.23934  0.47774  0.45634  1.0000
  H   H75       1.0  0.41868  0.99609  0.57897  1.0000
  H   H76       1.0  0.06900  0.36886  0.35159  1.0000
  Fe  Fe5       1.0  0.05873  0.48412  0.33121  1.0000
  C   C115      1.0  0.02554  0.47949  0.57227  1.0000
  H   H77       1.0  0.48420  0.22329  0.56681  1.0000
  H   H78       1.0  0.00449  0.43354  0.44599  1.0000
  H   H79       1.0  0.13746  0.39441  0.33128  1.0000
  Fe  Fe6       1.0  0.42849  0.48692  0.33573  1.0000
  H   H80       1.0  0.99387  0.45968  0.57135  1.0000
  H   H81       1.0  0.03763  0.47274  0.52708  1.0000
  H   H82       1.0  0.21176  0.49150  0.36565  1.0000
  H   H83       1.0  0.16253  0.49094  0.43927  1.0000
  H   H84       1.0  0.02182  0.49193  0.61782  1.0000
  C   C116      1.0  0.46360  0.42085  0.82531  1.0000
  C   C117      1.0  0.34037  0.36550  0.88543  1.0000
  H   H85       1.0  0.25739  0.40912  0.85058  1.0000
  S   S15       1.0  0.00336  0.47827  0.80624  1.0000
  H   H86       1.0  0.46506  0.44471  0.90770  1.0000
  H   H87       1.0  0.30400  0.22281  0.88902  1.0000
  C   C118      1.0  0.48717  0.00664  0.72447  1.0000
  H   H88       1.0  0.35131  0.20651  0.86443  1.0000
  H   H89       1.0  0.24967  0.49096  0.78970  1.0000
  C   C119      1.0  0.38820  0.31269  0.89068  1.0000
  C   C120      1.0  0.41498  0.30297  0.87744  1.0000
  H   H90       1.0  0.41757  0.36228  0.83872  1.0000
  S   S16       1.0  0.39542  0.47170  0.87891  1.0000
  C   C121      1.0  0.45389  0.43923  0.71925  1.0000
  H   H91       1.0  0.42805  0.07439  0.68341  1.0000
  P   P4        1.0  0.40591  0.36169  0.90347  1.0000
  H   H92       1.0  0.37383  0.32637  0.96269  1.0000
  C   C122      1.0  0.31076  0.37562  0.88816  1.0000
  C   C123      1.0  0.11947  0.31984  0.81584  1.0000
  C   C124      1.0  0.10415  0.33448  0.83727  1.0000
  C   C125      1.0  0.07326  0.30780  0.85709  1.0000
  P   P5        1.0  0.12228  0.38694  0.83768  1.0000
  C   C126      1.0  0.11095  0.39802  0.87398  1.0000
  C   C127      1.0  0.17546  0.41242  0.83005  1.0000
  C   C128      1.0  0.19842  0.39870  0.84394  1.0000
  S   S17       1.0  0.41113  0.46149  0.79505  1.0000
  C   C129      1.0  0.46517  0.43747  0.88486  1.0000
  C   C130      1.0  0.23541  0.46484  0.80451  1.0000
  C   C131      1.0  0.19437  0.44549  0.81001  1.0000
  C   C132      1.0  0.07572  0.39881  0.87953  1.0000
  H   H93       1.0  0.40342  0.00378  0.67815  1.0000
  C   C133      1.0  0.09365  0.41708  0.92968  1.0000
  C   C134      1.0  0.12804  0.41498  0.92475  1.0000
  C   C135      1.0  0.13652  0.40517  0.89712  1.0000
  C   C136      1.0  0.09758  0.40115  0.81082  1.0000
  C   C137      1.0  0.06969  0.37331  0.79257  1.0000
  C   C138      1.0  0.36174  0.38909  0.93404  1.0000
  C   C139      1.0  0.43857  0.39101  0.84626  1.0000
  C   C140      1.0  0.36582  0.37180  0.90849  1.0000
  C   C141      1.0  0.10403  0.43988  0.80963  1.0000
  H   H94       1.0  0.38205  0.39592  0.95154  1.0000
  H   H95       1.0  0.06303  0.22122  0.83394  1.0000
  H   H96       1.0  0.14855  0.42169  0.94218  1.0000
  H   H97       1.0  0.14269  0.33992  0.79991  1.0000
  H   H98       1.0  0.06031  0.31824  0.87340  1.0000
  H   H99       1.0  0.18466  0.37306  0.85925  1.0000
  C   C142      1.0  0.42929  0.36242  0.93746  1.0000
  H   H100      1.0  0.44525  0.05069  0.85628  1.0000
  C   C143      1.0  0.23957  0.41858  0.83876  1.0000
  H   H101      1.0  0.17802  0.45713  0.79885  1.0000
  C   C144      1.0  0.05864  0.26709  0.85594  1.0000
  C   C145      1.0  0.46553  0.00890  0.85266  1.0000
  H   H102      1.0  0.08744  0.42572  0.95078  1.0000
  C   C146      1.0  0.43997  0.39889  0.87635  1.0000
  H   H103      1.0  0.16353  0.40428  0.89385  1.0000
  C   C147      1.0  0.08282  0.45059  0.79078  1.0000
  H   H104      1.0  0.02652  0.36252  0.76004  1.0000
  C   C148      1.0  0.40583  0.34197  0.96304  1.0000
  S   S18       1.0  0.30228  0.48484  0.89837  1.0000
  H   H105      1.0  0.12505  0.46168  0.82374  1.0000
  H   H106      1.0  0.17881  0.48659  0.88335  1.0000
  C   C149      1.0  0.07445  0.25277  0.83483  1.0000
  C   C150      1.0  0.43037  0.43601  0.74459  1.0000
  C   C151      1.0  0.06729  0.40851  0.90721  1.0000
  H   H107      1.0  0.40180  0.40961  0.74882  1.0000
  C   C152      1.0  0.10479  0.27913  0.81475  1.0000
  C   C153      1.0  0.33495  0.24527  0.88563  1.0000
  H   H108      1.0  0.43987  0.00492  0.75149  1.0000
  C   C154      1.0  0.40164  0.26486  0.86784  1.0000
  H   H109      1.0  0.44615  0.32494  0.87450  1.0000
  C   C155      1.0  0.04847  0.38414  0.77373  1.0000
  C   C156      1.0  0.25807  0.45164  0.81907  1.0000
  H   H110      1.0  0.29008  0.46761  0.81575  1.0000
  H   H111      1.0  0.42867  0.99459  0.97705  1.0000
  C   C157      1.0  0.33221  0.39933  0.93666  1.0000
  H   H112      1.0  0.29191  0.37165  0.87000  1.0000
  C   C158      1.0  0.39816  0.02011  0.66092  1.0000
  C   C159      1.0  0.30673  0.39262  0.91374  1.0000
  H   H113      1.0  0.05499  0.39282  0.86236  1.0000
  H   H114      1.0  0.11685  0.26802  0.79824  1.0000
  H   H115      1.0  0.34420  0.35390  0.86497  1.0000
  H   H116      1.0  0.03491  0.24665  0.87137  1.0000
  H   H117      1.0  0.42236  0.25765  0.85733  1.0000
  H   H118      1.0  0.08727  0.48033  0.79050  1.0000
  H   H119      1.0  0.32722  0.28980  0.90623  1.0000
  S   S19       1.0  0.07924  0.48500  0.86144  1.0000
  C   C160      1.0  0.01442  0.47745  0.96870  1.0000
  H   H120      1.0  0.06360  0.34309  0.79318  1.0000
  H   H121      1.0  0.03770  0.43095  0.75903  1.0000
  C   C161      1.0  0.34819  0.28340  0.89518  1.0000
  C   C162      1.0  0.36162  0.23605  0.87184  1.0000
  C   C163      1.0  0.99439  0.48047  0.76805  1.0000
  C   C164      1.0  0.05483  0.42269  0.77300  1.0000
  C   C165      1.0  0.44313  0.46680  0.76426  1.0000
  H   H122      1.0  0.28482  0.40192  0.91540  1.0000
  H   H123      1.0  0.04083  0.41062  0.91103  1.0000
  H   H124      1.0  0.46191  0.41497  0.80204  1.0000
  H   H125      1.0  0.44323  0.41562  0.70407  1.0000
  H   H126      1.0  0.32995  0.41379  0.95603  1.0000
  C   C166      1.0  0.41218  0.06042  0.66409  1.0000
  C   C167      1.0  0.46664  0.04450  0.84565  1.0000
  C   C168      1.0  0.47075  0.38153  0.93843  1.0000
  H   H127      1.0  0.22155  0.46556  0.90918  1.0000
  C   C169      1.0  0.44231  0.46605  0.97501  1.0000
  C   C170      1.0  0.45986  0.99345  0.74898  1.0000
  H   H128      1.0  0.41759  0.46548  0.96438  1.0000
  S   S20       1.0  0.05778  0.48898  0.94674  1.0000
  H   H129      1.0  0.47687  0.04012  0.91440  1.0000
  H   H130      1.0  0.47179  0.11623  0.72496  1.0000
  C   C171      1.0  0.23398  0.48780  0.89121  1.0000
  C   C172      1.0  0.48071  0.49056  0.96278  1.0000
  C   C173      1.0  0.48835  0.38170  0.96489  1.0000
  C   C174      1.0  0.28260  0.81793  0.25871  1.0000
  C   C175      1.0  0.17630  0.72999  0.18394  1.0000
  H   H131      1.0  0.16244  0.80188  0.21267  1.0000
  S   S21       1.0  0.42337  0.89220  0.28660  1.0000
  H   H132      1.0  0.45174  0.53816  0.22490  1.0000
  H   H133      1.0  0.31927  0.73980  0.29650  1.0000
  C   C176      1.0  0.45331  0.93601  0.26362  1.0000
  C   C177      1.0  0.16196  0.66600  0.28435  1.0000
  C   C178      1.0  0.03932  0.54470  0.04305  1.0000
  C   C179      1.0  0.36784  0.72907  0.28908  1.0000
  C   C180      1.0  0.16466  0.75842  0.18580  1.0000
  C   C181      1.0  0.02312  0.56928  0.04745  1.0000
  C   C182      1.0  0.48503  0.97013  0.27412  1.0000
  C   C183      1.0  0.42229  0.49350  0.19340  1.0000
  H   H134      1.0  0.27375  0.64058  0.27183  1.0000
  C   C184      1.0  0.05837  0.66356  0.05835  1.0000
  H   H135      1.0  0.46487  0.84564  0.14487  1.0000
  C   C185      1.0  0.44481  0.93631  0.23363  1.0000
  H   H136      1.0  0.03951  0.52056  0.25839  1.0000
  H   H137      1.0  0.10486  0.67572  0.00561  1.0000
  H   H138      1.0  0.00434  0.71741  0.02899  1.0000
  C   C186      1.0  0.19085  0.77359  0.23445  1.0000
  C   C187      1.0  0.26317  0.78338  0.27730  1.0000
  H   H139      1.0  0.34601  0.88146  0.30703  1.0000
  H   H140      1.0  0.32753  0.87984  0.25516  1.0000
  H   H141      1.0  0.45530  0.73561  0.20910  1.0000
  C   C188      1.0  0.42718  0.50897  0.22135  1.0000
  H   H142      1.0  0.35328  0.80552  0.26964  1.0000
  H   H143      1.0  0.17032  0.71284  0.16448  1.0000
  H   H144      1.0  0.18851  0.59942  0.26949  1.0000
  H   H145      1.0  0.42037  0.91022  0.22519  1.0000
  H   H146      1.0  0.04903  0.74419  0.07042  1.0000
  C   C189      1.0  0.19541  0.72344  0.20726  1.0000
  P   P6        1.0  0.02624  0.60384  0.01850  1.0000
  C   C190      1.0  0.25238  0.68158  0.26730  1.0000
  H   H147      1.0  0.42066  0.72680  0.27904  1.0000
  H   H148      1.0  0.16668  0.65338  0.26481  1.0000
  C   C191      1.0  0.06676  0.61596  0.99206  1.0000
  C   C192      1.0  0.34865  0.75105  0.28644  1.0000
  C   C193      1.0  0.25503  0.71401  0.25105  1.0000
  C   C194      1.0  0.28204  0.73052  0.22654  1.0000
  C   C195      1.0  0.30531  0.71413  0.21803  1.0000
  C   C196      1.0  0.30198  0.68137  0.23407  1.0000
  C   C197      1.0  0.27558  0.66518  0.25876  1.0000
  C   C198      1.0  0.46860  0.79650  0.20717  1.0000
  C   C199      1.0  0.06407  0.69806  0.07111  1.0000
  C   C200      1.0  0.45199  0.75511  0.16499  1.0000
  H   H149      1.0  0.11234  0.61046  0.30108  1.0000
  C   C201      1.0  0.20340  0.74571  0.23246  1.0000
  C   C202      1.0  0.03296  0.64812  0.03499  1.0000
  H   H150      1.0  0.14984  0.76347  0.16774  1.0000
  H   H151      1.0  0.27548  0.81764  0.23580  1.0000
  C   C203      1.0  0.01939  0.70234  0.03722  1.0000
  P   P7        1.0  0.47559  0.80258  0.24623  1.0000
  H   H152      1.0  0.28559  0.75646  0.21431  1.0000
  H   H153      1.0  0.32651  0.72736  0.19935  1.0000
  H   H154      1.0  0.32054  0.66916  0.22781  1.0000
  H   H155      1.0  0.20358  0.70082  0.20563  1.0000
  H   H156      1.0  0.44282  0.51171  0.17544  1.0000
  C   C204      1.0  0.36772  0.78805  0.27130  1.0000
  C   C205      1.0  0.32279  0.85420  0.29873  1.0000
  H   H157      1.0  0.30591  0.57604  0.30001  1.0000
  C   C206      1.0  0.00449  0.50076  0.21979  1.0000
  H   H158      1.0  0.05400  0.54565  0.02221  1.0000
  C   C207      1.0  0.31216  0.85325  0.26950  1.0000
  H   H159      1.0  0.31602  0.49973  0.11077  1.0000
  C   C208      1.0  0.17474  0.56970  0.26186  1.0000
  H   H160      1.0  0.11586  0.56146  0.26488  1.0000
  H   H161      1.0  0.48306  0.78141  0.30711  1.0000
  C   C209      1.0  0.17942  0.51295  0.24734  1.0000
  H   H162      1.0  0.46073  0.96959  0.19142  1.0000
  C   C210      1.0  0.01569  0.49576  0.24824  1.0000
  H   H163      1.0  0.08365  0.70978  0.08917  1.0000
  C   C211      1.0  0.18711  0.70611  0.28952  1.0000
  C   C212      1.0  0.46767  0.97001  0.21438  1.0000
  H   H164      1.0  0.19577  0.79027  0.25409  1.0000
  C   C213      1.0  0.27532  0.78429  0.30622  1.0000
  H   H165      1.0  0.42081  0.83250  0.24797  1.0000
  C   C214      1.0  0.40640  0.74438  0.27692  1.0000
  P   P8        1.0  0.22719  0.73706  0.26296  1.0000
  C   C215      1.0  0.45842  0.76012  0.19515  1.0000
  H   H166      1.0  0.23325  0.66955  0.28705  1.0000
  C   C216      1.0  0.42629  0.78230  0.26273  1.0000
  C   C217      1.0  0.17180  0.78010  0.21109  1.0000
  C   C218      1.0  0.40627  0.80350  0.25932  1.0000
  H   H167      1.0  0.02027  0.52944  0.20813  1.0000
  H   H168      1.0  0.07384  0.64895  0.06664  1.0000
  H   H169      1.0  0.45578  0.49729  0.05690  1.0000
  C   C219      1.0  0.30452  0.81970  0.31699  1.0000
  C   C220      1.0  0.19752  0.55193  0.25614  1.0000
  C   C221      1.0  0.13088  0.64164  0.30468  1.0000
  C   C222      1.0  0.01359  0.66783  0.02442  1.0000
  C   C223      1.0  0.13379  0.54836  0.25920  1.0000
  C   C224      1.0  0.45476  0.78606  0.14681  1.0000
  H   H170      1.0  0.35625  0.61083  0.98996  1.0000
  C   C225      1.0  0.00331  0.56617  0.07467  1.0000
  C   C226      1.0  0.11565  0.50934  0.25063  1.0000
  C   C227      1.0  0.04458  0.71744  0.06056  1.0000
  H   H171      1.0  0.01213  0.49285  0.10961  1.0000
  H   H172      1.0  0.44475  0.72720  0.15571  1.0000
  C   C228      1.0  0.01581  0.51452  0.09241  1.0000
  C   C229      1.0  0.17920  0.72192  0.31451  1.0000
  H   H173      1.0  0.19727  0.49914  0.24416  1.0000
  H   H174      1.0  0.99405  0.65675  0.00633  1.0000
  C   C230      1.0  0.46983  0.82692  0.18897  1.0000
  H   H175      1.0  0.08371  0.49236  0.25023  1.0000
  H   H176      1.0  0.47539  0.85451  0.19801  1.0000
  C   C231      1.0  0.03570  0.51750  0.06549  1.0000
  H   H177      1.0  0.44989  0.78226  0.12342  1.0000
  C   C232      1.0  0.46336  0.82182  0.15885  1.0000
  H   H178      1.0  0.22900  0.56796  0.25940  1.0000
  C   C233      1.0  0.10100  0.65360  0.99026  1.0000
  H   H179      1.0  0.98979  0.58414  0.07845  1.0000
  H   H180      1.0  0.04742  0.49797  0.06168  1.0000
  H   H181      1.0  0.35309  0.70047  0.30101  1.0000
  H   H182      1.0  0.37342  0.49832  0.13110  1.0000
  C   C234      1.0  0.99983  0.53900  0.09704  1.0000
  H   H183      1.0  0.47381  0.84870  0.29571  1.0000
  H   H184      1.0  0.40549  0.49803  0.26685  1.0000
  H   H185      1.0  0.21742  0.55740  0.42389  1.0000
  H   H186      1.0  0.42573  0.55860  0.47783  1.0000
  C   C235      1.0  0.27068  0.51522  0.44733  1.0000
  C   C236      1.0  0.17435  0.54207  0.52324  1.0000
  C   C237      1.0  0.22391  0.53598  0.43412  1.0000
  H   H187      1.0  0.36511  0.92183  0.50718  1.0000
  Fe  Fe7       1.0  0.42889  0.56333  0.35148  1.0000
  C   C238      1.0  0.15075  0.60463  0.44782  1.0000
  S   S22       1.0  0.40724  0.54201  0.39846  1.0000
  C   C239      1.0  0.36434  0.92744  0.53042  1.0000
  S   S23       1.0  0.12232  0.49815  0.32728  1.0000
  S   S24       1.0  0.19428  0.60819  0.33306  1.0000
  Fe  Fe8       1.0  0.06661  0.50976  0.39542  1.0000
  S   S25       1.0  0.07381  0.54190  0.35120  1.0000
  S   S26       1.0  0.03517  0.51883  0.43518  1.0000
  H   H188      1.0  0.07128  0.60716  0.47797  1.0000
  Fe  Fe9       1.0  0.13683  0.55395  0.35037  1.0000
  C   C240      1.0  0.31619  0.91946  0.64743  1.0000
  S   S27       1.0  0.13111  0.52725  0.39597  1.0000
  Fe  Fe10      1.0  0.35855  0.81374  0.38199  1.0000
  S   S28       1.0  0.29242  0.77280  0.39306  1.0000
  Fe  Fe11      1.0  0.43310  0.88812  0.40162  1.0000
  H   H189      1.0  0.28977  0.77578  0.63780  1.0000
  H   H190      1.0  0.46659  0.91250  0.53469  1.0000
  Fe  Fe12      1.0  0.43802  0.81780  0.37724  1.0000
  H   H191      1.0  0.27657  0.66725  0.32881  1.0000
  S   S29       1.0  0.38508  0.87897  0.37068  1.0000
  S   S30       1.0  0.40338  0.82332  0.41568  1.0000
  P   P9        1.0  0.12277  0.52167  0.51521  1.0000
  S   S31       1.0  0.47569  0.54517  0.35209  1.0000
  C   C241      1.0  0.22145  0.65200  0.35217  1.0000
  C   C242      1.0  0.20326  0.66422  0.37304  1.0000
  C   C243      1.0  0.22536  0.70113  0.38567  1.0000
  C   C244      1.0  0.26586  0.72582  0.37783  1.0000
  C   C245      1.0  0.28423  0.71292  0.35770  1.0000
  C   C246      1.0  0.10723  0.53062  0.57459  1.0000
  H   H192      1.0  0.17193  0.64587  0.37866  1.0000
  H   H193      1.0  0.21095  0.71085  0.40129  1.0000
  H   H194      1.0  0.31547  0.73125  0.35193  1.0000
  C   C247      1.0  0.26215  0.66073  0.46085  1.0000
  H   H195      1.0  0.31031  0.87285  0.54127  1.0000
  C   C248      1.0  0.46223  0.92509  0.48863  1.0000
  C   C249      1.0  0.31561  0.78794  0.65100  1.0000
  H   H196      1.0  0.17252  0.61752  0.42946  1.0000
  C   C250      1.0  0.41745  0.67962  0.33867  1.0000
  C   C251      1.0  0.42466  0.71546  0.35062  1.0000
  C   C252      1.0  0.09152  0.51265  0.54812  1.0000
  C   C253      1.0  0.14811  0.69744  0.33483  1.0000
  H   H197      1.0  0.30922  0.88505  0.59412  1.0000
  H   H198      1.0  0.48370  0.93630  0.63107  1.0000
  H   H199      1.0  0.24920  0.60076  0.46674  1.0000
  C   C254      1.0  0.26720  0.62866  0.45446  1.0000
  C   C255      1.0  0.47184  0.93534  0.51813  1.0000
  C   C256      1.0  0.39922  0.93908  0.64699  1.0000
  C   C257      1.0  0.47322  0.71348  0.38138  1.0000
  C   C258      1.0  0.23482  0.53839  0.52211  1.0000
  P   P10       1.0  0.36474  0.95083  0.62984  1.0000
  H   H200      1.0  0.45762  0.59173  0.61758  1.0000
  H   H201      1.0  0.09373  0.49535  0.45596  1.0000
  H   H202      1.0  0.14288  0.70956  0.35450  1.0000
  H   H203      1.0  0.28781  0.59117  0.53327  1.0000
  C   C259      1.0  0.35347  0.80938  0.63721  1.0000
  H   H204      1.0  0.31343  0.82031  0.33944  1.0000
  S   S32       1.0  0.47150  0.88364  0.36521  1.0000
  P   P11       1.0  0.30353  0.59277  0.42406  1.0000
  C   C260      1.0  0.29547  0.63304  0.43251  1.0000
  C   C261      1.0  0.34860  0.60457  0.44193  1.0000
  C   C262      1.0  0.38567  0.62815  0.42708  1.0000
  C   C263      1.0  0.42044  0.63905  0.44175  1.0000
  C   C264      1.0  0.41852  0.62729  0.47142  1.0000
  C   C265      1.0  0.38176  0.60456  0.48655  1.0000
  C   C266      1.0  0.34693  0.59355  0.47195  1.0000
  C   C267      1.0  0.31977  0.67026  0.41809  1.0000
  C   C268      1.0  0.31537  0.70243  0.42512  1.0000
  C   C269      1.0  0.28621  0.69760  0.44612  1.0000
  C   C270      1.0  0.30663  0.59018  0.38455  1.0000
  C   C271      1.0  0.33113  0.57762  0.37135  1.0000
  C   C272      1.0  0.33094  0.57284  0.34091  1.0000
  C   C273      1.0  0.26207  0.67644  0.34474  1.0000
  C   C274      1.0  0.28118  0.59204  0.33657  1.0000
  C   C275      1.0  0.28140  0.59707  0.36697  1.0000
  H   H205      1.0  0.38789  0.63876  0.40435  1.0000
  H   H206      1.0  0.44899  0.65711  0.43023  1.0000
  H   H207      1.0  0.44562  0.63611  0.48266  1.0000
  H   H208      1.0  0.38032  0.59576  0.50964  1.0000
  H   H209      1.0  0.31872  0.57687  0.48417  1.0000
  H   H210      1.0  0.34238  0.67460  0.40151  1.0000
  H   H211      1.0  0.33425  0.73112  0.41390  1.0000
  H   H212      1.0  0.28232  0.72257  0.45076  1.0000
  H   H213      1.0  0.34973  0.57062  0.38448  1.0000
  H   H214      1.0  0.12218  0.63800  0.43671  1.0000
  C   C276      1.0  0.15029  0.57562  0.46690  1.0000
  H   H215      1.0  0.25361  0.62943  0.54129  1.0000
  H   H216      1.0  0.26127  0.60560  0.37674  1.0000
  H   H217      1.0  0.26235  0.75769  0.32052  1.0000
  C   C277      1.0  0.12188  0.55836  0.49055  1.0000
  H   H218      1.0  0.40913  0.73021  0.34297  1.0000
  H   H219      1.0  0.30055  0.52020  0.44703  1.0000
  C   C278      1.0  0.26321  0.54515  0.43732  1.0000
  C   C279      1.0  0.45330  0.73305  0.37158  1.0000
  C   C280      1.0  0.48818  0.97477  0.52634  1.0000
  H   H220      1.0  0.17185  0.56633  0.46303  1.0000
  Fe  Fe13      1.0  0.42201  0.87158  0.33514  1.0000
  C   C281      1.0  0.12251  0.61629  0.45197  1.0000
  H   H221      1.0  0.27848  0.49744  0.36917  1.0000
  S   S33       1.0  0.39179  0.80525  0.34451  1.0000
  C   C282      1.0  0.39445  0.96227  0.54113  1.0000
  C   C283      1.0  0.43100  0.94079  0.63040  1.0000
  Fe  Fe14      1.0  0.44991  0.51881  0.39831  1.0000
  H   H222      1.0  0.44984  0.89469  0.48272  1.0000
  C   C284      1.0  0.40654  0.52752  0.48393  1.0000
  C   C285      1.0  0.25622  0.57743  0.53056  1.0000
  H   H223      1.0  0.24984  0.52185  0.51805  1.0000
  C   C286      1.0  0.09398  0.59909  0.47535  1.0000
  S   S34       1.0  0.45725  0.94345  0.42918  1.0000
  C   C287      1.0  0.33366  0.89983  0.54969  1.0000
  H   H224      1.0  0.48209  0.66339  0.37687  1.0000
  C   C288      1.0  0.12417  0.65726  0.33004  1.0000
  C   C289      1.0  0.39437  0.96934  0.57113  1.0000
  C   C290      1.0  0.33327  0.90693  0.57975  1.0000
  C   C291      1.0  0.23693  0.59897  0.53516  1.0000
  C   C292      1.0  0.04131  0.49764  0.59845  1.0000
  H   H225      1.0  0.07064  0.55665  0.51210  1.0000
  C   C293      1.0  0.36378  0.94176  0.59080  1.0000
  C   C294      1.0  0.19624  0.58147  0.53136  1.0000
  H   H226      1.0  0.35708  0.81392  0.61335  1.0000
  H   H227      1.0  0.18187  0.59888  0.53427  1.0000
  H   H228      1.0  0.10050  0.63814  0.34603  1.0000
  H   H229      1.0  0.45044  0.52489  0.62287  1.0000
  C   C295      1.0  0.46880  0.95424  0.46686  1.0000
  H   H230      1.0  0.13863  0.55029  0.57613  1.0000
  C   C296      1.0  0.43801  0.66049  0.34810  1.0000
  C   C297      1.0  0.09356  0.57016  0.49459  1.0000
  H   H231      1.0  0.23968  0.65715  0.47720  1.0000
  C   C298      1.0  0.08212  0.52313  0.59962  1.0000
  H   H232      1.0  0.44626  0.52560  0.51495  1.0000
  C   C299      1.0  0.46553  0.67736  0.36983  1.0000
  H   H233      1.0  0.43516  0.94830  0.60697  1.0000
  S   S35       1.0  0.46763  0.78059  0.38452  1.0000
  H   H234      1.0  0.41835  0.98360  0.52622  1.0000
  H   H235      1.0  0.09412  0.53705  0.62004  1.0000
  C   C300      1.0  0.45865  0.93368  0.64409  1.0000
  S   S36       1.0  0.38320  0.50652  0.33236  1.0000
  C   C301      1.0  0.41826  0.50881  0.50470  1.0000
  C   C302      1.0  0.19265  0.49840  0.44296  1.0000
  C   C303      1.0  0.19409  0.52076  0.51843  1.0000
  H   H236      1.0  0.34977  0.56296  0.33086  1.0000
  H   H237      1.0  0.36214  0.52012  0.45369  1.0000
  S   S37       1.0  0.48649  0.52813  0.43936  1.0000
  C   C304      1.0  0.30612  0.58015  0.32351  1.0000
  H   H238      1.0  0.26112  0.59670  0.32329  1.0000
  C   C305      1.0  0.45585  0.57857  0.63935  1.0000
  H   H239      1.0  0.32199  0.86720  0.64936  1.0000
  H   H240      1.0  0.39629  0.66693  0.32174  1.0000
  C   C306      1.0  0.45174  0.54094  0.64227  1.0000
  H   H241      1.0  0.41611  0.84243  0.64353  1.0000
  H   H242      1.0  0.99679  0.52701  0.48722  1.0000
  S   S38       1.0  0.43239  0.61866  0.32968  1.0000
  H   H243      1.0  0.30047  0.96538  0.64883  1.0000
  C   C307      1.0  0.37103  0.50573  0.47004  1.0000
  C   C308      1.0  0.48331  0.49295  0.46712  1.0000
  C   C309      1.0  0.98928  0.49635  0.48715  1.0000
  H   H244      1.0  0.19684  0.75302  0.31854  1.0000
  C   C310      1.0  0.29117  0.93465  0.65416  1.0000
  H   H245      1.0  0.46207  0.62876  0.66166  1.0000
  C   C311      1.0  0.27396  0.50373  0.88195  1.0000
  S   S39       1.0  0.38565  0.53388  0.83512  1.0000
  H   H246      1.0  0.46678  0.78384  0.78718  1.0000
  C   C312      1.0  0.09191  0.59836  0.94902  1.0000
  S   S40       1.0  0.43402  0.94640  0.93253  1.0000
  Fe  Fe15      1.0  0.43826  0.58259  0.85587  1.0000
  H   H247      1.0  0.29323  0.68456  0.79885  1.0000
  S   S41       1.0  0.41710  0.55889  0.90260  1.0000
  Fe  Fe16      1.0  0.13958  0.53741  0.85024  1.0000
  S   S42       1.0  0.11637  0.56787  0.82067  1.0000
  C   C313      1.0  0.34428  0.55977  0.78092  1.0000
  C   C314      1.0  0.43182  0.73305  0.88514  1.0000
  S   S43       1.0  0.04883  0.54777  0.87402  1.0000
  H   H248      1.0  0.14763  0.64386  0.92902  1.0000
  C   C315      1.0  0.41625  0.58942  0.74772  1.0000
  H   H249      1.0  0.21169  0.85132  0.68541  1.0000
  Fe  Fe17      1.0  0.11208  0.59560  0.86231  1.0000
  S   S44       1.0  0.12963  0.66008  0.86503  1.0000
  S   S45       1.0  0.13890  0.56842  0.89074  1.0000
  Fe  Fe18      1.0  0.36044  0.83787  0.86229  1.0000
  S   S46       1.0  0.40131  0.82152  0.83895  1.0000
  S   S47       1.0  0.29779  0.81775  0.84902  1.0000
  Fe  Fe19      1.0  0.42618  0.89810  0.90101  1.0000
  H   H250      1.0  0.34911  0.72676  0.83004  1.0000
  Fe  Fe20      1.0  0.44577  0.88704  0.83662  1.0000
  C   C316      1.0  0.42310  0.92265  0.69120  1.0000
  Fe  Fe21      1.0  0.42300  0.82074  0.88416  1.0000
  H   H251      1.0  0.42074  0.91681  0.71493  1.0000
  S   S48       1.0  0.40340  0.90339  0.85689  1.0000
  S   S49       1.0  0.37941  0.83387  0.90772  1.0000
  H   H252      1.0  0.15620  0.69280  0.96590  1.0000
  C   C317      1.0  0.22257  0.57082  0.92848  1.0000
  H   H253      1.0  0.03414  0.53463  0.70305  1.0000
  C   C318      1.0  0.44774  0.82247  0.76831  1.0000
  C   C319      1.0  0.25764  0.64428  0.83498  1.0000
  C   C320      1.0  0.48619  0.95211  0.97590  1.0000
  H   H254      1.0  0.37710  0.58083  0.95101  1.0000
  C   C321      1.0  0.17784  0.70221  0.86196  1.0000
  C   C322      1.0  0.18073  0.73873  0.85512  1.0000
  C   C323      1.0  0.21768  0.77334  0.85171  1.0000
  C   C324      1.0  0.25265  0.77250  0.85584  1.0000
  C   C325      1.0  0.25018  0.73613  0.86344  1.0000
  C   C326      1.0  0.21270  0.70086  0.86627  1.0000
  H   H255      1.0  0.15411  0.74022  0.85190  1.0000
  H   H256      1.0  0.21915  0.80111  0.84578  1.0000
  H   H257      1.0  0.27702  0.73514  0.86658  1.0000
  H   H258      1.0  0.21066  0.67282  0.87185  1.0000
  C   C327      1.0  0.45646  0.58269  0.69277  1.0000
  H   H259      1.0  0.28143  0.76703  0.69213  1.0000
  S   S50       1.0  0.45661  0.64471  0.83733  1.0000
  H   H260      1.0  0.43731  0.95600  0.78921  1.0000
  C   C328      1.0  0.32283  0.70100  0.83971  1.0000
  C   C329      1.0  0.48025  0.50067  0.75857  1.0000
  C   C330      1.0  0.31104  0.78264  0.68182  1.0000
  C   C331      1.0  0.43496  0.67198  0.88620  1.0000
  Fe  Fe22      1.0  0.41949  0.50131  0.83360  1.0000
  H   H261      1.0  0.27943  0.77975  0.78730  1.0000
  C   C332      1.0  0.45826  0.96561  0.77041  1.0000
  Fe  Fe23      1.0  0.36600  0.50874  0.88138  1.0000
  C   C333      1.0  0.29149  0.67730  0.82222  1.0000
  C   C334      1.0  0.45825  0.96205  0.96650  1.0000
  P   P12       1.0  0.46217  0.61000  0.72551  1.0000
  H   H262      1.0  0.23332  0.62581  0.82146  1.0000
  H   H263      1.0  0.15625  0.58954  0.98323  1.0000
  C   C335      1.0  0.17495  0.58441  0.96803  1.0000
  H   H264      1.0  0.35802  0.58230  0.89944  1.0000
  P   P13       1.0  0.33860  0.79447  0.73902  1.0000
  C   C336      1.0  0.37914  0.79115  0.75465  1.0000
  C   C337      1.0  0.34443  0.79829  0.69910  1.0000
  C   C338      1.0  0.38233  0.81984  0.68502  1.0000
  H   H265      1.0  0.13514  0.52145  0.96894  1.0000
  H   H266      1.0  0.45061  0.53132  0.71700  1.0000
  C   C339      1.0  0.37432  0.75422  0.76391  1.0000
  C   C340      1.0  0.40578  0.75162  0.77562  1.0000
  C   C341      1.0  0.44250  0.78574  0.77776  1.0000
  C   C342      1.0  0.41616  0.82535  0.75711  1.0000
  C   C343      1.0  0.33816  0.83835  0.75006  1.0000
  C   C344      1.0  0.32392  0.85718  0.73123  1.0000
  C   C345      1.0  0.32168  0.88995  0.74025  1.0000
  C   C346      1.0  0.33367  0.90420  0.76815  1.0000
  C   C347      1.0  0.34745  0.88542  0.78709  1.0000
  C   C348      1.0  0.34973  0.85265  0.77815  1.0000
  H   H267      1.0  0.40855  0.83314  0.69771  1.0000
  H   H268      1.0  0.31692  0.54812  0.79417  1.0000
  C   C349      1.0  0.44967  0.52403  0.67031  1.0000
  H   H269      1.0  0.34635  0.72733  0.76241  1.0000
  H   H270      1.0  0.40164  0.72320  0.78342  1.0000
  H   H271      1.0  0.42076  0.85435  0.75062  1.0000
  H   H272      1.0  0.31413  0.84641  0.70973  1.0000
  H   H273      1.0  0.31034  0.90412  0.72575  1.0000
  H   H274      1.0  0.33166  0.92933  0.77541  1.0000
  H   H275      1.0  0.35522  0.89552  0.80912  1.0000
  H   H276      1.0  0.35928  0.83780  0.79357  1.0000
  H   H277      1.0  0.04927  0.53366  0.75593  1.0000
  H   H278      1.0  0.38820  0.53169  0.72899  1.0000
  C   C350      1.0  0.02164  0.51059  0.74816  1.0000
  H   H279      1.0  0.43327  0.64708  0.89863  1.0000
  C   C351      1.0  0.45194  0.54474  0.69543  1.0000
  C   C352      1.0  0.29201  0.75138  0.75137  1.0000
  C   C353      1.0  0.26965  0.75288  0.77562  1.0000
  H   H280      1.0  0.43486  0.64233  0.77212  1.0000
  C   C354      1.0  0.25483  0.63507  0.86532  1.0000
  C   C355      1.0  0.44807  0.71042  0.84023  1.0000
  H   H281      1.0  0.45628  0.71498  0.81688  1.0000
  H   H282      1.0  0.32566  0.50603  0.75835  1.0000
  H   H283      1.0  0.37188  0.77296  0.97093  1.0000
  H   H284      1.0  0.22823  0.60949  0.87467  1.0000
  H   H285      1.0  0.31983  0.61415  0.88644  1.0000
  C   C356      1.0  0.29010  0.53323  0.85916  1.0000
  C   C357      1.0  0.23406  0.71927  0.78535  1.0000
  C   C358      1.0  0.27878  0.71531  0.73776  1.0000
  H   H286      1.0  0.21671  0.72074  0.80382  1.0000
  H   H287      1.0  0.29606  0.71312  0.71957  1.0000
  C   C359      1.0  0.38677  0.82534  0.65422  1.0000
  H   H288      1.0  0.24405  0.69656  0.92347  1.0000
  H   H289      1.0  0.44398  0.76365  0.84260  1.0000
  C   C360      1.0  0.32008  0.69191  0.87004  1.0000
  C   C361      1.0  0.45024  0.98672  0.98397  1.0000
  H   H290      1.0  0.42112  0.69556  0.92423  1.0000
  C   C362      1.0  0.34307  0.75529  0.96192  1.0000
  C   C363      1.0  0.26599  0.54518  0.84481  1.0000
  C   C364      1.0  0.18687  0.53915  0.94035  1.0000
  C   C365      1.0  0.34839  0.61192  0.96739  1.0000
  H   H291      1.0  0.34454  0.71075  0.88336  1.0000
  C   C366      1.0  0.28585  0.65917  0.88311  1.0000
  C   C367      1.0  0.45465  0.92448  0.67447  1.0000
  C   C368      1.0  0.22092  0.68367  0.77157  1.0000
  C   C369      1.0  0.12557  0.63596  0.94699  1.0000
  C   C370      1.0  0.32592  0.62959  0.96024  1.0000
  H   H292      1.0  0.47858  0.61695  0.78857  1.0000
  C   C371      1.0  0.30308  0.87940  0.65446  1.0000
  C   C372      1.0  0.34963  0.59597  0.91642  1.0000
  C   C373      1.0  0.32801  0.61437  0.90907  1.0000
  S   S51       1.0  0.47149  0.88508  0.88039  1.0000
  H   H293      1.0  0.00840  0.61773  0.95841  1.0000
  C   C374      1.0  0.24334  0.68164  0.74782  1.0000
  C   C375      1.0  0.31717  0.77016  0.96000  1.0000
  C   C376      1.0  0.44522  0.67738  0.85595  1.0000
  C   C377      1.0  0.47657  0.66075  0.71548  1.0000
  H   H294      1.0  0.35449  0.70898  0.95087  1.0000
  C   C378      1.0  0.37525  0.59799  0.78487  1.0000
  C   C379      1.0  0.33289  0.71865  0.95069  1.0000
  C   C380      1.0  0.23474  0.60967  0.93616  1.0000
  H   H295      1.0  0.26252  0.76144  0.94302  1.0000
  C   C381      1.0  0.01294  0.51104  0.71815  1.0000
  H   H296      1.0  0.37259  0.93054  0.69102  1.0000
  H   H297      1.0  0.19350  0.65763  0.77957  1.0000
  C   C382      1.0  0.48456  0.95118  0.76787  1.0000
  H   H298      1.0  0.24085  0.56501  0.91337  1.0000
  H   H299      1.0  0.37206  0.61581  0.80143  1.0000
  P   P14       1.0  0.28279  0.64935  0.92248  1.0000
  H   H300      1.0  0.27849  0.56751  0.82686  1.0000
  H   H301      1.0  0.23326  0.65383  0.73740  1.0000
  H   H302      1.0  0.47658  0.91984  0.68519  1.0000
  C   C383      1.0  0.44783  0.67009  0.70670  1.0000
  H   H303      1.0  0.44354  0.98772  0.86886  1.0000
  C   C384      1.0  0.31629  0.63167  0.93089  1.0000
  C   C385      1.0  0.21083  0.61615  0.95640  1.0000
  C   C386      1.0  0.29621  0.69616  0.93805  1.0000
  H   H304      1.0  0.43588  0.71648  0.69356  1.0000
  S   S52       1.0  0.48588  0.91801  0.79503  1.0000
  C   C387      1.0  0.22563  0.52791  0.85317  1.0000
  C   C388      1.0  0.36015  0.59501  0.94548  1.0000
  Fe  Fe24      1.0  0.44828  0.52387  0.89670  1.0000
  S   S53       1.0  0.47414  0.55188  0.85098  1.0000
  C   C389      1.0  0.13027  0.66349  0.96775  1.0000
  S   S54       1.0  0.19528  0.53939  0.83169  1.0000
  S   S55       1.0  0.42574  0.76832  0.90488  1.0000
  C   C390      1.0  0.38510  0.55078  0.74421  1.0000
  C   C391      1.0  0.44113  0.73801  0.85471  1.0000
  C   C392      1.0  0.27124  0.71220  0.93494  1.0000
  H   H305      1.0  0.41724  0.64696  0.70541  1.0000
  C   C393      1.0  0.42834  0.69969  0.90070  1.0000
  C   C394      1.0  0.34928  0.53609  0.76076  1.0000
  Fe  Fe25      1.0  0.07605  0.51836  0.89998  1.0000
  H   H306      1.0  0.08792  0.57694  0.93298  1.0000
  C   C395      1.0  0.24080  0.87028  0.67480  1.0000
  C   C396      1.0  0.45827  0.70941  0.69996  1.0000
  H   H307      1.0  0.17747  0.50936  0.93405  1.0000
  C   C397      1.0  0.39575  0.93030  0.67757  1.0000
  C   C398      1.0  0.20984  0.49976  0.87681  1.0000
  Fe  Fe26      1.0  0.05562  0.51741  0.83441  1.0000
  H   H308      1.0  0.32099  0.54647  0.85226  1.0000
  C   C399      1.0  0.28156  0.74891  0.94605  1.0000
  H   H309      1.0  0.21976  0.64531  0.96371  1.0000
  C   C400      1.0  0.41103  0.61280  0.76834  1.0000
  C   C401      1.0  0.26542  0.85487  0.66796  1.0000
  H   H310      1.0  0.47618  0.84893  0.77032  1.0000
  C   C402      1.0  0.25367  0.91013  0.66790  1.0000
  H   H311      1.0  0.03635  0.55950  0.97201  1.0000
  H   H312      1.0  0.23451  0.92204  0.67311  1.0000
  C   C403      1.0  0.06267  0.58844  0.97134  1.0000
  C   C404      1.0  0.45825  0.59945  0.66449  1.0000
  H   H313      1.0  0.25532  0.82394  0.67324  1.0000
  H   H314      1.0  0.44695  0.49503  0.67262  1.0000
  H   H315      1.0  0.31571  0.64128  0.97758  1.0000
  C   C405      1.0  0.16303  0.54596  0.96005  1.0000
  H   H316      1.0  0.32569  0.79910  0.96795  1.0000
  C   C406      1.0  0.50632  0.46834  0.00363  1.0000
  H   H317      1.0  0.83176  0.31876  0.19378  1.0000
  Fe  Fe27      1.0  0.56460  0.39197  0.10204  1.0000
  S   S56       1.0  0.53768  0.37000  0.14790  1.0000
  H   H318      1.0  0.56426  0.31283  0.13269  1.0000
  C   C407      1.0  0.75298  0.26004  0.01652  1.0000
  C   C408      1.0  0.77105  0.29015  0.21051  1.0000
  Fe  Fe28      1.0  0.52326  0.41913  0.14633  1.0000
  H   H319      1.0  0.61137  0.29038  0.11954  1.0000
  S   S57       1.0  0.50836  0.35344  0.07913  1.0000
  Fe  Fe29      1.0  0.88700  0.42964  0.07677  1.0000
  S   S58       1.0  0.90485  0.39674  0.10883  1.0000
  S   S59       1.0  0.90364  0.44852  0.02769  1.0000
  Fe  Fe30      1.0  0.82975  0.43354  0.12323  1.0000
  S   S60       1.0  0.84401  0.40198  0.15894  1.0000
  C   C409      1.0  0.96461  0.42698  0.24993  1.0000
  Fe  Fe31      1.0  0.90776  0.43949  0.14254  1.0000
  C   C410      1.0  0.61793  0.10305  0.04173  1.0000
  Fe  Fe32      1.0  0.83967  0.36171  0.12295  1.0000
  S   S61       1.0  0.80649  0.29506  0.13192  1.0000
  S   S62       1.0  0.82157  0.39104  0.08840  1.0000
  H   H320      1.0  0.58840  0.23709  0.07329  1.0000
  S   S63       1.0  0.53184  0.11220  0.07460  1.0000
  S   S64       1.0  0.55462  0.44429  0.10129  1.0000
  Fe  Fe33      1.0  0.52593  0.06514  0.15343  1.0000
  S   S65       1.0  0.57368  0.07717  0.11841  1.0000
  C   C411      1.0  0.51420  0.23297  0.30138  1.0000
  Fe  Fe34      1.0  0.57723  0.13580  0.10910  1.0000
  S   S66       1.0  0.62607  0.19953  0.09961  1.0000
  Fe  Fe35      1.0  0.52405  0.05234  0.08645  1.0000
  C   C412      1.0  0.71659  0.41176  0.03366  1.0000
  S   S67       1.0  0.53331  0.12598  0.14596  1.0000
  C   C413      1.0  0.78279  0.46161  0.04543  1.0000
  H   H321      1.0  0.60779  0.23271  0.14692  1.0000
  H   H322      1.0  0.80244  0.48920  0.05533  1.0000
  P   P15       1.0  0.69813  0.34049  0.00784  1.0000
  H   H323      1.0  0.76627  0.24151  0.01860  1.0000
  C   C414      1.0  0.75582  0.26837  0.12417  1.0000
  C   C415      1.0  0.73639  0.28791  0.11388  1.0000
  C   C416      1.0  0.69655  0.26617  0.10671  1.0000
  C   C417      1.0  0.67549  0.22476  0.11027  1.0000
  C   C418      1.0  0.69458  0.20508  0.12103  1.0000
  C   C419      1.0  0.73467  0.22688  0.12800  1.0000
  H   H324      1.0  0.75204  0.31979  0.11140  1.0000
  H   H325      1.0  0.68195  0.28162  0.09849  1.0000
  H   H326      1.0  0.67868  0.17314  0.12355  1.0000
  H   H327      1.0  0.74947  0.21154  0.13606  1.0000
  H   H328      1.0  0.65835  0.36211  0.16557  1.0000
  H   H329      1.0  0.57322  0.27875  0.22666  1.0000
  H   H330      1.0  0.85746  0.36280  0.23566  1.0000
  H   H331      1.0  0.71237  0.24013  0.28893  1.0000
  C   C420      1.0  0.53364  0.26776  0.16777  1.0000
  C   C421      1.0  0.94680  0.45941  0.00567  1.0000
  C   C422      1.0  0.66152  0.40158  0.10290  1.0000
  C   C423      1.0  0.68311  0.38184  0.09961  1.0000
  C   C424      1.0  0.72214  0.39870  0.10894  1.0000
  C   C425      1.0  0.73989  0.43555  0.12149  1.0000
  H   H332      1.0  0.67005  0.35396  0.08898  1.0000
  H   H333      1.0  0.73883  0.38369  0.10571  1.0000
  H   H334      1.0  0.73911  0.31339  0.27348  1.0000
  H   H335      1.0  0.72881  0.20660  0.22733  1.0000
  H   H336      1.0  0.54526  0.26616  0.06736  1.0000
  C   C426      1.0  0.57390  0.27963  0.05554  1.0000
  C   C427      1.0  0.50545  0.45664  0.21610  1.0000
  H   H337      1.0  0.67901  0.20161  0.04824  1.0000
  C   C428      1.0  0.58722  0.24260  0.15287  1.0000
  C   C429      1.0  0.56283  0.28793  0.14510  1.0000
  C   C430      1.0  0.67808  0.28730  0.20985  1.0000
  P   P16       1.0  0.49591  0.20982  0.21422  1.0000
  S   S68       1.0  0.61500  0.38218  0.08708  1.0000
  C   C431      1.0  0.50813  0.00368  0.25480  1.0000
  H   H338      1.0  0.81106  0.35991  0.27545  1.0000
  C   C432      1.0  0.62321  0.22434  0.26633  1.0000
  C   C433      1.0  0.58929  0.27511  0.13746  1.0000
  C   C434      1.0  0.55856  0.22270  0.17581  1.0000
  C   C435      1.0  0.69140  0.15754  0.20167  1.0000
  C   C436      1.0  0.65709  0.13952  0.18577  1.0000
  C   C437      1.0  0.63444  0.15780  0.18230  1.0000
  C   C438      1.0  0.64597  0.19411  0.19463  1.0000
  C   C439      1.0  0.68051  0.21254  0.21050  1.0000
  C   C440      1.0  0.70283  0.19368  0.21433  1.0000
  P   P17       1.0  0.69193  0.25614  0.23013  1.0000
  C   C441      1.0  0.74457  0.28766  0.23324  1.0000
  C   C442      1.0  0.81162  0.31683  0.21162  1.0000
  C   C443      1.0  0.82602  0.34174  0.23512  1.0000
  C   C444      1.0  0.79979  0.34006  0.25753  1.0000
  C   C445      1.0  0.75914  0.31339  0.25648  1.0000
  H   H339      1.0  0.70882  0.14320  0.20448  1.0000
  H   H340      1.0  0.64778  0.11124  0.17627  1.0000
  H   H341      1.0  0.60777  0.14358  0.17013  1.0000
  H   H342      1.0  0.62761  0.20739  0.19210  1.0000
  S   S69       1.0  0.53032  0.04724  0.20150  1.0000
  S   S70       1.0  0.53548  0.46136  0.18401  1.0000
  H   H343      1.0  0.69810  0.27768  0.16777  1.0000
  C   C446      1.0  0.67883  0.43782  0.11623  1.0000
  C   C447      1.0  0.53131  0.23494  0.18338  1.0000
  C   C448      1.0  0.66369  0.30901  0.22458  1.0000
  H   H344      1.0  0.76047  0.27219  0.19149  1.0000
  H   H345      1.0  0.51249  0.27735  0.17223  1.0000
  H   H346      1.0  0.55750  0.19752  0.18741  1.0000
  C   C449      1.0  0.68583  0.29329  0.17926  1.0000
  C   C450      1.0  0.67871  0.32016  0.16344  1.0000
  H   H347      1.0  0.68507  0.32471  0.13982  1.0000
  C   C451      1.0  0.57283  0.28309  0.27364  1.0000
  C   C452      1.0  0.63425  0.17607  0.01623  1.0000
  C   C453      1.0  0.68150  0.23225  0.28996  1.0000
  C   C454      1.0  0.66359  0.34112  0.17802  1.0000
  C   C455      1.0  0.55662  0.26537  0.24735  1.0000
  H   H348      1.0  0.64509  0.35231  0.21999  1.0000
  C   C456      1.0  0.73106  0.38773  0.02303  1.0000
  C   C457      1.0  0.66398  0.23756  0.26493  1.0000
  C   C458      1.0  0.65593  0.33542  0.20860  1.0000
  H   H349      1.0  0.65937  0.30626  0.24837  1.0000
  H   H350      1.0  0.60157  0.30973  0.27306  1.0000
  C   C459      1.0  0.69331  0.44631  0.23067  1.0000
  H   H351      1.0  0.57130  0.07704  0.01163  1.0000
  H   H352      1.0  0.49567  0.08245  0.00009  1.0000
  S   S71       1.0  0.89376  0.47456  0.10935  1.0000
  C   C460      1.0  0.55171  0.26681  0.30065  1.0000
  H   H353      1.0  0.71863  0.45945  0.18574  1.0000
  H   H354      1.0  0.61055  0.07470  0.05223  1.0000
  S   S72       1.0  0.78936  0.45885  0.13241  1.0000
  C   C461      1.0  0.62386  0.33150  0.02243  1.0000
  C   C462      1.0  0.51108  0.18442  0.02099  1.0000
  H   H355      1.0  0.49944  0.25905  0.10980  1.0000
  H   H356      1.0  0.55093  0.33905  0.20546  1.0000
  C   C463      1.0  0.58519  0.43249  0.25053  1.0000
  H   H357      1.0  0.75804  0.42709  0.19253  1.0000
  H   H358      1.0  0.60870  0.22625  0.24683  1.0000
  H   H359      1.0  0.63974  0.20462  0.00766  1.0000
  C   C464      1.0  0.69097  0.42644  0.25768  1.0000
  C   C465      1.0  0.60426  0.14096  0.00523  1.0000
  C   C466      1.0  0.73952  0.42713  0.21086  1.0000
  H   H360      1.0  0.50278  0.34473  0.23922  1.0000
  C   C467      1.0  0.49978  0.11114  0.00494  1.0000
  C   C468      1.0  0.56054  0.36489  0.21833  1.0000
  C   C469      1.0  0.61843  0.20312  0.31777  1.0000
  C   C470      1.0  0.53349  0.36800  0.23733  1.0000
  H   H361      1.0  0.50968  0.15626  0.25407  1.0000
  H   H362      1.0  0.53119  0.46952  0.01447  1.0000
  C   C471      1.0  0.71919  0.30862  0.01127  1.0000
  H   H363      1.0  0.74043  0.32661  0.05491  1.0000
  H   H364      1.0  0.78473  0.38530  0.01342  1.0000
  C   C472      1.0  0.71800  0.45490  0.12518  1.0000
  C   C473      1.0  0.63619  0.28183  0.04485  1.0000
  S   S73       1.0  0.52398  0.00945  0.05266  1.0000
  H   H365      1.0  0.51554  0.21258  0.02781  1.0000
  C   C474      1.0  0.59966  0.39600  0.21480  1.0000
  C   C475      1.0  0.54583  0.40176  0.25342  1.0000
  H   H366      1.0  0.61982  0.39400  0.19893  1.0000
  C   C476      1.0  0.95288  0.43217  0.22173  1.0000
  C   C477      1.0  0.59849  0.26354  0.05908  1.0000
  C   C478      1.0  0.54063  0.18251  0.00410  1.0000
  C   C479      1.0  0.71345  0.40785  0.26140  1.0000
  H   H367      1.0  0.77096  0.28460  0.05896  1.0000
  H   H368      1.0  0.63295  0.35773  0.00827  1.0000
  C   C480      1.0  0.75554  0.28427  0.03933  1.0000
  H   H369      1.0  0.71205  0.39314  0.28241  1.0000
  H   H370      1.0  0.68538  0.40208  0.03444  1.0000
  C   C481      1.0  0.51904  0.23118  0.24796  1.0000
  H   H371      1.0  0.66269  0.45350  0.11834  1.0000
  H   H372      1.0  0.75536  0.39403  0.24069  1.0000
  C   C482      1.0  0.73321  0.25966  0.99120  1.0000
  H   H373      1.0  0.92896  0.40743  0.21158  1.0000
  H   H374      1.0  0.67193  0.42561  0.27589  1.0000
  H   H375      1.0  0.94927  0.39813  0.26137  1.0000
  H   H376      1.0  0.65464  0.26879  0.04838  1.0000
  C   C483      1.0  0.77215  0.40222  0.02239  1.0000
  C   C484      1.0  0.65660  0.17453  0.03925  1.0000
  H   H377      1.0  0.56753  0.32618  0.03466  1.0000
  H   H378      1.0  0.73060  0.46586  0.05431  1.0000
  C   C485      1.0  0.97302  0.46908  0.20633  1.0000
  H   H379      1.0  0.82913  0.44892  0.03425  1.0000
  C   C486      1.0  0.64948  0.31640  0.02666  1.0000
  C   C487      1.0  0.79773  0.43875  0.03380  1.0000
  C   C488      1.0  0.74234  0.44842  0.04489  1.0000
  H   H380      1.0  0.56824  0.20951  0.99843  1.0000
  C   C489      1.0  0.97675  0.45342  0.01640  1.0000
  C   C490      1.0  0.59574  0.10447  0.01855  1.0000
  C   C491      1.0  0.73839  0.30819  0.03689  1.0000
  C   C492      1.0  0.64839  0.13806  0.05206  1.0000
  C   C493      1.0  0.61236  0.42998  0.23096  1.0000
  C   C494      1.0  0.60061  0.20744  0.29272  1.0000
  C   C495      1.0  0.73788  0.40838  0.23801  1.0000
  H   H381      1.0  0.50125  0.19699  0.10035  1.0000
  C   C496      1.0  0.58637  0.31329  0.03694  1.0000
  H   H382      1.0  0.52465  0.40457  0.26768  1.0000
  H   H383      1.0  0.66474  0.13701  0.07065  1.0000
  S   S74       1.0  0.96200  0.47671  0.16960  1.0000
  H   H384      1.0  0.56908  0.19689  0.29357  1.0000
  C   C497      1.0  0.51663  0.48964  0.23336  1.0000
  C   C498      1.0  0.71719  0.44580  0.20712  1.0000
  Fe  Fe36      1.0  0.49574  0.40358  0.08214  1.0000
  H   H385      1.0  0.61065  0.46442  0.17886  1.0000
  H   H386      1.0  0.53273  0.02968  0.26320  1.0000
  C   C499      1.0  0.53493  0.14581  0.99561  1.0000
  C   C500      1.0  0.49419  0.48713  0.25925  1.0000
  C   C501      1.0  0.49251  0.13987  0.23601  1.0000
  H   H387      1.0  0.59373  0.45811  0.26334  1.0000
  C   C502      1.0  0.65883  0.21542  0.31636  1.0000
  H   H388      1.0  0.98320  0.40168  0.16345  1.0000
  P   P18       1.0  0.66328  0.46933  0.22618  1.0000
  C   C503      1.0  0.71635  0.28387  0.98855  1.0000
  C   C504      1.0  0.49776  0.21540  0.27512  1.0000
  H   H389      1.0  0.73182  0.48375  0.13431  1.0000
  C   C505      1.0  0.49969  0.00394  0.22480  1.0000
  C   C506      1.0  0.64073  0.48682  0.17231  1.0000
  H   H390      1.0  0.97396  0.44175  0.03883  1.0000
  H   H391      1.0  0.49118  0.08615  0.25126  1.0000
  H   H392      1.0  0.98522  0.34905  0.19418  1.0000
  H   H393      1.0  0.72364  0.42626  0.50224  1.0000
  C   C507      1.0  0.50284  0.47997  0.51549  1.0000
  H   H394      1.0  0.60613  0.29709  0.49026  1.0000
  Fe  Fe37      1.0  0.59036  0.43927  0.61181  1.0000
  C   C508      1.0  0.61867  0.25425  0.54062  1.0000
  Fe  Fe38      1.0  0.91451  0.44223  0.64305  1.0000
  H   H395      1.0  0.50952  0.32375  0.54318  1.0000
  S   S75       1.0  0.55350  0.13231  0.64061  1.0000
  H   H396      1.0  0.73282  0.41018  0.61356  1.0000
  S   S76       1.0  0.55032  0.38457  0.58846  1.0000
  Fe  Fe39      1.0  0.89853  0.40741  0.58141  1.0000
  S   S77       1.0  0.90508  0.38473  0.62613  1.0000
  S   S78       1.0  0.92475  0.39525  0.53987  1.0000
  Fe  Fe40      1.0  0.84556  0.43741  0.60777  1.0000
  C   C509      1.0  0.96473  0.46970  0.51043  1.0000
  Fe  Fe41      1.0  0.83973  0.36245  0.63386  1.0000
  S   S79       1.0  0.65667  0.48059  0.60425  1.0000
  S   S80       1.0  0.83238  0.38039  0.58811  1.0000
  H   H397      1.0  0.60076  0.18938  0.33809  1.0000
  S   S81       1.0  0.55307  0.10625  0.57162  1.0000
  C   C510      1.0  0.55870  0.31357  0.54750  1.0000
  C   C511      1.0  0.76954  0.47093  0.59755  1.0000
  H   H398      1.0  0.95370  0.47999  0.52821  1.0000
  Fe  Fe42      1.0  0.59185  0.11940  0.61029  1.0000
  H   H399      1.0  0.56420  0.28063  0.32100  1.0000
  Fe  Fe43      1.0  0.52135  0.04304  0.58872  1.0000
  C   C512      1.0  0.71755  0.40354  0.51922  1.0000
  H   H400      1.0  0.74607  0.34765  0.62991  1.0000
  C   C513      1.0  0.55806  0.30863  0.48615  1.0000
  C   C514      1.0  0.58555  0.30348  0.50199  1.0000
  C   C515      1.0  0.85671  0.27414  0.61568  1.0000
  C   C516      1.0  0.69881  0.47461  0.60191  1.0000
  H   H401      1.0  0.61143  0.39520  0.52811  1.0000
  C   C517      1.0  0.68962  0.20521  0.61346  1.0000
  Fe  Fe44      1.0  0.51028  0.41064  0.58314  1.0000
  C   C518      1.0  0.53088  0.31625  0.50098  1.0000
  H   H402      1.0  0.67240  0.21108  0.33558  1.0000
  C   C519      1.0  0.81892  0.24224  0.61190  1.0000
  C   C520      1.0  0.74742  0.40814  0.53771  1.0000
  H   H403      1.0  0.77047  0.29667  0.59738  1.0000
  C   C521      1.0  0.70178  0.34602  0.56402  1.0000
  H   H404      1.0  0.80034  0.22493  0.63106  1.0000
  C   C522      1.0  0.69824  0.43929  0.60981  1.0000
  Fe  Fe45      1.0  0.51372  0.11660  0.60270  1.0000
  H   H405      1.0  0.65694  0.36792  0.50895  1.0000
  C   C523      1.0  0.61641  0.32853  0.60669  1.0000
  C   C524      1.0  0.53104  0.31844  0.53164  1.0000
  H   H406      1.0  0.54890  0.16190  0.52232  1.0000
  C   C525      1.0  0.71718  0.23973  0.59697  1.0000
  H   H407      1.0  0.55804  0.41021  0.51765  1.0000
  H   H408      1.0  0.62323  0.35542  0.59414  1.0000
  C   C526      1.0  0.59601  0.47314  0.51951  1.0000
  Fe  Fe46      1.0  0.52146  0.43860  0.64737  1.0000
  H   H409      1.0  0.76251  0.38346  0.57465  1.0000
  C   C527      1.0  0.58644  0.30644  0.53279  1.0000
  C   C528      1.0  0.73364  0.43752  0.60781  1.0000
  C   C529      1.0  0.88023  0.29723  0.59112  1.0000
  H   H410      1.0  0.86734  0.28148  0.63771  1.0000
  C   C530      1.0  0.65232  0.25012  0.53764  1.0000
  C   C531      1.0  0.65603  0.45626  0.53135  1.0000
  C   C532      1.0  0.59919  0.25976  0.63980  1.0000
  H   H411      1.0  0.69610  0.32444  0.58187  1.0000
  S   S82       1.0  0.81559  0.47208  0.59316  1.0000
  S   S83       1.0  0.55279  0.46704  0.60326  1.0000
  H   H412      1.0  0.71477  0.24201  0.57344  1.0000
  C   C533      1.0  0.95475  0.42994  0.51070  1.0000
  C   C534      1.0  0.58136  0.22208  0.53518  1.0000
  H   H413      1.0  0.55795  0.31502  0.57121  1.0000
  H   H414      1.0  0.68118  0.27376  0.54283  1.0000
  C   C535      1.0  0.50142  0.19877  0.63511  1.0000
  S   S84       1.0  0.65555  0.16365  0.59455  1.0000
  C   C536      1.0  0.96941  0.41722  0.48729  1.0000
  H   H415      1.0  0.60119  0.23535  0.59864  1.0000
  H   H416      1.0  0.67877  0.44966  0.53766  1.0000
  C   C537      1.0  0.57795  0.18684  0.52584  1.0000
  C   C538      1.0  0.61161  0.18306  0.52257  1.0000
  H   H417      1.0  0.77653  0.43446  0.53534  1.0000
  H   H418      1.0  0.90037  0.33001  0.43798  1.0000
  C   C539      1.0  0.61054  0.32664  0.63738  1.0000
  H   H419      1.0  0.67429  0.21077  0.52753  1.0000
  C   C540      1.0  0.91132  0.26445  0.48214  1.0000
  C   C541      1.0  0.91959  0.29302  0.45950  1.0000
  C   C542      1.0  0.89357  0.30732  0.45520  1.0000
  C   C543      1.0  0.85924  0.29311  0.47351  1.0000
  C   C544      1.0  0.85087  0.26463  0.49650  1.0000
  C   C545      1.0  0.87718  0.25040  0.50065  1.0000
  P   P19       1.0  0.80865  0.24851  0.52217  1.0000
  C   C546      1.0  0.77186  0.19701  0.51852  1.0000
  C   C547      1.0  0.82746  0.25734  0.55886  1.0000
  C   C548      1.0  0.86564  0.28909  0.56290  1.0000
  H   H420      1.0  0.61181  0.35153  0.64826  1.0000
  C   C549      1.0  0.75346  0.26783  0.64079  1.0000
  H   H421      1.0  0.50940  0.32010  0.48884  1.0000
  C   C550      1.0  0.80434  0.23371  0.58365  1.0000
  C   C551      1.0  0.77944  0.17296  0.50016  1.0000
  C   C552      1.0  0.75041  0.13340  0.49726  1.0000
  C   C553      1.0  0.71360  0.11760  0.51254  1.0000
  C   C554      1.0  0.70568  0.14140  0.53058  1.0000
  C   C555      1.0  0.73454  0.18091  0.53341  1.0000
  C   C556      1.0  0.78666  0.27900  0.51523  1.0000
  C   C557      1.0  0.80457  0.31765  0.52503  1.0000
  C   C558      1.0  0.78904  0.34216  0.51812  1.0000
  C   C559      1.0  0.75549  0.32832  0.50148  1.0000
  C   C560      1.0  0.73775  0.29008  0.49133  1.0000
  C   C561      1.0  0.75343  0.26559  0.49795  1.0000
  H   H422      1.0  0.93171  0.25367  0.48566  1.0000
  S   S85       1.0  0.91151  0.46607  0.59769  1.0000
  H   H423      1.0  0.83999  0.30521  0.46999  1.0000
  H   H424      1.0  0.87161  0.22898  0.51859  1.0000
  H   H425      1.0  0.88404  0.30832  0.54438  1.0000
  H   H426      1.0  0.94638  0.30445  0.44546  1.0000
  S   S86       1.0  0.56274  0.05471  0.62591  1.0000
  H   H427      1.0  0.55755  0.30636  0.46241  1.0000
  H   H428      1.0  0.77473  0.20929  0.58169  1.0000
  H   H429      1.0  0.80748  0.18450  0.48789  1.0000
  H   H430      1.0  0.75640  0.11493  0.48315  1.0000
  H   H431      1.0  0.69114  0.08693  0.51041  1.0000
  H   H432      1.0  0.67719  0.12924  0.54259  1.0000
  H   H433      1.0  0.72761  0.19878  0.54737  1.0000
  H   H434      1.0  0.83109  0.32934  0.53744  1.0000
  H   H435      1.0  0.80343  0.37214  0.52544  1.0000
  H   H436      1.0  0.74352  0.34739  0.49622  1.0000
  H   H437      1.0  0.71193  0.27944  0.47820  1.0000
  H   H438      1.0  0.73983  0.23644  0.48922  1.0000
  C   C562      1.0  0.64867  0.21455  0.52871  1.0000
  C   C563      1.0  0.67967  0.37024  0.52315  1.0000
  C   C564      1.0  0.67142  0.34127  0.54572  1.0000
  P   P20       1.0  0.62213  0.29934  0.55274  1.0000
  C   C565      1.0  0.73955  0.37925  0.55991  1.0000
  C   C566      1.0  0.61266  0.29565  0.59224  1.0000
  C   C567      1.0  0.60420  0.26124  0.60905  1.0000
  Fe  Fe47      1.0  0.51876  0.36081  0.63292  1.0000
  H   H439      1.0  0.90948  0.32220  0.59390  1.0000
  H   H440      1.0  0.55465  0.22375  0.53882  1.0000
  H   H441      1.0  0.57209  0.47897  0.51602  1.0000
  H   H442      1.0  0.60872  0.15519  0.51641  1.0000
  C   C568      1.0  0.58797  0.43402  0.52046  1.0000
  C   C569      1.0  0.74878  0.27099  0.61056  1.0000
  H   H443      1.0  0.67082  0.41374  0.61790  1.0000
  C   C570      1.0  0.61801  0.42557  0.52633  1.0000
  C   C571      1.0  0.69307  0.20292  0.64398  1.0000
  H   H444      1.0  0.96185  0.38655  0.48722  1.0000
  H   H445      1.0  0.50720  0.03434  0.51046  1.0000
  H   H446      1.0  0.50423  0.17590  0.64693  1.0000
  H   H447      1.0  0.51877  0.49096  0.53531  1.0000
  C   C572      1.0  0.50423  0.23108  0.65010  1.0000
  H   H448      1.0  0.49756  0.22058  0.32227  1.0000
  C   C573      1.0  0.49473  0.00391  0.50460  1.0000
  C   C574      1.0  0.50104  0.26128  0.63500  1.0000
  H   H449      1.0  0.49018  0.01646  0.45857  1.0000
  C   C575      1.0  0.49018  0.22555  0.59003  1.0000
  H   H450      1.0  0.48966  0.28047  0.59341  1.0000
  C   C576      1.0  0.49448  0.19593  0.60494  1.0000
  C   C577      1.0  0.49351  0.25810  0.60497  1.0000
  S   S87       1.0  0.48928  0.15507  0.58546  1.0000
  C   C578      1.0  0.58365  0.20120  0.93482  1.0000
  C   C579      1.0  0.67406  0.45824  0.67748  1.0000
  C   C580      1.0  0.64175  0.15930  0.80214  1.0000
  C   C581      1.0  0.95077  0.47418  0.97629  1.0000
  H   H451      1.0  0.64888  0.16062  0.77869  1.0000
  H   H452      1.0  0.59817  0.18900  0.77505  1.0000
  C   C582      1.0  0.49045  0.47359  0.71306  1.0000
  H   H453      1.0  0.56513  0.11348  0.85398  1.0000
  H   H454      1.0  0.70128  0.28335  0.96880  1.0000
  C   C583      1.0  0.68752  0.36593  0.90946  1.0000
  C   C584      1.0  0.65479  0.33588  0.92582  1.0000
  C   C585      1.0  0.94991  0.45116  0.72741  1.0000
  C   C586      1.0  0.58373  0.08765  0.73315  1.0000
  H   H455      1.0  0.92221  0.42816  0.71967  1.0000
  H   H456      1.0  0.55224  0.19015  0.93882  1.0000
  C   C587      1.0  0.59458  0.13283  0.84425  1.0000
  H   H457      1.0  0.57530  0.22549  0.74356  1.0000
  C   C588      1.0  0.49889  0.13220  0.73649  1.0000
  H   H458      1.0  0.56699  0.10032  0.72401  1.0000
  C   C589      1.0  0.68912  0.31932  0.69386  1.0000
  P   P21       1.0  0.75930  0.43694  0.70924  1.0000
  C   C590      1.0  0.54732  0.13139  0.76864  1.0000
  H   H459      1.0  0.50766  0.48236  0.81771  1.0000
  S   S88       1.0  0.56173  0.41433  0.65667  1.0000
  H   H460      1.0  0.52029  0.39771  0.96585  1.0000
  Fe  Fe48      1.0  0.52057  0.06648  0.65306  1.0000
  H   H461      1.0  0.70179  0.20151  0.81172  1.0000
  C   C591      1.0  0.74496  0.44683  0.79793  1.0000
  S   S89       1.0  0.50560  0.30178  0.65466  1.0000
  C   C592      1.0  0.97705  0.48141  0.70755  1.0000
  H   H462      1.0  0.72843  0.23141  0.68094  1.0000
  C   C593      1.0  0.65808  0.32744  0.95547  1.0000
  C   C594      1.0  0.62472  0.15602  0.86285  1.0000
  S   S90       1.0  0.51878  0.48185  0.67935  1.0000
  H   H463      1.0  0.69544  0.23949  0.91799  1.0000
  H   H464      1.0  0.68675  0.19846  0.86560  1.0000
  C   C595      1.0  0.52357  0.06437  0.81160  1.0000
  H   H465      1.0  0.50184  0.09930  0.94384  1.0000
  C   C596      1.0  0.67180  0.18253  0.82080  1.0000
  C   C597      1.0  0.75400  0.41944  0.81070  1.0000
  C   C598      1.0  0.98433  0.48319  0.95791  1.0000
  C   C599      1.0  0.66332  0.18084  0.85115  1.0000
  H   H466      1.0  0.66474  0.29329  0.70505  1.0000
  C   C600      1.0  0.74599  0.45190  0.76718  1.0000
  C   C601      1.0  0.57900  0.08200  0.94906  1.0000
  H   H467      1.0  0.48968  0.39657  0.91895  1.0000
  C   C602      1.0  0.70632  0.35572  0.70718  1.0000
  C   C603      1.0  0.81097  0.46786  0.69712  1.0000
  H   H468      1.0  0.63784  0.04661  0.70911  1.0000
  C   C604      1.0  0.60260  0.18443  0.95053  1.0000
  C   C605      1.0  0.60287  0.13428  0.81370  1.0000
  H   H469      1.0  0.69442  0.35758  0.72853  1.0000
  C   C606      1.0  0.60500  0.23188  0.91342  1.0000
  C   C607      1.0  0.55588  0.09972  0.95448  1.0000
  H   H470      1.0  0.66187  0.26967  0.89093  1.0000
  H   H471      1.0  0.68487  0.37260  0.88655  1.0000
  H   H472      1.0  0.59010  0.24451  0.90124  1.0000
  H   H473      1.0  0.53341  0.00074  0.70264  1.0000
  H   H474      1.0  0.58203  0.03433  0.92870  1.0000
  H   H475      1.0  0.83505  0.45360  0.73519  1.0000
  C   C608      1.0  0.60884  0.06748  0.77442  1.0000
  H   H476      1.0  0.61811  0.15427  0.88641  1.0000
  C   C609      1.0  0.72361  0.38757  0.92275  1.0000
  C   C610      1.0  0.95856  0.45077  0.75742  1.0000
  H   H477      1.0  0.63252  0.30369  0.96764  1.0000
  C   C611      1.0  0.52187  0.17332  0.73256  1.0000
  C   C612      1.0  0.72686  0.37961  0.95250  1.0000
  H   H478      1.0  0.54212  0.02060  0.80795  1.0000
  H   H479      1.0  0.62673  0.31931  0.91559  1.0000
  C   C613      1.0  0.64290  0.19800  0.94401  1.0000
  C   C614      1.0  0.76380  0.39685  0.79272  1.0000
  C   C615      1.0  0.55742  0.19363  0.74681  1.0000
  C   C616      1.0  0.64534  0.24589  0.90751  1.0000
  C   C617      1.0  0.57022  0.17278  0.76474  1.0000
  H   H480      1.0  0.75386  0.41604  0.83451  1.0000
  C   C618      1.0  0.84145  0.47023  0.71435  1.0000
  C   C619      1.0  0.73837  0.38943  0.69282  1.0000
  P   P22       1.0  0.56471  0.10330  0.78943  1.0000
  H   H481      1.0  0.77500  0.41223  0.65242  1.0000
  C   C620      1.0  0.60249  0.07451  0.71357  1.0000
  H   H482      1.0  0.49669  0.10013  0.82078  1.0000
  H   H483      1.0  0.74907  0.41089  0.91014  1.0000
  H   H484      1.0  0.50948  0.23304  0.67342  1.0000
  H   H485      1.0  0.93729  0.42729  0.77256  1.0000
  P   P23       1.0  0.57436  0.14279  0.97631  1.0000
  H   H486      1.0  0.77304  0.38451  0.74828  1.0000
  H   H487      1.0  0.75504  0.39689  0.96241  1.0000
  C   C621      1.0  0.51263  0.49154  0.97731  1.0000
  C   C622      1.0  0.66426  0.22891  0.92277  1.0000
  C   C623      1.0  0.62707  0.05381  0.75478  1.0000
  C   C624      1.0  0.56498  0.04904  0.93177  1.0000
  H   H488      1.0  0.65768  0.18439  0.95509  1.0000
  C   C625      1.0  0.51141  0.11135  0.75458  1.0000
  C   C626      1.0  0.69396  0.34985  0.96921  1.0000
  C   C627      1.0  0.58650  0.08401  0.76381  1.0000
  C   C628      1.0  0.75170  0.38640  0.66454  1.0000
  H   H489      1.0  0.51230  0.18934  0.71820  1.0000
  H   H490      1.0  0.61210  0.06505  0.79791  1.0000
  H   H491      1.0  0.68004  0.40740  0.68583  1.0000
  C   C629      1.0  0.69415  0.43913  0.68724  1.0000
  H   H492      1.0  0.92770  0.47863  0.96761  1.0000
  S   S91       1.0  0.84978  0.41835  0.65419  1.0000
  C   C630      1.0  0.49287  0.00063  0.83889  1.0000
  H   H493      1.0  0.77135  0.37599  0.80254  1.0000
  C   C631      1.0  0.52171  0.02814  0.81839  1.0000
  C   C632      1.0  0.50582  0.05253  0.92352  1.0000
  C   C633      1.0  0.70345  0.31642  0.66601  1.0000
  H   H494      1.0  0.49375  0.07937  0.75672  1.0000
  S   S92       1.0  0.96761  0.48393  0.66950  1.0000
  C   C634      1.0  0.51976  0.08555  0.94074  1.0000
  H   H495      1.0  0.60748  0.09303  0.95867  1.0000
  C   C635      1.0  0.76469  0.40173  0.76197  1.0000
  C   C636      1.0  0.75601  0.42946  0.74897  1.0000
  H   H496      1.0  0.79829  0.48811  0.65601  1.0000
  H   H497      1.0  0.73121  0.24072  0.97362  1.0000
  C   C637      1.0  0.49561  0.07222  0.82531  1.0000
  H   H498      1.0  0.59974  0.07704  0.68999  1.0000
  C   C638      1.0  0.52829  0.03416  0.91918  1.0000
  H   H499      1.0  0.59647  0.29059  0.67760  1.0000
  H   H500      1.0  0.51669  0.00769  0.90671  1.0000
  H   H501      1.0  0.73932  0.47357  0.75778  1.0000
  C   C639      1.0  0.73229  0.46110  0.69781  1.0000
  H   H502      1.0  0.64519  0.44139  0.66847  1.0000
  H   H503      1.0  0.73761  0.46455  0.81184  1.0000
  H   H504      1.0  0.69047  0.28821  0.65575  1.0000
  H   H505      1.0  0.59194  0.23285  0.65252  1.0000
  H   H506      1.0  0.64360  0.04041  0.76314  1.0000
  C   C640      1.0  0.82108  0.48979  0.66998  1.0000
  S   S93       1.0  0.79528  0.30437  0.65811  1.0000
  C   C641      1.0  0.62388  0.05732  0.72436  1.0000
  H   H507      1.0  0.67233  0.17635  0.65686  1.0000
  C   C642      1.0  0.72505  0.23402  0.65753  1.0000
  C   C643      1.0  0.60194  0.29229  0.65393  1.0000
  C   C644      1.0  0.48934  0.45898  0.83411  1.0000
  C   C645      1.0  0.49010  0.46727  0.86390  1.0000
  S   S94       1.0  0.48905  0.04319  0.69892  1.0000
  C   C646      1.0  0.73469  0.34996  0.65137  1.0000
  C   C647      1.0  0.64770  0.50893  0.14574  1.0000
  H   H508      1.0  0.94403  0.54094  0.03500  1.0000
  C   C648      1.0  0.56113  0.91968  0.24122  1.0000
  C   C649      1.0  0.55253  0.93386  0.26664  1.0000
  H   H509      1.0  0.73521  0.53163  0.19528  1.0000
  H   H510      1.0  0.54283  0.51743  0.22664  1.0000
  H   H511      1.0  0.62317  0.50324  0.13220  1.0000
  C   C650      1.0  0.49598  0.50297  0.09040  1.0000
  C   C651      1.0  0.67221  0.49442  0.19030  1.0000
  C   C652      1.0  0.51923  0.75441  0.30504  1.0000
  H   H512      1.0  0.56116  0.74226  0.24247  1.0000
  C   C653      1.0  0.49945  0.77245  0.29262  1.0000
  H   H513      1.0  0.52844  0.50197  0.12780  1.0000
  C   C654      1.0  0.66395  0.56019  0.26899  1.0000
  C   C655      1.0  0.49958  0.49380  0.11976  1.0000
  H   H514      1.0  0.72096  0.50258  0.27322  1.0000
  C   C656      1.0  0.54369  0.75048  0.25641  1.0000
  H   H515      1.0  0.69143  0.55507  0.11590  1.0000
  C   C657      1.0  0.71063  0.52470  0.18142  1.0000
  H   H516      1.0  0.52198  0.51791  0.07545  1.0000
  C   C658      1.0  0.54087  0.74292  0.28697  1.0000
  C   C659      1.0  0.50089  0.77880  0.26185  1.0000
  H   H517      1.0  0.74740  0.56909  0.14757  1.0000
  H   H518      1.0  0.88316  0.51227  0.00799  1.0000
  C   C660      1.0  0.52141  0.90795  0.28632  1.0000
  H   H519      1.0  0.50322  0.51280  0.27219  1.0000
  C   C661      1.0  0.49809  0.86810  0.28027  1.0000
  C   C662      1.0  0.65527  0.52987  0.24982  1.0000
  H   H520      1.0  0.56973  0.96495  0.27104  1.0000
  C   C663      1.0  0.69269  0.56931  0.28974  1.0000
  C   C664      1.0  0.91037  0.53579  0.99736  1.0000
  C   C665      1.0  0.49781  0.99144  0.01973  1.0000
  C   C666      1.0  0.71296  0.54826  0.29118  1.0000
  C   C667      1.0  0.68612  0.53835  0.13669  1.0000
  C   C668      1.0  0.71759  0.54624  0.15454  1.0000
  C   C669      1.0  0.70422  0.51776  0.27211  1.0000
  H   H521      1.0  0.98402  0.53625  0.11785  1.0000
  C   C670      1.0  0.67474  0.50785  0.25164  1.0000
  H   H522      1.0  0.58539  0.93979  0.22604  1.0000
  H   H523      1.0  0.63313  0.52340  0.23362  1.0000
  H   H524      1.0  0.52762  0.95914  0.00910  1.0000
  H   H525      1.0  0.64840  0.57667  0.26766  1.0000
  H   H526      1.0  0.73568  0.55579  0.30697  1.0000
  H   H527      1.0  0.51459  0.91896  0.30595  1.0000
  C   C671      1.0  0.94524  0.55218  0.01266  1.0000
  C   C672      1.0  0.52421  0.76884  0.24388  1.0000
  H   H528      1.0  0.52774  0.77549  0.22029  1.0000
  C   C673      1.0  0.50593  0.96689  0.00222  1.0000
  C   C674      1.0  0.98107  0.58159  0.99880  1.0000
  C   C675      1.0  0.53818  0.87971  0.23525  1.0000
  H   H529      1.0  0.54547  0.86910  0.21562  1.0000
  H   H530      1.0  0.55569  0.72848  0.29675  1.0000
  H   H531      1.0  0.69945  0.59290  0.30453  1.0000
  C   C676      1.0  0.50574  0.85390  0.25430  1.0000
  H   H532      1.0  0.49187  0.97064  0.29710  1.0000
  C   C677      1.0  0.63063  0.56323  0.61202  1.0000
  C   C678      1.0  0.77797  0.64238  0.50774  1.0000
  H   H533      1.0  0.77576  0.60475  0.47324  1.0000
  C   C679      1.0  0.71835  0.58327  0.49507  1.0000
  H   H534      1.0  0.57377  0.55982  0.54241  1.0000
  H   H535      1.0  0.60258  0.63919  0.47030  1.0000
  H   H536      1.0  0.58366  0.56567  0.63628  1.0000
  C   C680      1.0  0.64538  0.56060  0.58424  1.0000
  H   H537      1.0  0.60791  0.51504  0.46841  1.0000
  H   H538      1.0  0.63375  0.62235  0.51068  1.0000
  C   C681      1.0  0.76949  0.50575  0.58949  1.0000
  C   C682      1.0  0.62193  0.56674  0.49322  1.0000
  H   H539      1.0  0.57573  0.53181  0.42912  1.0000
  C   C683      1.0  0.50435  0.50662  0.49297  1.0000
  H   H540      1.0  0.69931  0.62846  0.55124  1.0000
  C   C684      1.0  0.57597  0.56470  0.58933  1.0000
  H   H541      1.0  0.70393  0.55815  0.48133  1.0000
  P   P24       1.0  0.64414  0.55468  0.52327  1.0000
  H   H542      1.0  0.67165  0.55782  0.58273  1.0000
  C   C685      1.0  0.66422  0.49547  0.53006  1.0000
  H   H543      1.0  0.64526  0.56203  0.63166  1.0000
  H   H544      1.0  0.73557  0.53515  0.58582  1.0000
  C   C686      1.0  0.62124  0.60236  0.49298  1.0000
  C   C687      1.0  0.75627  0.64890  0.52965  1.0000
  H   H545      1.0  0.80949  0.66274  0.50415  1.0000
  C   C688      1.0  0.59056  0.56184  0.56150  1.0000
  C   C689      1.0  0.60387  0.61214  0.47010  1.0000
  C   C690      1.0  0.63446  0.50433  0.52337  1.0000
  H   H546      1.0  0.57294  0.59356  0.42982  1.0000
  C   C691      1.0  0.59594  0.56530  0.61460  1.0000
  C   C692      1.0  0.69655  0.58905  0.51756  1.0000
  C   C693      1.0  0.58912  0.55177  0.44674  1.0000
  C   C694      1.0  0.62567  0.56019  0.55874  1.0000
  H   H547      1.0  0.79681  0.53171  0.58150  1.0000
  C   C695      1.0  0.58753  0.58669  0.44712  1.0000
  C   C696      1.0  0.75898  0.60968  0.49036  1.0000
  H   H548      1.0  0.69331  0.51847  0.53559  1.0000
  H   H549      1.0  0.77094  0.67443  0.54297  1.0000
  C   C697      1.0  0.60669  0.54200  0.46948  1.0000
  C   C698      1.0  0.71564  0.62253  0.53444  1.0000
  C   C699      1.0  0.73465  0.50768  0.59187  1.0000
  H   H550      1.0  0.86816  0.52908  0.63871  1.0000
  H   H551      1.0  0.52176  0.53811  0.49566  1.0000
  H   H552      1.0  0.54840  0.56497  0.59148  1.0000
  H   H553      1.0  0.51775  0.74937  0.32877  1.0000
  H   H554      1.0  0.49559  0.72697  0.39744  1.0000
  S   S95       1.0  0.49920  0.98571  0.56405  1.0000
  H   H555      1.0  0.53175  0.53068  0.72842  1.0000
  H   H556      1.0  0.55668  0.75408  0.71195  1.0000
  H   H557      1.0  0.77916  0.51992  0.70677  1.0000
  H   H558      1.0  0.88399  0.53522  0.95620  1.0000
  C   C700      1.0  0.53361  0.61818  0.79255  1.0000
  H   H559      1.0  0.50553  0.77016  0.69686  1.0000
  C   C701      1.0  0.56332  0.61009  0.74776  1.0000
  C   C702      1.0  0.53201  0.60763  0.73186  1.0000
  H   H560      1.0  0.74343  0.55327  0.68898  1.0000
  H   H561      1.0  0.58688  0.60771  0.73654  1.0000
  C   C703      1.0  0.56412  0.61538  0.77810  1.0000
  C   C704      1.0  0.98124  0.59479  0.96956  1.0000
  H   H562      1.0  0.58833  0.61732  0.79047  1.0000
  H   H563      1.0  0.53225  0.60401  0.70830  1.0000
  H   H564      1.0  0.53877  0.68511  0.72394  1.0000
  H   H565      1.0  0.53436  0.62288  0.81602  1.0000
  C   C705      1.0  0.51599  0.69131  0.71709  1.0000
  H   H566      1.0  0.92153  0.53236  0.66925  1.0000
  C   C706      1.0  0.72956  0.52138  0.68882  1.0000
  H   H567      1.0  0.53198  0.95308  0.74096  1.0000
  H   H568      1.0  0.94692  0.58785  0.93152  1.0000
  H   H569      1.0  0.49055  0.52459  0.77346  1.0000
  H   H570      1.0  0.67642  0.51393  0.66956  1.0000
  C   C707      1.0  0.50195  0.61502  0.77684  1.0000
  C   C708      1.0  0.86078  0.51330  0.66013  1.0000
  S   S96       1.0  0.49050  0.52064  0.92968  1.0000
  C   C709      1.0  0.74973  0.50237  0.69878  1.0000
  C   C710      1.0  0.50356  0.50405  0.73302  1.0000
  C   C711      1.0  0.91092  0.54857  0.96815  1.0000
  C   C712      1.0  0.51151  0.96403  0.74320  1.0000
  C   C713      1.0  0.89080  0.51519  0.67728  1.0000
  C   C714      1.0  0.50093  0.60991  0.74636  1.0000
  C   C715      1.0  0.52632  0.73059  0.71030  1.0000
  C   C716      1.0  0.69180  0.49931  0.67805  1.0000
  H   H571      1.0  0.50919  0.49706  0.87076  1.0000
  C   C717      1.0  0.51259  0.99128  0.72149  1.0000
  C   C718      1.0  0.94635  0.57812  0.95426  1.0000
  H   H572      1.0  0.54249  0.51051  0.96816  1.0000
  H   H573      1.0  0.49292  0.93338  0.96276  1.0000
  H   H574      1.0  0.90454  0.49479  0.71737  1.0000
  C   C719      1.0  0.49749  0.73966  0.70183  1.0000
  C   C720      1.0  0.88114  0.49382  0.70442  1.0000
  H   H575      1.0  0.98692  0.49462  0.93542  1.0000
  H   H576      1.0  0.49162  0.97269  0.84396  1.0000
