data_image0
_chemical_formula_structural       CFeHC2HC2FeHC2SC2HC2H3C2H6SC4H2FeCHCH4C4H2C2SCH2CH2CHCH3SC3FeC3H2CH3C2HPC2HCH4C2H2C3HCHC3H4FeSFeCSFeS2HC2HCSHC2H2CHFeS2FeSFeSFeS3FeS2FeSCFeSFeS3HCHCHCH5CHCFeCH3C3SH2C6H4C6H4C4HC6H4C6H4C6H5S2CHCH3CHCHC5HC2HCHC6PC2SC6H4FeH6C2PC2H3SHCH2C2H2C3HC3H2C2HC4H2C6PC9HC3H6SHCH3SCH2C6PC18H12SH8CH2SCHC2H2SC2H2C2H3CHCHCH3C4HSCHC2HCHCH2CHCSCSC3H2C3HC2PCFeHCHC4HC3H2CH3C5PC2H5C8HCH2PHSC3H4C5HCH4FeS2FeC2SCH2C3HCH2CHCH4C4HPCHFeCHC3H2C2HSHCHC2H2CH2C3SH4CH3CSC2H3CH3CHC3PC2HC8HFeCH7C5HCFeHCHCHCHSH2C2PC3HCH2CH3CHC3SCH2CH2C3HCHFe2CHC2HC4HCHC2H2C3HC4H5C7H2C2H3CHCH2C3HCPC4SHC4HC4SHC2HSH3C3H4CHC2FeCFeHCH2C4S2HCHPC3HC3HSHCSC4FeSCHCFeHS2H3C6HCHCSHPC2HCH2SHSH4C2H2C2FeCSHCH2C2H2CHCHC2HC9H3CSCSCSH2PHC2HSH2CFeS2FeS2FeCFeS3FeSHFeSCFeSFeS3C3H2CFeS2FeS2FeSFeS3CH2C3HCH3C2HCH2C2HCHC2HC3HCHCH2C3HSC4HCH2C8H2C6H5C2HC7H2CH2CH3CHPC6H5C3H2CHCHC3HC2HCHCH2C3H3C3H2CH2C2HC2HC3H2CPH2PHC2HC4HC5H2C5H2CH4C5H2CHC2H3CH3CHC4HC6HCH2C2HCH2C3HC2H2C2H4C4PH4CH3CHC4H3CHCH2CHC4H2C2HCHC2H2C6H2PHCH5CH2CH4CH3C2SCHC4HC2Fe2S2H2SC2FeSCFeS2FeSFeS4CHCHCSCHC9H4C2H2C8H2C7H3C7PC3H2C4FeH2C6HCH5CH4CHCHC2HC6H3CPFeCHC3HC3H7C3PH2SH2C2H2CHC9PC12H15C7PC14HCH12CHCH2C2HSCHSC3HC3HC2HCHSH2C7PCHCH2C2SCHSHPC2H3C3H2CH2C2S2H2C2HCHFeHC4HSH2SHFeSHC10HSCHPSHCH3CHPHCHC3HC2SH4CHFeCHC2H2CHCHC2HFeHCH2C3HCHC3H4C6SHFe2HCH2SC2SC2HFeCH2C2HC2HCHCHCHCHFePHS2C3H2CHCH3CH3C7HCPHC4H2SC3H3CHC2H3CH2C6HC2HCH2CH6C3HC2H4C3H2C2H2PC3H3C2H5CHC2H2CH3CH3C3HC2HCHCHC2HCFeSCHCSHSHFeS2FeS2FeSFeS3H2CFeS2FeSHFeHFeS3C6H4C2H5CFeH2C3SCHCHC6H4C2HC3HCHC7H3C9H4CH5CH3CHPHCHCHC3H2C2H6C3HC2HC3H3SCH3CH2CHCPC3HCHC3HCH3C2HC2H2CH2CHC2H2C4H2CHC2PCH2CHCHC4HC2HC2H3CSPCHS2CHFeHC2HCHCHC2H2C4HC2H2CHCHC4FeCH3C3S2CH3C2S2C2HCHCHCHCHSH2CHC3HCFeH3PC3H3CSH2CHC2HCHC5H2C5H2C5H2CHC5HCHC3SC2H2FeC5SCHC4H2CH2C2HFeH2CFeHCHC2HSHSHC3H2C2SCHSHC3SCH2CH2FeSCFeH4CH2C3HC2H3C5H2CHSC3H2SC6H4C6H3C7FeH4C6PC4HC11HPH4FeH8C2H4SC2H2CHC2PHC2H3CHCHCH2CHCFeCHC2HSCSFeSHFeS2FeSFeS3CS4CSCHCSH2C8H3C6H4C2HC2H4CH2C6PC18H20SC2HC6PC18H20C6PC17H15FeC2HC3S2H2SFeCFeSC3H3CHCSFeC5PC14FeSC2H12C2H4C3FeCHSCHC2HCHCSH2CHSC3FeHPHFeH2SH2C2H2CH2CFe2C2FeHCH2C3S2HCH2C3HCHCHC5SHCHCHC2H3CHCHCHC3HCSH2CH2CHCH4CH4CHC2HCSHC2HCH2C2H3PH3CSCSC2H2C4HCH3C4FeH2SC3HCHCHCH2C4H2PHC2HC3H2C2HC2HC2H2C2H3C2HCH3C2H2CHC4HCFeCHCH2CPC2H5CH2SHC4H2CH3CHC2HC2HCHCHCH2CHC2H2CH2CHC2H
_chemical_formula_sum              "C1440 Fe96 H1152 S192 P48"
_cell_length_a       67.3886
_cell_length_b       74.1532
_cell_length_c       33.9069
_cell_angle_alpha    84.6846
_cell_angle_beta     78.8542
_cell_angle_gamma    110.828

_space_group_name_H-M_alt    "P 1"
_space_group_IT_number       1

loop_
  _space_group_symop_operation_xyz
  'x, y, z'

loop_
  _atom_site_type_symbol
  _atom_site_label
  _atom_site_symmetry_multiplicity
  _atom_site_fract_x
  _atom_site_fract_y
  _atom_site_fract_z
  _atom_site_occupancy
  C   C1        1.0  0.99286  0.39732  0.51063  1.0000
  Fe  Fe1       1.0  0.99757  0.47326  0.72273  1.0000
  H   H1        1.0  0.11744  0.45597  0.95148  1.0000
  C   C2        1.0  0.98482  0.37908  0.49887  1.0000
  C   C3        1.0  0.03143  0.46204  0.43036  1.0000
  H   H2        1.0  0.02204  0.40197  0.55712  1.0000
  C   C4        1.0  0.99520  0.37580  0.46205  1.0000
  C   C5        1.0  0.02231  0.40893  0.44925  1.0000
  Fe  Fe2       1.0  0.04289  0.48067  0.73627  1.0000
  H   H3        1.0  0.07845  0.47308  0.04599  1.0000
  C   C6        1.0  0.99245  0.33697  0.83641  1.0000
  C   C7        1.0  0.99919  0.44195  0.52315  1.0000
  S   S1        1.0  0.00189  0.45766  0.66986  1.0000
  C   C8        1.0  0.98504  0.25890  0.44633  1.0000
  C   C9        1.0  0.00071  0.42510  0.85832  1.0000
  H   H4        1.0  0.03821  0.48044  0.37239  1.0000
  C   C10       1.0  0.07621  0.42763  0.03279  1.0000
  C   C11       1.0  0.00908  0.41615  0.82850  1.0000
  H   H5        1.0  0.02200  0.38822  0.40858  1.0000
  H   H6        1.0  0.99452  0.32530  0.43308  1.0000
  H   H7        1.0  0.07063  0.46292  0.59226  1.0000
  C   C12       1.0  0.99494  0.36416  0.66054  1.0000
  C   C13       1.0  0.00095  0.31977  0.51420  1.0000
  H   H8        1.0  0.99317  0.23434  0.46486  1.0000
  H   H9        1.0  0.03196  0.45458  0.31000  1.0000
  H   H10       1.0  0.02618  0.42279  0.81212  1.0000
  H   H11       1.0  0.05366  0.36306  0.51879  1.0000
  H   H12       1.0  0.98729  0.27029  0.55516  1.0000
  H   H13       1.0  0.01139  0.43863  0.86526  1.0000
  S   S2        1.0  0.05100  0.46595  0.68400  1.0000
  C   C14       1.0  0.06058  0.44961  0.58366  1.0000
  C   C15       1.0  0.03666  0.43375  0.54130  1.0000
  C   C16       1.0  0.07649  0.47090  0.41302  1.0000
  C   C17       1.0  0.10442  0.45231  0.97885  1.0000
  H   H14       1.0  0.06365  0.43046  0.63191  1.0000
  H   H15       1.0  0.06850  0.47831  0.27054  1.0000
  Fe  Fe3       1.0  0.03513  0.48194  0.65030  1.0000
  C   C18       1.0  0.00452  0.37748  0.68461  1.0000
  H   H16       1.0  0.00201  0.39246  0.79495  1.0000
  C   C19       1.0  0.99828  0.45049  0.55838  1.0000
  H   H17       1.0  0.03992  0.40014  0.61295  1.0000
  H   H18       1.0  0.99866  0.46053  0.30464  1.0000
  H   H19       1.0  0.00015  0.33335  0.85953  1.0000
  H   H20       1.0  0.98753  0.33012  0.74034  1.0000
  C   C20       1.0  0.02112  0.31755  0.50774  1.0000
  C   C21       1.0  0.04011  0.33318  0.50916  1.0000
  C   C22       1.0  0.00297  0.39585  0.68187  1.0000
  C   C23       1.0  0.04325  0.41428  0.59527  1.0000
  H   H21       1.0  0.98418  0.25555  0.41611  1.0000
  H   H22       1.0  0.98857  0.36175  0.45278  1.0000
  C   C24       1.0  0.09288  0.43264  0.99719  1.0000
  C   C25       1.0  0.01165  0.41241  0.48592  1.0000
  S   S3        1.0  0.01021  0.45623  0.76287  1.0000
  C   C26       1.0  0.05671  0.43136  0.60586  1.0000
  H   H23       1.0  0.01401  0.45862  0.43603  1.0000
  H   H24       1.0  0.99103  0.41523  0.65147  1.0000
  C   C27       1.0  0.05072  0.45081  0.55138  1.0000
  H   H25       1.0  0.09691  0.42129  0.98378  1.0000
  H   H26       1.0  0.01157  0.45409  0.57347  1.0000
  C   C28       1.0  0.99527  0.39902  0.81858  1.0000
  H   H27       1.0  0.08571  0.46666  0.12699  1.0000
  C   C29       1.0  0.07110  0.44228  0.05016  1.0000
  H   H28       1.0  0.02231  0.30387  0.50170  1.0000
  H   H29       1.0  0.99667  0.35017  0.66226  1.0000
  H   H30       1.0  0.03682  0.42031  0.42958  1.0000
  S   S4        1.0  0.01540  0.41178  0.71322  1.0000
  C   C30       1.0  0.00015  0.33785  0.52136  1.0000
  C   C31       1.0  0.05397  0.48091  0.26759  1.0000
  C   C32       1.0  0.01399  0.39070  0.43727  1.0000
  Fe  Fe4       1.0  0.01743  0.44292  0.70762  1.0000
  C   C33       1.0  0.04016  0.45381  0.45821  1.0000
  C   C34       1.0  0.06282  0.45827  0.44909  1.0000
  C   C35       1.0  0.03310  0.41542  0.56337  1.0000
  H   H31       1.0  0.00453  0.32120  0.79386  1.0000
  H   H32       1.0  0.05817  0.43841  0.07777  1.0000
  C   C36       1.0  0.03905  0.35104  0.51711  1.0000
  H   H33       1.0  0.05340  0.46509  0.53526  1.0000
  H   H34       1.0  0.01344  0.37365  0.70510  1.0000
  H   H35       1.0  0.06727  0.41238  0.04696  1.0000
  C   C37       1.0  0.01905  0.35334  0.52327  1.0000
  C   C38       1.0  0.99092  0.25113  0.51294  1.0000
  H   H36       1.0  0.06992  0.45171  0.46940  1.0000
  P   P1        1.0  0.02223  0.43569  0.50237  1.0000
  C   C39       1.0  0.09930  0.46712  0.99599  1.0000
  C   C40       1.0  0.08262  0.46197  0.03193  1.0000
  H   H37       1.0  0.01801  0.36702  0.53022  1.0000
  C   C41       1.0  0.98674  0.26728  0.52462  1.0000
  H   H38       1.0  0.05563  0.33142  0.50440  1.0000
  H   H39       1.0  0.09394  0.47429  0.40624  1.0000
  H   H40       1.0  0.09176  0.47289  0.91371  1.0000
  H   H41       1.0  0.99466  0.24177  0.53437  1.0000
  C   C42       1.0  0.99176  0.40086  0.65466  1.0000
  C   C43       1.0  0.99008  0.24694  0.47381  1.0000
  H   H42       1.0  0.06770  0.47861  0.18324  1.0000
  H   H43       1.0  0.98437  0.39965  0.53905  1.0000
  C   C44       1.0  0.99494  0.33014  0.79943  1.0000
  C   C45       1.0  0.98530  0.33508  0.76936  1.0000
  C   C46       1.0  0.04512  0.47445  0.39408  1.0000
  H   H44       1.0  0.14292  0.47380  0.99887  1.0000
  C   C47       1.0  0.09462  0.48048  0.13527  1.0000
  H   H45       1.0  0.10233  0.47646  0.83864  1.0000
  C   C48       1.0  0.03340  0.46745  0.28983  1.0000
  C   C49       1.0  0.06763  0.47895  0.38545  1.0000
  C   C50       1.0  0.01457  0.47078  0.28689  1.0000
  H   H46       1.0  0.98469  0.33975  0.52667  1.0000
  H   H47       1.0  0.18182  0.55721  0.76100  1.0000
  H   H48       1.0  0.22903  0.65855  0.92128  1.0000
  H   H49       1.0  0.17608  0.48648  0.02504  1.0000
  Fe  Fe5       1.0  0.15190  0.61240  0.21178  1.0000
  S   S5        1.0  0.15458  0.62225  0.14562  1.0000
  Fe  Fe6       1.0  0.16344  0.58728  0.27171  1.0000
  C   C51       1.0  0.30358  0.63271  0.15441  1.0000
  S   S6        1.0  0.17832  0.56480  0.27752  1.0000
  Fe  Fe7       1.0  0.12520  0.59904  0.29901  1.0000
  S   S7        1.0  0.09279  0.58931  0.34417  1.0000
  S   S8        1.0  0.13288  0.58253  0.25003  1.0000
  H   H50       1.0  0.24225  0.58899  0.15727  1.0000
  C   C52       1.0  0.07189  0.55068  0.12881  1.0000
  C   C53       1.0  0.25197  0.71174  0.33255  1.0000
  H   H51       1.0  0.18182  0.68182  0.88416  1.0000
  C   C54       1.0  0.03188  0.49871  0.55973  1.0000
  S   S9        1.0  0.02981  0.49891  0.70011  1.0000
  H   H52       1.0  0.16687  0.65992  0.07509  1.0000
  C   C55       1.0  0.19354  0.66047  0.98187  1.0000
  C   C56       1.0  0.09457  0.60640  0.50452  1.0000
  H   H53       1.0  0.29650  0.64292  0.94694  1.0000
  H   H54       1.0  0.29264  0.59300  0.93319  1.0000
  C   C57       1.0  0.00089  0.50822  0.56141  1.0000
  H   H55       1.0  0.06240  0.53770  0.00951  1.0000
  Fe  Fe8       1.0  0.11579  0.57052  0.89477  1.0000
  S   S10       1.0  0.13035  0.55090  0.92124  1.0000
  S   S11       1.0  0.08363  0.55821  0.87626  1.0000
  Fe  Fe9       1.0  0.15300  0.60768  0.90235  1.0000
  S   S12       1.0  0.17063  0.59093  0.92845  1.0000
  Fe  Fe10      1.0  0.16221  0.57202  0.88164  1.0000
  S   S13       1.0  0.18501  0.56037  0.84522  1.0000
  Fe  Fe11      1.0  0.13733  0.57137  0.96610  1.0000
  S   S14       1.0  0.13197  0.55912  0.03213  1.0000
  S   S15       1.0  0.14739  0.59049  0.85135  1.0000
  S   S16       1.0  0.11989  0.58936  0.94347  1.0000
  Fe  Fe12      1.0  0.22188  0.54135  0.08085  1.0000
  S   S17       1.0  0.23690  0.52459  0.04122  1.0000
  S   S18       1.0  0.18680  0.52942  0.11554  1.0000
  Fe  Fe13      1.0  0.26359  0.57698  0.06426  1.0000
  S   S19       1.0  0.28216  0.56381  0.02263  1.0000
  C   C58       1.0  0.29177  0.60346  0.90970  1.0000
  Fe  Fe14      1.0  0.25251  0.55319  0.99756  1.0000
  S   S20       1.0  0.25875  0.55418  0.92968  1.0000
  Fe  Fe15      1.0  0.26524  0.53654  0.06971  1.0000
  S   S21       1.0  0.28647  0.52066  0.08505  1.0000
  S   S22       1.0  0.23529  0.56920  0.03485  1.0000
  S   S23       1.0  0.24862  0.55056  0.11360  1.0000
  H   H56       1.0  0.09430  0.49497  0.60761  1.0000
  C   C59       1.0  0.23483  0.62451  0.85937  1.0000
  H   H57       1.0  0.24037  0.69431  0.91003  1.0000
  C   C60       1.0  0.13875  0.50152  0.99198  1.0000
  H   H58       1.0  0.08297  0.53076  0.05846  1.0000
  C   C61       1.0  0.09567  0.51332  0.02195  1.0000
  H   H59       1.0  0.05950  0.53015  0.62346  1.0000
  H   H60       1.0  0.13862  0.67853  0.02584  1.0000
  H   H61       1.0  0.19639  0.65447  0.00958  1.0000
  H   H62       1.0  0.12236  0.64261  0.19547  1.0000
  H   H63       1.0  0.14395  0.51868  0.10594  1.0000
  C   C62       1.0  0.28456  0.62595  0.04894  1.0000
  H   H64       1.0  0.13897  0.50005  0.79958  1.0000
  C   C63       1.0  0.28526  0.64317  0.06323  1.0000
  Fe  Fe16      1.0  0.99099  0.50845  0.34655  1.0000
  C   C64       1.0  0.30190  0.53331  0.11709  1.0000
  H   H65       1.0  0.27047  0.69732  0.22907  1.0000
  H   H66       1.0  0.05853  0.59693  0.23576  1.0000
  H   H67       1.0  0.12390  0.48676  0.08793  1.0000
  C   C65       1.0  0.30460  0.55162  0.17272  1.0000
  C   C66       1.0  0.29217  0.54079  0.14818  1.0000
  C   C67       1.0  0.09123  0.57178  0.17070  1.0000
  S   S24       1.0  0.05097  0.49449  0.58394  1.0000
  H   H68       1.0  0.29701  0.55751  0.19634  1.0000
  H   H69       1.0  0.27494  0.53796  0.15386  1.0000
  C   C68       1.0  0.20460  0.55771  0.87021  1.0000
  C   C69       1.0  0.22350  0.55644  0.84715  1.0000
  C   C70       1.0  0.23996  0.55536  0.86580  1.0000
  C   C71       1.0  0.23748  0.55520  0.90778  1.0000
  C   C72       1.0  0.21832  0.55593  0.93120  1.0000
  C   C73       1.0  0.20187  0.55722  0.91236  1.0000
  H   H70       1.0  0.22560  0.55665  0.81465  1.0000
  H   H71       1.0  0.25467  0.55469  0.84767  1.0000
  H   H72       1.0  0.21623  0.55567  0.96369  1.0000
  H   H73       1.0  0.18715  0.55792  0.93041  1.0000
  C   C74       1.0  0.07309  0.50907  0.80008  1.0000
  C   C75       1.0  0.05614  0.51532  0.81417  1.0000
  C   C76       1.0  0.05939  0.53015  0.83823  1.0000
  C   C77       1.0  0.07952  0.53873  0.84843  1.0000
  C   C78       1.0  0.09617  0.53197  0.83551  1.0000
  C   C79       1.0  0.09303  0.51739  0.81099  1.0000
  H   H74       1.0  0.04062  0.50884  0.80634  1.0000
  H   H75       1.0  0.04635  0.53514  0.84861  1.0000
  H   H76       1.0  0.11161  0.53826  0.84371  1.0000
  H   H77       1.0  0.10625  0.51277  0.79987  1.0000
  C   C80       1.0  0.12708  0.52669  0.28708  1.0000
  C   C81       1.0  0.28214  0.67127  0.87021  1.0000
  C   C82       1.0  0.31280  0.54755  0.95309  1.0000
  C   C83       1.0  0.08682  0.52959  0.28813  1.0000
  H   H78       1.0  0.12433  0.51485  0.23239  1.0000
  C   C84       1.0  0.15143  0.60463  0.11370  1.0000
  C   C85       1.0  0.15634  0.61064  0.07133  1.0000
  C   C86       1.0  0.15121  0.59671  0.04568  1.0000
  C   C87       1.0  0.14105  0.57679  0.06249  1.0000
  C   C88       1.0  0.13721  0.57080  0.10451  1.0000
  C   C89       1.0  0.14269  0.58468  0.13008  1.0000
  H   H79       1.0  0.16347  0.62609  0.05840  1.0000
  H   H80       1.0  0.15449  0.60144  0.01314  1.0000
  H   H81       1.0  0.12929  0.55544  0.11737  1.0000
  H   H82       1.0  0.13922  0.57992  0.16260  1.0000
  C   C90       1.0  0.18090  0.55530  0.23208  1.0000
  C   C91       1.0  0.17309  0.56117  0.19983  1.0000
  C   C92       1.0  0.17460  0.55298  0.16423  1.0000
  C   C93       1.0  0.18456  0.53938  0.16031  1.0000
  C   C94       1.0  0.19259  0.53366  0.19232  1.0000
  C   C95       1.0  0.19042  0.54137  0.22843  1.0000
  H   H83       1.0  0.16600  0.57210  0.20210  1.0000
  H   H84       1.0  0.16856  0.55756  0.13935  1.0000
  H   H85       1.0  0.20021  0.52308  0.18938  1.0000
  H   H86       1.0  0.19605  0.53652  0.25357  1.0000
  C   C96       1.0  0.03538  0.54675  0.30513  1.0000
  C   C97       1.0  0.03449  0.54753  0.34639  1.0000
  C   C98       1.0  0.05224  0.56065  0.35792  1.0000
  C   C99       1.0  0.07105  0.57286  0.32846  1.0000
  C   C100      1.0  0.07209  0.57195  0.28713  1.0000
  C   C101      1.0  0.05405  0.55912  0.27544  1.0000
  H   H87       1.0  0.05141  0.56119  0.38976  1.0000
  H   H88       1.0  0.08663  0.58127  0.26423  1.0000
  H   H89       1.0  0.05456  0.55857  0.24355  1.0000
  H   H90       1.0  0.08616  0.50494  0.92871  1.0000
  H   H91       1.0  0.11421  0.63503  0.51393  1.0000
  S   S25       1.0  0.25167  0.68161  0.04522  1.0000
  S   S26       1.0  0.07003  0.49065  0.76957  1.0000
  C   C102      1.0  0.30961  0.67228  0.14707  1.0000
  H   H92       1.0  0.27840  0.71574  0.87350  1.0000
  C   C103      1.0  0.09115  0.55544  0.19502  1.0000
  H   H93       1.0  0.20539  0.69492  0.14746  1.0000
  H   H94       1.0  0.09780  0.49238  0.67942  1.0000
  H   H95       1.0  0.28188  0.64330  0.09561  1.0000
  C   C104      1.0  0.22475  0.60399  0.80876  1.0000
  H   H96       1.0  0.31468  0.53132  0.00719  1.0000
  C   C105      1.0  0.13466  0.65598  0.98966  1.0000
  H   H97       1.0  0.19720  0.65949  0.20866  1.0000
  C   C106      1.0  0.19829  0.68067  0.97286  1.0000
  C   C107      1.0  0.16644  0.52825  0.01115  1.0000
  C   C108      1.0  0.20479  0.59399  0.99240  1.0000
  C   C109      1.0  0.16764  0.66771  0.10059  1.0000
  C   C110      1.0  0.11246  0.62438  0.49372  1.0000
  H   H98       1.0  0.14626  0.70008  0.07704  1.0000
  C   C111      1.0  0.04289  0.55008  0.63045  1.0000
  C   C112      1.0  0.11654  0.52063  0.25613  1.0000
  H   H99       1.0  0.06474  0.54892  0.10275  1.0000
  C   C113      1.0  0.12784  0.62880  0.45643  1.0000
  H   H100      1.0  0.26706  0.65833  0.31695  1.0000
  C   C114      1.0  0.21880  0.62931  0.14393  1.0000
  C   C115      1.0  0.21078  0.61218  0.12813  1.0000
  C   C116      1.0  0.21955  0.59784  0.13248  1.0000
  C   C117      1.0  0.23543  0.60011  0.15485  1.0000
  C   C118      1.0  0.24225  0.61658  0.17372  1.0000
  C   C119      1.0  0.23436  0.63145  0.16690  1.0000
  P   P2        1.0  0.26153  0.61955  0.20531  1.0000
  C   C120      1.0  0.26378  0.59699  0.22468  1.0000
  C   C121      1.0  0.28340  0.59727  0.23362  1.0000
  S   S27       1.0  0.25274  0.72531  0.06029  1.0000
  C   C122      1.0  0.26671  0.56232  0.25891  1.0000
  C   C123      1.0  0.24689  0.56205  0.25177  1.0000
  C   C124      1.0  0.24530  0.57933  0.23526  1.0000
  C   C125      1.0  0.25101  0.62719  0.25096  1.0000
  C   C126      1.0  0.22869  0.61810  0.27045  1.0000
  C   C127      1.0  0.22023  0.62371  0.30601  1.0000
  H   H101      1.0  0.21210  0.64047  0.14008  1.0000
  H   H102      1.0  0.19767  0.61010  0.11284  1.0000
  H   H103      1.0  0.21392  0.58484  0.11890  1.0000
  H   H104      1.0  0.23973  0.64443  0.18043  1.0000
  Fe  Fe17      1.0  0.24013  0.70391  0.01904  1.0000
  H   H105      1.0  0.08234  0.58216  0.11806  1.0000
  H   H106      1.0  0.26798  0.54886  0.27116  1.0000
  H   H107      1.0  0.23270  0.54843  0.25907  1.0000
  H   H108      1.0  0.22958  0.57887  0.23116  1.0000
  H   H109      1.0  0.21778  0.60668  0.25809  1.0000
  H   H110      1.0  0.20287  0.61703  0.32016  1.0000
  C   C128      1.0  0.27374  0.71711  0.33493  1.0000
  C   C129      1.0  0.09157  0.67603  0.11984  1.0000
  P   P3        1.0  0.11444  0.49254  0.97265  1.0000
  C   C130      1.0  0.27342  0.69997  0.87773  1.0000
  C   C131      1.0  0.14784  0.52129  0.99580  1.0000
  H   H111      1.0  0.30534  0.70101  0.84949  1.0000
  H   H112      1.0  0.00148  0.57923  0.42101  1.0000
  H   H113      1.0  0.98880  0.51308  0.57774  1.0000
  S   S28       1.0  0.29881  0.71850  0.03360  1.0000
  H   H114      1.0  0.27710  0.66237  0.18522  1.0000
  C   C132      1.0  0.25153  0.68843  0.18490  1.0000
  H   H115      1.0  0.01517  0.50625  0.61247  1.0000
  H   H116      1.0  0.19112  0.52123  0.03311  1.0000
  C   C133      1.0  0.29336  0.64288  0.97939  1.0000
  C   C134      1.0  0.08171  0.56942  0.13748  1.0000
  H   H117      1.0  0.22631  0.59249  0.79246  1.0000
  H   H118      1.0  0.23012  0.71603  0.29734  1.0000
  C   C135      1.0  0.03682  0.50119  0.23993  1.0000
  C   C136      1.0  0.17660  0.51571  0.02152  1.0000
  C   C137      1.0  0.28493  0.57996  0.25009  1.0000
  H   H119      1.0  0.16489  0.52053  0.83575  1.0000
  C   C138      1.0  0.23686  0.67955  0.25830  1.0000
  C   C139      1.0  0.14907  0.50990  0.85292  1.0000
  C   C140      1.0  0.14312  0.50817  0.89538  1.0000
  H   H120      1.0  0.06402  0.52449  0.94501  1.0000
  H   H121      1.0  0.28819  0.61240  0.99609  1.0000
  C   C141      1.0  0.25451  0.68924  0.22448  1.0000
  C   C142      1.0  0.28998  0.66023  0.03575  1.0000
  H   H122      1.0  0.31322  0.56749  0.90253  1.0000
  C   C143      1.0  0.15045  0.67899  0.15736  1.0000
  C   C144      1.0  0.23398  0.62177  0.94631  1.0000
  C   C145      1.0  0.23087  0.67774  0.17917  1.0000
  C   C146      1.0  0.11786  0.53473  0.31779  1.0000
  H   H123      1.0  0.12667  0.54033  0.34044  1.0000
  H   H124      1.0  0.14283  0.52579  0.28647  1.0000
  C   C147      1.0  0.06786  0.52445  0.42970  1.0000
  C   C148      1.0  0.08831  0.52372  0.42948  1.0000
  C   C149      1.0  0.10246  0.53662  0.44862  1.0000
  C   C150      1.0  0.09624  0.55038  0.46765  1.0000
  C   C151      1.0  0.07588  0.55147  0.46732  1.0000
  C   C152      1.0  0.06155  0.53811  0.44892  1.0000
  P   P4        1.0  0.06838  0.56983  0.49067  1.0000
  C   C153      1.0  0.04711  0.57371  0.47010  1.0000
  C   C154      1.0  0.05858  0.56212  0.54543  1.0000
  C   C155      1.0  0.06377  0.54768  0.56584  1.0000
  C   C156      1.0  0.05603  0.54178  0.60818  1.0000
  C   C157      1.0  0.01704  0.49932  0.49995  1.0000
  C   C158      1.0  0.16803  0.49610  0.01702  1.0000
  C   C159      1.0  0.04538  0.57043  0.56808  1.0000
  C   C160      1.0  0.05230  0.58891  0.43716  1.0000
  C   C161      1.0  0.03585  0.59099  0.41978  1.0000
  H   H125      1.0  0.24802  0.60272  0.84250  1.0000
  C   C162      1.0  0.21619  0.66876  0.25280  1.0000
  C   C163      1.0  0.02520  0.56086  0.48569  1.0000
  C   C164      1.0  0.09203  0.59266  0.47813  1.0000
  H   H126      1.0  0.05672  0.51437  0.41522  1.0000
  H   H127      1.0  0.09320  0.51319  0.41449  1.0000
  H   H128      1.0  0.11831  0.53604  0.44845  1.0000
  H   H129      1.0  0.10742  0.56034  0.48221  1.0000
  H   H130      1.0  0.04547  0.53812  0.44922  1.0000
  H   H131      1.0  0.07315  0.54042  0.54918  1.0000
  S   S29       1.0  0.29930  0.68133  0.95991  1.0000
  H   H132      1.0  0.01746  0.49722  0.46879  1.0000
  C   C165      1.0  0.08508  0.69189  0.11510  1.0000
  H   H133      1.0  0.04083  0.58135  0.55291  1.0000
  H   H134      1.0  0.06908  0.59864  0.42343  1.0000
  H   H135      1.0  0.04012  0.60223  0.39332  1.0000
  S   S30       1.0  0.19450  0.65636  0.29588  1.0000
  C   C166      1.0  0.27494  0.61048  0.91711  1.0000
  H   H136      1.0  0.02080  0.54871  0.51039  1.0000
  H   H137      1.0  0.10563  0.58723  0.41917  1.0000
  C   C167      1.0  0.10089  0.50649  0.66181  1.0000
  C   C168      1.0  0.09900  0.50797  0.62145  1.0000
  C   C169      1.0  0.10257  0.52613  0.59925  1.0000
  C   C170      1.0  0.10788  0.54285  0.61747  1.0000
  C   C171      1.0  0.10958  0.54139  0.65821  1.0000
  C   C172      1.0  0.10608  0.52310  0.68015  1.0000
  P   P5        1.0  0.11554  0.56232  0.68366  1.0000
  C   C173      1.0  0.13688  0.56177  0.70840  1.0000
  C   C174      1.0  0.12426  0.58465  0.64724  1.0000
  C   C175      1.0  0.14617  0.59790  0.63596  1.0000
  C   C176      1.0  0.15244  0.61510  0.60769  1.0000
  C   C177      1.0  0.13688  0.61927  0.59077  1.0000
  C   C178      1.0  0.11499  0.60628  0.60229  1.0000
  C   C179      1.0  0.10869  0.58906  0.63041  1.0000
  C   C180      1.0  0.13456  0.56186  0.75044  1.0000
  C   C181      1.0  0.15077  0.56022  0.76914  1.0000
  C   C182      1.0  0.16938  0.55852  0.74619  1.0000
  C   C183      1.0  0.17174  0.55824  0.70444  1.0000
  C   C184      1.0  0.15550  0.55971  0.68566  1.0000
  C   C185      1.0  0.09105  0.56112  0.71871  1.0000
  C   C186      1.0  0.07064  0.54641  0.72052  1.0000
  C   C187      1.0  0.05157  0.54653  0.74550  1.0000
  C   C188      1.0  0.05278  0.56111  0.76931  1.0000
  C   C189      1.0  0.07303  0.57574  0.76779  1.0000
  C   C190      1.0  0.09205  0.57596  0.74206  1.0000
  H   H138      1.0  0.23896  0.70038  0.35556  1.0000
  H   H139      1.0  0.29072  0.67352  0.04716  1.0000
  H   H140      1.0  0.10066  0.52706  0.56821  1.0000
  H   H141      1.0  0.11036  0.55668  0.59974  1.0000
  H   H142      1.0  0.10703  0.52162  0.71179  1.0000
  H   H143      1.0  0.15846  0.59518  0.64907  1.0000
  H   H144      1.0  0.16937  0.62527  0.59910  1.0000
  H   H145      1.0  0.14176  0.63263  0.56897  1.0000
  H   H146      1.0  0.10285  0.60958  0.58966  1.0000
  H   H147      1.0  0.09164  0.57911  0.63898  1.0000
  H   H148      1.0  0.12014  0.56272  0.76927  1.0000
  H   H149      1.0  0.14882  0.56000  0.80170  1.0000
  S   S31       1.0  0.00385  0.49488  0.39239  1.0000
  H   H150      1.0  0.31640  0.62640  0.81144  1.0000
  H   H151      1.0  0.15733  0.55905  0.65344  1.0000
  H   H152      1.0  0.06932  0.53475  0.70299  1.0000
  H   H153      1.0  0.03592  0.53492  0.74743  1.0000
  H   H154      1.0  0.03811  0.56078  0.78976  1.0000
  H   H155      1.0  0.07404  0.58673  0.78712  1.0000
  H   H156      1.0  0.10758  0.58756  0.74085  1.0000
  H   H157      1.0  0.20245  0.67607  0.09057  1.0000
  C   C191      1.0  0.24696  0.72066  0.29982  1.0000
  H   H158      1.0  0.26320  0.60530  0.94646  1.0000
  H   H159      1.0  0.13695  0.61881  0.40051  1.0000
  S   S32       1.0  0.01342  0.52998  0.29076  1.0000
  C   C192      1.0  0.10753  0.59730  0.44065  1.0000
  H   H160      1.0  0.08260  0.60341  0.53304  1.0000
  C   C193      1.0  0.17975  0.65556  0.92056  1.0000
  C   C194      1.0  0.28830  0.62935  0.84856  1.0000
  H   H161      1.0  0.09057  0.54255  0.34189  1.0000
  H   H162      1.0  0.30023  0.53510  0.94647  1.0000
  S   S33       1.0  0.18301  0.61574  0.22973  1.0000
  C   C195      1.0  0.09763  0.53603  0.31851  1.0000
  C   C196      1.0  0.07158  0.52847  0.00325  1.0000
  H   H163      1.0  0.11709  0.60727  0.02613  1.0000
  H   H164      1.0  0.12683  0.53022  0.16380  1.0000
  C   C197      1.0  0.12261  0.49450  0.91791  1.0000
  C   C198      1.0  0.12533  0.61527  0.42989  1.0000
  H   H165      1.0  0.02001  0.53821  0.36950  1.0000
  H   H166      1.0  0.27762  0.71002  0.36009  1.0000
  H   H167      1.0  0.19901  0.60654  0.78256  1.0000
  C   C199      1.0  0.06679  0.61209  0.17388  1.0000
  H   H168      1.0  0.02700  0.57056  0.62760  1.0000
  C   C200      1.0  0.03260  0.49631  0.51906  1.0000
  H   H169      1.0  0.19409  0.63172  0.82232  1.0000
  C   C201      1.0  0.09649  0.52240  0.25601  1.0000
  H   H170      1.0  0.13460  0.72782  0.06877  1.0000
  H   H171      1.0  0.07920  0.62977  0.11402  1.0000
  H   H172      1.0  0.18003  0.63228  0.96335  1.0000
  C   C202      1.0  0.08258  0.62714  0.14352  1.0000
  C   C203      1.0  0.11365  0.67871  0.10606  1.0000
  C   C204      1.0  0.09083  0.61968  0.21973  1.0000
  C   C205      1.0  0.20647  0.62595  0.82577  1.0000
  H   H173      1.0  0.11538  0.61932  0.09148  1.0000
  S   S34       1.0  0.16669  0.64077  0.88780  1.0000
  C   C206      1.0  0.20931  0.61186  0.80323  1.0000
  H   H174      1.0  0.14154  0.64281  0.44768  1.0000
  C   C207      1.0  0.18519  0.67578  0.91121  1.0000
  C   C208      1.0  0.12121  0.62277  0.02634  1.0000
  H   H175      1.0  0.09409  0.61666  0.24922  1.0000
  C   C209      1.0  0.28710  0.63806  0.17563  1.0000
  H   H176      1.0  0.21596  0.59470  0.92843  1.0000
  C   C210      1.0  0.10676  0.63460  0.18926  1.0000
  H   H177      1.0  0.19219  0.57943  0.99751  1.0000
  H   H178      1.0  0.15453  0.51772  0.91023  1.0000
  C   C211      1.0  0.28855  0.62572  0.00701  1.0000
  H   H179      1.0  0.07115  0.53072  0.28904  1.0000
  C   C212      1.0  0.12254  0.71338  0.08307  1.0000
  S   S35       1.0  0.14141  0.62867  0.25904  1.0000
  C   C213      1.0  0.12004  0.62967  0.06338  1.0000
  S   S36       1.0  0.15417  0.60123  0.32431  1.0000
  C   C214      1.0  0.10260  0.63874  0.15116  1.0000
  C   C215      1.0  0.23723  0.63161  0.97941  1.0000
  C   C216      1.0  0.29006  0.65794  0.17103  1.0000
  H   H180      1.0  0.18606  0.55666  0.68678  1.0000
  H   H181      1.0  0.10486  0.51090  0.04340  1.0000
  C   C217      1.0  0.24558  0.66757  0.90452  1.0000
  C   C218      1.0  0.25199  0.68791  0.89826  1.0000
  C   C219      1.0  0.21908  0.63221  0.85380  1.0000
  H   H182      1.0  0.21594  0.64267  0.87158  1.0000
  C   C220      1.0  0.30505  0.62222  0.84116  1.0000
  C   C221      1.0  0.09614  0.50510  0.17859  1.0000
  P   P6        1.0  0.08260  0.51550  0.21591  1.0000
  C   C222      1.0  0.11608  0.49175  0.11323  1.0000
  Fe  Fe18      1.0  0.17114  0.62953  0.27997  1.0000
  H   H183      1.0  0.17208  0.69611  0.19117  1.0000
  C   C223      1.0  0.12847  0.63592  0.98951  1.0000
  H   H184      1.0  0.12994  0.63067  0.96075  1.0000
  C   C224      1.0  0.13450  0.49832  0.83257  1.0000
  C   C225      1.0  0.30683  0.60933  0.87180  1.0000
  C   C226      1.0  0.26495  0.64135  0.26855  1.0000
  C   C227      1.0  0.23400  0.63831  0.32259  1.0000
  H   H185      1.0  0.13607  0.68001  0.17607  1.0000
  C   C228      1.0  0.12749  0.50968  0.12358  1.0000
  C   C229      1.0  0.08523  0.50992  0.95772  1.0000
  C   C230      1.0  0.12536  0.64975  0.06387  1.0000
  H   H186      1.0  0.06802  0.68969  0.12577  1.0000
  H   H187      1.0  0.30034  0.58015  0.25556  1.0000
  C   C231      1.0  0.11768  0.51625  0.15630  1.0000
  H   H188      1.0  0.19695  0.59714  0.05492  1.0000
  H   H189      1.0  0.22635  0.63059  0.04386  1.0000
  H   H190      1.0  0.14103  0.66618  0.96098  1.0000
  C   C232      1.0  0.14871  0.66863  0.12469  1.0000
  C   C233      1.0  0.18957  0.68739  0.14149  1.0000
  C   C234      1.0  0.18415  0.64788  0.95581  1.0000
  C   C235      1.0  0.22391  0.62282  0.01856  1.0000
  C   C236      1.0  0.13325  0.66292  0.02663  1.0000
  P   P7        1.0  0.12264  0.65854  0.11183  1.0000
  C   C237      1.0  0.20755  0.60406  0.02493  1.0000
  C   C238      1.0  0.07082  0.60850  0.21212  1.0000
  H   H191      1.0  0.24997  0.64605  0.97514  1.0000
  H   H192      1.0  0.22867  0.67673  0.14857  1.0000
  H   H193      1.0  0.09908  0.55770  0.21985  1.0000
  H   H194      1.0  0.30704  0.71965  0.22134  1.0000
  H   H195      1.0  0.05140  0.60317  0.16784  1.0000
  C   C239      1.0  0.08125  0.53655  0.18673  1.0000
  C   C240      1.0  0.29395  0.66006  0.99385  1.0000
  C   C241      1.0  0.28854  0.69166  0.86403  1.0000
  C   C242      1.0  0.21317  0.66781  0.21316  1.0000
  C   C243      1.0  0.21813  0.60272  0.95332  1.0000
  C   C244      1.0  0.27339  0.62390  0.88693  1.0000
  C   C245      1.0  0.23716  0.60996  0.83721  1.0000
  C   C246      1.0  0.12909  0.69758  0.08781  1.0000
  H   H196      1.0  0.23929  0.68000  0.28879  1.0000
  C   C247      1.0  0.00136  0.50557  0.52094  1.0000
  H   H197      1.0  0.22716  0.64302  0.34941  1.0000
  H   H198      1.0  0.28234  0.64804  0.25489  1.0000
  P   P8        1.0  0.25121  0.63253  0.89571  1.0000
  H   H199      1.0  0.17293  0.54342  0.01512  1.0000
  S   S37       1.0  0.26978  0.71870  0.96697  1.0000
  C   C248      1.0  0.09721  0.50621  0.98494  1.0000
  C   C249      1.0  0.17080  0.68823  0.16584  1.0000
  C   C250      1.0  0.25640  0.64703  0.30407  1.0000
  H   H200      1.0  0.31547  0.48575  0.22061  1.0000
  H   H201      1.0  0.03770  0.51454  0.22243  1.0000
  H   H202      1.0  0.19731  0.70366  0.93065  1.0000
  H   H203      1.0  0.06448  0.51991  0.14564  1.0000
  C   C251      1.0  0.26043  0.65900  0.88973  1.0000
  C   C252      1.0  0.01582  0.50440  0.58106  1.0000
  C   C253      1.0  0.18795  0.67690  0.10931  1.0000
  C   C254      1.0  0.10054  0.71054  0.09667  1.0000
  C   C255      1.0  0.07253  0.52104  0.96687  1.0000
  H   H204      1.0  0.09549  0.72280  0.09295  1.0000
  C   C256      1.0  0.01413  0.57801  0.43523  1.0000
  H   H205      1.0  0.28665  0.63882  0.82417  1.0000
  H   H206      1.0  0.14059  0.53140  0.98709  1.0000
  H   H207      1.0  0.07928  0.66183  0.13440  1.0000
  H   H208      1.0  0.09936  0.58636  0.17687  1.0000
  Fe  Fe19      1.0  0.28224  0.69783  0.99560  1.0000
  S   S38       1.0  0.20640  0.69649  0.00770  1.0000
  S   S39       1.0  0.28033  0.60535  0.08379  1.0000
  Fe  Fe20      1.0  0.26727  0.70428  0.08136  1.0000
  C   C257      1.0  0.08301  0.52447  0.03089  1.0000
  C   C258      1.0  0.19405  0.68819  0.93747  1.0000
  S   S40       1.0  0.27416  0.70042  0.14339  1.0000
  C   C259      1.0  0.07174  0.53430  0.15319  1.0000
  H   H209      1.0  0.29751  0.61084  0.22820  1.0000
  H   H210      1.0  0.03637  0.54501  0.66307  1.0000
  C   C260      1.0  0.03758  0.56442  0.61041  1.0000
  C   C261      1.0  0.01629  0.48761  0.26191  1.0000
  C   C262      1.0  0.29051  0.73142  0.30456  1.0000
  H   H211      1.0  0.31149  0.68752  0.14306  1.0000
  C   C263      1.0  0.00880  0.56305  0.46833  1.0000
  H   H212      1.0  0.29437  0.66534  0.86065  1.0000
  H   H213      1.0  0.30743  0.58815  0.11470  1.0000
  C   C264      1.0  0.05580  0.49782  0.24227  1.0000
  H   H214      1.0  0.30097  0.61742  0.15465  1.0000
  C   C265      1.0  0.14917  0.48899  0.00229  1.0000
  H   H215      1.0  0.04494  0.49183  0.50247  1.0000
  H   H216      1.0  0.00176  0.49057  0.26068  1.0000
  H   H217      1.0  0.99202  0.55270  0.47983  1.0000
  H   H218      1.0  0.07815  0.48865  0.35735  1.0000
  C   C266      1.0  0.08457  0.48721  0.16756  1.0000
  C   C267      1.0  0.11390  0.48495  0.85465  1.0000
  C   C268      1.0  0.10796  0.48302  0.89715  1.0000
  C   C269      1.0  0.27840  0.76554  0.12158  1.0000
  H   H219      1.0  0.28705  0.78523  0.20617  1.0000
  P   P9        1.0  0.30742  0.75850  0.23188  1.0000
  C   C270      1.0  0.31435  0.78309  0.29034  1.0000
  H   H220      1.0  0.27127  0.78861  0.14738  1.0000
  Fe  Fe21      1.0  0.28355  0.73805  0.01021  1.0000
  C   C271      1.0  0.30669  0.79818  0.03773  1.0000
  H   H221      1.0  0.27130  0.76690  0.09591  1.0000
  C   C272      1.0  0.29701  0.76189  0.18766  1.0000
  C   C273      1.0  0.27834  0.77770  0.15065  1.0000
  C   C274      1.0  0.28789  0.75174  0.12524  1.0000
  H   H222      1.0  0.25933  0.74135  0.24402  1.0000
  H   H223      1.0  0.29386  0.80041  0.02556  1.0000
  C   C275      1.0  0.29694  0.74976  0.15831  1.0000
  C   C276      1.0  0.28754  0.77587  0.18367  1.0000
  H   H224      1.0  0.30995  0.82117  0.07342  1.0000
  S   S41       1.0  0.30363  0.77040  0.98939  1.0000
  H   H225      1.0  0.28809  0.74241  0.10256  1.0000
  C   C277      1.0  0.31583  0.80997  0.06471  1.0000
  H   H226      1.0  0.30771  0.88054  0.13359  1.0000
  C   C278      1.0  0.31402  0.78354  0.02644  1.0000
  C   C279      1.0  0.28559  0.74053  0.27167  1.0000
  H   H227      1.0  0.30481  0.77025  0.31349  1.0000
  H   H228      1.0  0.30339  0.73846  0.16114  1.0000
  C   C280      1.0  0.26366  0.73499  0.26945  1.0000
  H   H229      1.0  0.30734  0.73530  0.30656  1.0000
  H   H230      1.0  0.59737  0.07456  0.07206  1.0000
  C   C281      1.0  0.54518  0.03033  0.36102  1.0000
  C   C282      1.0  0.56237  0.10309  0.55659  1.0000
  C   C283      1.0  0.60351  0.06656  0.09160  1.0000
  S   S42       1.0  0.57955  0.18578  0.64315  1.0000
  H   H231      1.0  0.62718  0.00466  0.42306  1.0000
  H   H232      1.0  0.51811  0.05037  0.57839  1.0000
  H   H233      1.0  0.52696  0.22184  0.76014  1.0000
  H   H234      1.0  0.56660  0.01388  0.27943  1.0000
  C   C284      1.0  0.56047  0.21064  0.80887  1.0000
  H   H235      1.0  0.52419  0.15684  0.68495  1.0000
  H   H236      1.0  0.60103  0.19467  0.41693  1.0000
  H   H237      1.0  0.55641  0.11866  0.71395  1.0000
  C   C285      1.0  0.51472  0.01337  0.83292  1.0000
  S   S43       1.0  0.62136  0.11697  0.46279  1.0000
  C   C286      1.0  0.48291  0.99155  0.23506  1.0000
  C   C287      1.0  0.61615  0.15871  0.47080  1.0000
  H   H238      1.0  0.50800  0.03970  0.26206  1.0000
  H   H239      1.0  0.48726  0.03431  0.12827  1.0000
  H   H240      1.0  0.44768  0.00206  0.24025  1.0000
  C   C288      1.0  0.61281  0.07545  0.12188  1.0000
  H   H241      1.0  0.54873  0.21386  0.70156  1.0000
  H   H242      1.0  0.48433  0.04131  0.84999  1.0000
  H   H243      1.0  0.60441  0.99483  0.79195  1.0000
  C   C289      1.0  0.64124  0.01444  0.86562  1.0000
  H   H244      1.0  0.48841  0.01625  0.80892  1.0000
  C   C290      1.0  0.60335  0.13341  0.63904  1.0000
  C   C291      1.0  0.59339  0.11726  0.62126  1.0000
  C   C292      1.0  0.60655  0.11042  0.59427  1.0000
  P   P10       1.0  0.56431  0.10361  0.63784  1.0000
  C   C293      1.0  0.55926  0.08463  0.68033  1.0000
  C   C294      1.0  0.55110  0.12016  0.65285  1.0000
  H   H245      1.0  0.57490  0.11779  0.54973  1.0000
  C   C295      1.0  0.53946  0.07758  0.71039  1.0000
  C   C296      1.0  0.53576  0.06313  0.74359  1.0000
  C   C297      1.0  0.55160  0.05533  0.74656  1.0000
  C   C298      1.0  0.57105  0.06186  0.71617  1.0000
  C   C299      1.0  0.57494  0.07648  0.68326  1.0000
  C   C300      1.0  0.55431  0.09256  0.59668  1.0000
  C   C301      1.0  0.53827  0.07348  0.60439  1.0000
  C   C302      1.0  0.53031  0.06514  0.57243  1.0000
  H   H246      1.0  0.63944  0.11396  0.56563  1.0000
  Fe  Fe22      1.0  0.62435  0.09244  0.75572  1.0000
  C   C303      1.0  0.62932  0.11935  0.58610  1.0000
  H   H247      1.0  0.59373  0.13915  0.65967  1.0000
  H   H248      1.0  0.59931  0.09787  0.58039  1.0000
  H   H249      1.0  0.54481  0.12660  0.59380  1.0000
  H   H250      1.0  0.54908  0.04455  0.77272  1.0000
  H   H251      1.0  0.58351  0.05611  0.71870  1.0000
  H   H252      1.0  0.59033  0.08151  0.66058  1.0000
  H   H253      1.0  0.53192  0.06498  0.63492  1.0000
  C   C304      1.0  0.56871  0.99903  0.03258  1.0000
  C   C305      1.0  0.56554  0.03073  0.45077  1.0000
  C   C306      1.0  0.61401  0.03665  0.37607  1.0000
  C   C307      1.0  0.49648  0.03517  0.85287  1.0000
  C   C308      1.0  0.52191  0.00456  0.47021  1.0000
  H   H254      1.0  0.57069  0.01046  0.12739  1.0000
  C   C309      1.0  0.55793  0.00353  0.81442  1.0000
  Fe  Fe23      1.0  0.58471  0.21765  0.63558  1.0000
  H   H255      1.0  0.52753  0.14946  0.61464  1.0000
  C   C310      1.0  0.55417  0.09478  0.52491  1.0000
  H   H256      1.0  0.62739  0.16827  0.80461  1.0000
  C   C311      1.0  0.47678  0.02803  0.21246  1.0000
  H   H257      1.0  0.56962  0.05308  0.84093  1.0000
  C   C312      1.0  0.52702  0.02385  0.47659  1.0000
  H   H258      1.0  0.54422  0.06005  0.27143  1.0000
  S   S44       1.0  0.58153  0.08874  0.42625  1.0000
  H   H259      1.0  0.60317  0.07727  0.85182  1.0000
  H   H260      1.0  0.63977  0.04725  0.27516  1.0000
  C   C313      1.0  0.55920  0.21800  0.87714  1.0000
  C   C314      1.0  0.56660  0.00203  0.10370  1.0000
  P   P11       1.0  0.58276  0.00300  0.42820  1.0000
  C   C315      1.0  0.44078  0.02811  0.24065  1.0000
  C   C316      1.0  0.63907  0.13508  0.60478  1.0000
  C   C317      1.0  0.58637  0.02214  0.89413  1.0000
  H   H261      1.0  0.52078  0.05823  0.76730  1.0000
  C   C318      1.0  0.54312  0.12921  0.62487  1.0000
  H   H262      1.0  0.55639  0.04620  0.09062  1.0000
  H   H263      1.0  0.56029  0.10305  0.49419  1.0000
  C   C319      1.0  0.57289  0.02808  0.87368  1.0000
  H   H264      1.0  0.53873  0.14143  0.73424  1.0000
  H   H265      1.0  0.58303  0.03236  0.78857  1.0000
  H   H266      1.0  0.49841  0.00204  0.28346  1.0000
  C   C320      1.0  0.50521  0.99687  0.13636  1.0000
  H   H267      1.0  0.50814  0.05238  0.89748  1.0000
  C   C321      1.0  0.53135  0.14638  0.67619  1.0000
  C   C322      1.0  0.56524  0.02350  0.30099  1.0000
  C   C323      1.0  0.54672  0.01761  0.33349  1.0000
  S   S45       1.0  0.52528  0.99458  0.33964  1.0000
  C   C324      1.0  0.54950  0.12473  0.69237  1.0000
  H   H268      1.0  0.59478  0.02369  0.72226  1.0000
  H   H269      1.0  0.53583  0.03846  0.90433  1.0000
  C   C325      1.0  0.63888  0.16230  0.81186  1.0000
  H   H270      1.0  0.53225  0.06120  0.06773  1.0000
  H   H271      1.0  0.58510  0.17069  0.56673  1.0000
  C   C326      1.0  0.62302  0.21437  0.77026  1.0000
  C   C327      1.0  0.64680  0.06298  0.95322  1.0000
  C   C328      1.0  0.57907  0.04810  0.85858  1.0000
  H   H272      1.0  0.55747  0.10322  0.82326  1.0000
  C   C329      1.0  0.57497  0.05131  0.98772  1.0000
  H   H273      1.0  0.51395  0.99846  0.93836  1.0000
  Fe  Fe24      1.0  0.61521  0.19719  0.61190  1.0000
  Fe  Fe25      1.0  0.60608  0.08528  0.45935  1.0000
  C   C330      1.0  0.49881  0.02109  0.82970  1.0000
  H   H274      1.0  0.55294  0.05158  0.47347  1.0000
  C   C331      1.0  0.60247  0.04766  0.08659  1.0000
  C   C332      1.0  0.56068  0.01133  0.44439  1.0000
  H   H275      1.0  0.58766  0.05042  0.60236  1.0000
  C   C333      1.0  0.56109  0.05956  0.97486  1.0000
  C   C334      1.0  0.64204  0.07318  0.59736  1.0000
  C   C335      1.0  0.55798  0.05010  0.05823  1.0000
  C   C336      1.0  0.54883  0.03682  0.46732  1.0000
  H   H276      1.0  0.57489  0.20169  0.56623  1.0000
  C   C337      1.0  0.54308  0.05187  0.24646  1.0000
  H   H277      1.0  0.61244  0.02433  0.10556  1.0000
  C   C338      1.0  0.58057  0.05475  0.32352  1.0000
  C   C339      1.0  0.62326  0.02542  0.99966  1.0000
  H   H278      1.0  0.54843  0.18872  0.86316  1.0000
  H   H279      1.0  0.64018  0.08452  0.49866  1.0000
  C   C340      1.0  0.54578  0.06325  0.00366  1.0000
  C   C341      1.0  0.61973  0.06236  0.61441  1.0000
  C   C342      1.0  0.56216  0.04877  0.35631  1.0000
  H   H280      1.0  0.53082  0.02593  0.38598  1.0000
  C   C343      1.0  0.58197  0.04207  0.29585  1.0000
  C   C344      1.0  0.53953  0.13768  0.70399  1.0000
  C   C345      1.0  0.60560  0.03602  0.89944  1.0000
  C   C346      1.0  0.61458  0.00036  0.81263  1.0000
  H   H281      1.0  0.57558  0.04061  0.17139  1.0000
  H   H282      1.0  0.61602  0.01240  0.27957  1.0000
  H   H283      1.0  0.60165  0.02116  0.55716  1.0000
  H   H284      1.0  0.58227  0.04108  0.44460  1.0000
  H   H285      1.0  0.56076  0.05853  0.37749  1.0000
  C   C347      1.0  0.64320  0.18723  0.35798  1.0000
  C   C348      1.0  0.49765  0.01130  0.14876  1.0000
  C   C349      1.0  0.55546  0.20428  0.85097  1.0000
  C   C350      1.0  0.54418  0.05845  0.04534  1.0000
  C   C351      1.0  0.53326  0.14224  0.63658  1.0000
  C   C352      1.0  0.57480  0.01764  0.78352  1.0000
  C   C353      1.0  0.58522  0.22154  0.45136  1.0000
  H   H286      1.0  0.55491  0.21305  0.90983  1.0000
  H   H287      1.0  0.51413  0.02874  0.48890  1.0000
  C   C354      1.0  0.52117  0.02931  0.20931  1.0000
  C   C355      1.0  0.57487  0.01055  0.06217  1.0000
  H   H288      1.0  0.61479  0.01088  0.01794  1.0000
  H   H289      1.0  0.58649  0.04830  0.96513  1.0000
  H   H290      1.0  0.42366  0.02020  0.25589  1.0000
  C   C356      1.0  0.58149  0.01280  0.74568  1.0000
  H   H291      1.0  0.57464  0.00531  0.00037  1.0000
  C   C357      1.0  0.48736  0.98969  0.27367  1.0000
  H   H292      1.0  0.52701  0.08343  0.70840  1.0000
  H   H293      1.0  0.62859  0.07252  0.17041  1.0000
  C   C358      1.0  0.53818  0.07585  0.53273  1.0000
  C   C359      1.0  0.62745  0.16774  0.49857  1.0000
  C   C360      1.0  0.59378  0.16745  0.53989  1.0000
  H   H294      1.0  0.53199  0.06955  0.50789  1.0000
  C   C361      1.0  0.61773  0.19767  0.40119  1.0000
  P   P12       1.0  0.54923  0.01000  0.86312  1.0000
  C   C362      1.0  0.52849  0.01977  0.85930  1.0000
  C   C363      1.0  0.52570  0.03360  0.88319  1.0000
  C   C364      1.0  0.50989  0.04139  0.87966  1.0000
  C   C365      1.0  0.53863  0.99823  0.45482  1.0000
  S   S46       1.0  0.59374  0.06223  0.51612  1.0000
  H   H295      1.0  0.47776  0.07460  0.20284  1.0000
  C   C366      1.0  0.59848  0.14747  0.74114  1.0000
  C   C367      1.0  0.62697  0.99477  0.87327  1.0000
  C   C368      1.0  0.52899  0.22879  0.72934  1.0000
  C   C369      1.0  0.59826  0.06191  0.86429  1.0000
  H   H296      1.0  0.61645  0.12889  0.72750  1.0000
  C   C370      1.0  0.62915  0.03868  0.30419  1.0000
  C   C371      1.0  0.54046  0.02963  0.18402  1.0000
  C   C372      1.0  0.56405  0.21465  0.47659  1.0000
  C   C373      1.0  0.59361  0.15346  0.47781  1.0000
  S   S47       1.0  0.62208  0.12603  0.36465  1.0000
  H   H297      1.0  0.56237  0.06321  0.94250  1.0000
  C   C374      1.0  0.62156  0.06574  0.14670  1.0000
  C   C375      1.0  0.59292  0.01211  0.50227  1.0000
  H   H298      1.0  0.64532  0.01159  0.13649  1.0000
  S   S48       1.0  0.59092  0.09172  0.78338  1.0000
  H   H299      1.0  0.63352  0.15485  0.64438  1.0000
  H   H300      1.0  0.56485  0.15407  0.51765  1.0000
  H   H301      1.0  0.55134  0.13421  0.81491  1.0000
  C   C376      1.0  0.62609  0.14230  0.63073  1.0000
  C   C377      1.0  0.58012  0.14900  0.76589  1.0000
  C   C378      1.0  0.56901  0.11557  0.80050  1.0000
  H   H302      1.0  0.53519  0.06985  0.99366  1.0000
  H   H303      1.0  0.62819  0.03969  0.15974  1.0000
  H   H304      1.0  0.60981  0.15969  0.71793  1.0000
  H   H305      1.0  0.61407  0.05611  0.64657  1.0000
  C   C379      1.0  0.54154  0.22446  0.69623  1.0000
  H   H306      1.0  0.63823  0.06281  0.33656  1.0000
  C   C380      1.0  0.60006  0.00775  0.46388  1.0000
  C   C381      1.0  0.56555  0.13308  0.79579  1.0000
  Fe  Fe26      1.0  0.59130  0.19072  0.70016  1.0000
  C   C382      1.0  0.61223  0.06692  0.54751  1.0000
  Fe  Fe27      1.0  0.62782  0.23000  0.66014  1.0000
  H   H307      1.0  0.64488  0.17141  0.49317  1.0000
  C   C383      1.0  0.60226  0.13002  0.74657  1.0000
  H   H308      1.0  0.63903  0.02130  0.53704  1.0000
  H   H309      1.0  0.57800  0.06135  0.22493  1.0000
  C   C384      1.0  0.63441  0.07824  0.53084  1.0000
  C   C385      1.0  0.58738  0.11401  0.77609  1.0000
  C   C386      1.0  0.63519  0.21417  0.40541  1.0000
  C   C387      1.0  0.61638  0.17218  0.53308  1.0000
  S   S49       1.0  0.57465  0.17043  0.76048  1.0000
  S   S50       1.0  0.60151  0.07828  0.31484  1.0000
  H   H310      1.0  0.62259  0.07137  0.98891  1.0000
  C   C388      1.0  0.56084  0.04103  0.18987  1.0000
  H   H311      1.0  0.61630  0.03125  0.91384  1.0000
  P   P13       1.0  0.59174  0.03632  0.04629  1.0000
  C   C389      1.0  0.57389  0.04697  0.02943  1.0000
  C   C390      1.0  0.47125  0.05875  0.21075  1.0000
  C   C391      1.0  0.45451  0.01787  0.23177  1.0000
  H   H312      1.0  0.50212  0.05671  0.18670  1.0000
  C   C392      1.0  0.49551  0.02003  0.07919  1.0000
  C   C393      1.0  0.44915  0.04854  0.23024  1.0000
  C   C394      1.0  0.56218  0.05248  0.22044  1.0000
  H   H313      1.0  0.59607  0.04662  0.27027  1.0000
  S   S51       1.0  0.57979  0.13964  0.44509  1.0000
  H   H314      1.0  0.57671  0.01223  0.51198  1.0000
  C   C395      1.0  0.60029  0.01696  0.37902  1.0000
  S   S52       1.0  0.54054  0.98551  0.22639  1.0000
  C   C396      1.0  0.49297  0.02299  0.11975  1.0000
  C   C397      1.0  0.60146  0.00824  0.34393  1.0000
  C   C398      1.0  0.58236  0.15812  0.51207  1.0000
  C   C399      1.0  0.62133  0.04728  0.14075  1.0000
  Fe  Fe28      1.0  0.59862  0.12088  0.42533  1.0000
  S   S53       1.0  0.62651  0.19937  0.66962  1.0000
  C   C400      1.0  0.61563  0.04049  0.00624  1.0000
  H   H315      1.0  0.43853  0.05646  0.23742  1.0000
  C   C401      1.0  0.48502  0.04856  0.20177  1.0000
  Fe  Fe29      1.0  0.60721  0.09320  0.36933  1.0000
  H   H316      1.0  0.53992  0.02079  0.16037  1.0000
  S   S54       1.0  0.61962  0.22880  0.59940  1.0000
  S   S55       1.0  0.59336  0.22164  0.69539  1.0000
  H   H317      1.0  0.50479  0.00312  0.03595  1.0000
  H   H318      1.0  0.61385  0.04373  0.40252  1.0000
  H   H319      1.0  0.60609  0.20897  0.76845  1.0000
  C   C402      1.0  0.61576  0.01907  0.30672  1.0000
  C   C403      1.0  0.60486  0.05904  0.58936  1.0000
  C   C404      1.0  0.61213  0.03844  0.11042  1.0000
  C   C405      1.0  0.61168  0.05586  0.88419  1.0000
  C   C406      1.0  0.62178  0.18429  0.37753  1.0000
  C   C407      1.0  0.52263  0.04026  0.24111  1.0000
  H   H320      1.0  0.55718  0.20003  0.78854  1.0000
  C   C408      1.0  0.63462  0.00072  0.12284  1.0000
  H   H321      1.0  0.61334  0.08992  0.12609  1.0000
  C   C409      1.0  0.63527  0.01258  0.47901  1.0000
  S   S56       1.0  0.63084  0.08761  0.40245  1.0000
  H   H322      1.0  0.49178  0.02901  0.05698  1.0000
  P   P14       1.0  0.49476  0.01501  0.20124  1.0000
  C   C410      1.0  0.57140  0.99385  0.73835  1.0000
  C   C411      1.0  0.57781  0.20714  0.53411  1.0000
  H   H323      1.0  0.62717  0.06645  0.88650  1.0000
  C   C412      1.0  0.64227  0.02908  0.96949  1.0000
  H   H324      1.0  0.62487  0.15573  0.44372  1.0000
  H   H325      1.0  0.60830  0.17126  0.37549  1.0000
  S   S57       1.0  0.62698  0.06413  0.74257  1.0000
  H   H326      1.0  0.61293  0.13681  0.85010  1.0000
  S   S58       1.0  0.60274  0.99627  0.19025  1.0000
  H   H327      1.0  0.62765  0.18876  0.75377  1.0000
  H   H328      1.0  0.57687  0.99004  0.70924  1.0000
  H   H329      1.0  0.58269  0.00681  0.90455  1.0000
  H   H330      1.0  0.51631  0.00254  0.81457  1.0000
  C   C413      1.0  0.62830  0.04744  0.33885  1.0000
  C   C414      1.0  0.60701  0.01703  0.52835  1.0000
  H   H331      1.0  0.55049  0.21487  0.46412  1.0000
  H   H332      1.0  0.64360  0.98805  0.21326  1.0000
  C   C415      1.0  0.64454  0.13551  0.84793  1.0000
  C   C416      1.0  0.62132  0.00792  0.45256  1.0000
  Fe  Fe30      1.0  0.64385  0.12014  0.40214  1.0000
  C   C417      1.0  0.64257  0.99753  0.08390  1.0000
  S   S59       1.0  0.63160  0.18390  0.56631  1.0000
  H   H333      1.0  0.63795  0.12129  0.86749  1.0000
  C   C418      1.0  0.62779  0.05940  0.98337  1.0000
  H   H334      1.0  0.62920  0.02989  0.77915  1.0000
  H   H335      1.0  0.59149  0.99314  0.34464  1.0000
  C   C419      1.0  0.50282  0.00546  0.06729  1.0000
  C   C420      1.0  0.59898  0.21394  0.50902  1.0000
  H   H336      1.0  0.64794  0.01733  0.96423  1.0000
  H   H337      1.0  0.54413  0.20264  0.53804  1.0000
  C   C421      1.0  0.61272  0.99029  0.14361  1.0000
  H   H338      1.0  0.61215  0.21324  0.52220  1.0000
  C   C422      1.0  0.62854  0.02020  0.80546  1.0000
  H   H339      1.0  0.50922  0.98787  0.15806  1.0000
  C   C423      1.0  0.50751  0.99382  0.09596  1.0000
  C   C424      1.0  0.62814  0.01726  0.51680  1.0000
  H   H340      1.0  0.50500  0.99444  0.47740  1.0000
  C   C425      1.0  0.63525  0.20275  0.76270  1.0000
  C   C426      1.0  0.61360  0.98770  0.84684  1.0000
  C   C427      1.0  0.54761  0.98459  0.80652  1.0000
  C   C428      1.0  0.63047  0.14425  0.83822  1.0000
  C   C429      1.0  0.52084  0.98735  0.93702  1.0000
  C   C430      1.0  0.56039  0.20762  0.51808  1.0000
  C   C431      1.0  0.64167  0.02729  0.83232  1.0000
  C   C432      1.0  0.53784  0.98891  0.90380  1.0000
  C   C433      1.0  0.60290  0.22152  0.46758  1.0000
  H   H341      1.0  0.58782  0.22700  0.41927  1.0000
  H   H342      1.0  0.62639  0.98512  0.89969  1.0000
  H   H343      1.0  0.53405  0.98304  0.45181  1.0000
  C   C434      1.0  0.56956  0.23067  0.79283  1.0000
  S   S60       1.0  0.56156  0.22972  0.61490  1.0000
  C   C435      1.0  0.62867  0.98392  0.06552  1.0000
  S   S61       1.0  0.64847  0.09837  0.79466  1.0000
  C   C436      1.0  0.64926  0.08116  0.55568  1.0000
  S   S62       1.0  0.64891  0.11095  0.69840  1.0000
  H   H344      1.0  0.64964  0.20878  0.47793  1.0000
  H   H345      1.0  0.64633  0.17649  0.34082  1.0000
  P   P15       1.0  0.63035  0.23182  0.43533  1.0000
  H   H346      1.0  0.40790  0.46211  0.99735  1.0000
  C   C437      1.0  0.63993  0.45590  0.61947  1.0000
  C   C438      1.0  0.56941  0.38071  0.88266  1.0000
  H   H347      1.0  0.60174  0.39054  0.55564  1.0000
  S   S63       1.0  0.63683  0.44783  0.73464  1.0000
  H   H348      1.0  0.38347  0.35517  0.69948  1.0000
  H   H349      1.0  0.59173  0.30790  0.82860  1.0000
  C   C439      1.0  0.62374  0.38038  0.48488  1.0000
  Fe  Fe31      1.0  0.51386  0.30792  0.66712  1.0000
  S   S64       1.0  0.48333  0.28238  0.70024  1.0000
  S   S65       1.0  0.52202  0.31124  0.59857  1.0000
  Fe  Fe32      1.0  0.52417  0.32038  0.74627  1.0000
  S   S66       1.0  0.49420  0.29607  0.78522  1.0000
  S   S67       1.0  0.54456  0.34112  0.78051  1.0000
  Fe  Fe33      1.0  0.50356  0.27770  0.74218  1.0000
  C   C440      1.0  0.63562  0.47272  0.60947  1.0000
  Fe  Fe34      1.0  0.47709  0.30354  0.73941  1.0000
  S   S68       1.0  0.44304  0.30375  0.75692  1.0000
  S   S69       1.0  0.53479  0.30155  0.70602  1.0000
  S   S70       1.0  0.50641  0.32946  0.70349  1.0000
  Fe  Fe35      1.0  0.62176  0.43908  0.47198  1.0000
  S   S71       1.0  0.59776  0.42319  0.43713  1.0000
  H   H350      1.0  0.64105  0.42959  0.55032  1.0000
  Fe  Fe36      1.0  0.59556  0.46284  0.50233  1.0000
  S   S72       1.0  0.56950  0.44894  0.47053  1.0000
  C   C441      1.0  0.54444  0.23366  0.65639  1.0000
  Fe  Fe37      1.0  0.57243  0.42090  0.49269  1.0000
  S   S73       1.0  0.54035  0.39541  0.50713  1.0000
  Fe  Fe38      1.0  0.59676  0.45231  0.41756  1.0000
  S   S74       1.0  0.59380  0.46131  0.35461  1.0000
  S   S75       1.0  0.59634  0.43436  0.53009  1.0000
  S   S76       1.0  0.62297  0.46872  0.44719  1.0000
  C   C442      1.0  0.33766  0.46281  0.37211  1.0000
  C   C443      1.0  0.51924  0.34756  0.98553  1.0000
  C   C444      1.0  0.49392  0.40938  0.96869  1.0000
  H   H351      1.0  0.56099  0.28065  0.74288  1.0000
  H   H352      1.0  0.61863  0.37736  0.79127  1.0000
  C   C445      1.0  0.61292  0.28194  0.80771  1.0000
  Fe  Fe39      1.0  0.51532  0.41457  0.75265  1.0000
  S   S77       1.0  0.48624  0.40221  0.80636  1.0000
  S   S78       1.0  0.53818  0.39897  0.73992  1.0000
  Fe  Fe40      1.0  0.50358  0.44796  0.72247  1.0000
  S   S79       1.0  0.47292  0.43842  0.77237  1.0000
  S   S80       1.0  0.51505  0.47632  0.67865  1.0000
  Fe  Fe41      1.0  0.49349  0.43347  0.81314  1.0000
  S   S81       1.0  0.49114  0.44429  0.87262  1.0000
  Fe  Fe42      1.0  0.46803  0.40805  0.76130  1.0000
  S   S82       1.0  0.43484  0.38589  0.76334  1.0000
  S   S83       1.0  0.52466  0.44534  0.76434  1.0000
  S   S84       1.0  0.49647  0.41802  0.70667  1.0000
  C   C446      1.0  0.39834  0.34044  0.65857  1.0000
  H   H353      1.0  0.45132  0.45918  0.87025  1.0000
  H   H354      1.0  0.35151  0.38744  0.85267  1.0000
  C   C447      1.0  0.55959  0.30808  0.84581  1.0000
  C   C448      1.0  0.60110  0.43627  0.63983  1.0000
  C   C449      1.0  0.39912  0.44752  0.94792  1.0000
  H   H355      1.0  0.41827  0.38296  0.69423  1.0000
  C   C450      1.0  0.50506  0.46981  0.86129  1.0000
  H   H356      1.0  0.61377  0.29041  0.53788  1.0000
  H   H357      1.0  0.58331  0.45939  0.23093  1.0000
  H   H358      1.0  0.57260  0.23519  0.76031  1.0000
  C   C451      1.0  0.40642  0.46406  0.96615  1.0000
  C   C452      1.0  0.61289  0.31823  0.55010  1.0000
  H   H359      1.0  0.50747  0.47183  0.79657  1.0000
  C   C453      1.0  0.60362  0.29804  0.55029  1.0000
  H   H360      1.0  0.42681  0.44173  0.82938  1.0000
  H   H361      1.0  0.50464  0.47284  0.92395  1.0000
  C   C454      1.0  0.50973  0.48038  0.89264  1.0000
  C   C455      1.0  0.59380  0.27539  0.65932  1.0000
  H   H362      1.0  0.60551  0.46139  0.83716  1.0000
  C   C456      1.0  0.62503  0.28312  0.39357  1.0000
  H   H363      1.0  0.48099  0.33509  0.54385  1.0000
  C   C457      1.0  0.51414  0.43793  0.50902  1.0000
  C   C458      1.0  0.46241  0.33238  0.60554  1.0000
  H   H364      1.0  0.49576  0.46958  0.08352  1.0000
  C   C459      1.0  0.39706  0.44958  0.90769  1.0000
  C   C460      1.0  0.41787  0.34088  0.63437  1.0000
  C   C461      1.0  0.36692  0.47712  0.31017  1.0000
  H   H365      1.0  0.62348  0.24234  0.78278  1.0000
  C   C462      1.0  0.55248  0.47385  0.92311  1.0000
  H   H366      1.0  0.56544  0.32281  0.85248  1.0000
  C   C463      1.0  0.51164  0.47972  0.82087  1.0000
  H   H367      1.0  0.38374  0.45818  0.29045  1.0000
  H   H368      1.0  0.57071  0.35277  0.45140  1.0000
  C   C464      1.0  0.57410  0.24454  0.81871  1.0000
  C   C465      1.0  0.52180  0.25111  0.68268  1.0000
  C   C466      1.0  0.44681  0.36960  0.53612  1.0000
  H   H369      1.0  0.63794  0.30072  0.33335  1.0000
  S   S85       1.0  0.50514  0.24891  0.76408  1.0000
  C   C467      1.0  0.63897  0.36359  0.56249  1.0000
  C   C468      1.0  0.53655  0.47901  0.63708  1.0000
  C   C469      1.0  0.53917  0.46277  0.62218  1.0000
  C   C470      1.0  0.55660  0.46554  0.58866  1.0000
  H   H370      1.0  0.62601  0.42487  0.64327  1.0000
  C   C471      1.0  0.35033  0.47858  0.34040  1.0000
  H   H371      1.0  0.52775  0.44812  0.63622  1.0000
  H   H372      1.0  0.55864  0.45305  0.57699  1.0000
  C   C472      1.0  0.44101  0.32677  0.75691  1.0000
  C   C473      1.0  0.50771  0.44325  0.54645  1.0000
  C   C474      1.0  0.41840  0.34603  0.76732  1.0000
  C   C475      1.0  0.43718  0.36319  0.76011  1.0000
  C   C476      1.0  0.45784  0.36216  0.75055  1.0000
  C   C477      1.0  0.45970  0.34401  0.74880  1.0000
  C   C478      1.0  0.38463  0.39912  0.81593  1.0000
  C   C479      1.0  0.40141  0.41543  0.79029  1.0000
  H   H373      1.0  0.47247  0.37530  0.74467  1.0000
  H   H374      1.0  0.47568  0.34338  0.74187  1.0000
  C   C480      1.0  0.52958  0.33511  0.57236  1.0000
  C   C481      1.0  0.52892  0.33790  0.53131  1.0000
  C   C482      1.0  0.53343  0.35670  0.51055  1.0000
  C   C483      1.0  0.53940  0.37286  0.53032  1.0000
  C   C484      1.0  0.54082  0.37014  0.57079  1.0000
  C   C485      1.0  0.53577  0.35127  0.59197  1.0000
  H   H375      1.0  0.52414  0.32542  0.51604  1.0000
  H   H376      1.0  0.53181  0.35867  0.47949  1.0000
  H   H377      1.0  0.54485  0.38251  0.58629  1.0000
  H   H378      1.0  0.53639  0.34922  0.62357  1.0000
  H   H379      1.0  0.57894  0.37012  0.80273  1.0000
  C   C486      1.0  0.39822  0.43288  0.78109  1.0000
  C   C487      1.0  0.58987  0.27400  0.74341  1.0000
  H   H380      1.0  0.43530  0.38021  0.48727  1.0000
  C   C488      1.0  0.55781  0.47019  0.22821  1.0000
  C   C489      1.0  0.34154  0.44549  0.37411  1.0000
  C   C490      1.0  0.61733  0.35352  0.75875  1.0000
  C   C491      1.0  0.58590  0.36105  0.78655  1.0000
  C   C492      1.0  0.57250  0.34557  0.77136  1.0000
  C   C493      1.0  0.58150  0.33398  0.74980  1.0000
  C   C494      1.0  0.60396  0.33797  0.74344  1.0000
  H   H381      1.0  0.57119  0.32191  0.73828  1.0000
  H   H382      1.0  0.61096  0.32930  0.72592  1.0000
  C   C495      1.0  0.46444  0.36635  0.54738  1.0000
  H   H383      1.0  0.59470  0.27477  0.62742  1.0000
  H   H384      1.0  0.44445  0.29115  0.67783  1.0000
  C   C496      1.0  0.44891  0.37771  0.49581  1.0000
  H   H385      1.0  0.48103  0.30197  0.55369  1.0000
  H   H386      1.0  0.63016  0.32603  0.53665  1.0000
  H   H387      1.0  0.45980  0.31667  0.88360  1.0000
  C   C497      1.0  0.56832  0.23807  0.86110  1.0000
  H   H388      1.0  0.36127  0.43058  0.34617  1.0000
  P   P16       1.0  0.46273  0.35702  0.59972  1.0000
  C   C498      1.0  0.60954  0.43411  0.73594  1.0000
  C   C499      1.0  0.59501  0.44362  0.73579  1.0000
  C   C500      1.0  0.57311  0.43297  0.73649  1.0000
  C   C501      1.0  0.56555  0.41267  0.73841  1.0000
  C   C502      1.0  0.58013  0.40315  0.73844  1.0000
  C   C503      1.0  0.60215  0.41386  0.73714  1.0000
  H   H389      1.0  0.60078  0.45922  0.73459  1.0000
  H   H390      1.0  0.56232  0.44057  0.73466  1.0000
  H   H391      1.0  0.57432  0.38746  0.73963  1.0000
  H   H392      1.0  0.61323  0.40635  0.73770  1.0000
  H   H393      1.0  0.43151  0.36605  0.55826  1.0000
  C   C504      1.0  0.52662  0.31791  0.99445  1.0000
  C   C505      1.0  0.36451  0.40014  0.83281  1.0000
  C   C506      1.0  0.59665  0.45279  0.62924  1.0000
  H   H394      1.0  0.38740  0.38571  0.82261  1.0000
  H   H395      1.0  0.50560  0.35579  0.77666  1.0000
  C   C507      1.0  0.42343  0.47715  0.19805  1.0000
  H   H396      1.0  0.62053  0.30907  0.76726  1.0000
  C   C508      1.0  0.39849  0.35568  0.67997  1.0000
  H   H397      1.0  0.41942  0.41141  0.64372  1.0000
  C   C509      1.0  0.55081  0.38483  0.88022  1.0000
  C   C510      1.0  0.53732  0.29823  0.84825  1.0000
  C   C511      1.0  0.46539  0.44544  0.65886  1.0000
  H   H398      1.0  0.41751  0.32900  0.61782  1.0000
  C   C512      1.0  0.48120  0.33503  0.82758  1.0000
  C   C513      1.0  0.63985  0.46749  0.82290  1.0000
  H   H399      1.0  0.51361  0.35802  0.99913  1.0000
  C   C514      1.0  0.50577  0.46134  0.54756  1.0000
  H   H400      1.0  0.40578  0.31457  0.77196  1.0000
  C   C515      1.0  0.58862  0.35341  0.49772  1.0000
  H   H401      1.0  0.61427  0.26294  0.45021  1.0000
  H   H402      1.0  0.33173  0.43327  0.39871  1.0000
  C   C516      1.0  0.46220  0.29426  0.61593  1.0000
  C   C517      1.0  0.46862  0.38274  0.46657  1.0000
  C   C518      1.0  0.45228  0.31970  0.64339  1.0000
  H   H403      1.0  0.58777  0.42243  0.65344  1.0000
  H   H404      1.0  0.57984  0.45155  0.63401  1.0000
  H   H405      1.0  0.32483  0.46404  0.39516  1.0000
  C   C519      1.0  0.50181  0.48188  0.09880  1.0000
  C   C520      1.0  0.62635  0.30106  0.78743  1.0000
  C   C521      1.0  0.47251  0.32571  0.57303  1.0000
  H   H406      1.0  0.40239  0.34676  0.77461  1.0000
  H   H407      1.0  0.52848  0.37394  0.81894  1.0000
  C   C522      1.0  0.50030  0.35144  0.80959  1.0000
  H   H408      1.0  0.48631  0.37905  0.89922  1.0000
  H   H409      1.0  0.63222  0.36891  0.62470  1.0000
  C   C523      1.0  0.57452  0.29956  0.83189  1.0000
  C   C524      1.0  0.51711  0.40315  0.60859  1.0000
  H   H410      1.0  0.51539  0.33086  0.04399  1.0000
  C   C525      1.0  0.62096  0.38695  0.44709  1.0000
  C   C526      1.0  0.41009  0.47115  0.72813  1.0000
  H   H411      1.0  0.53863  0.25681  0.81498  1.0000
  C   C527      1.0  0.37801  0.43389  0.79825  1.0000
  C   C528      1.0  0.36121  0.41752  0.82403  1.0000
  C   C529      1.0  0.54468  0.27094  0.82445  1.0000
  H   H412      1.0  0.48738  0.41952  0.98166  1.0000
  H   H413      1.0  0.40585  0.45924  0.67285  1.0000
  C   C530      1.0  0.40410  0.47018  0.69068  1.0000
  P   P17       1.0  0.52369  0.36846  0.90867  1.0000
  H   H414      1.0  0.57638  0.42953  0.81853  1.0000
  H   H415      1.0  0.53716  0.30818  0.93906  1.0000
  P   P18       1.0  0.61068  0.35465  0.55953  1.0000
  H   H416      1.0  0.64030  0.30912  0.67987  1.0000
  C   C531      1.0  0.42959  0.42300  0.65678  1.0000
  C   C532      1.0  0.49902  0.39153  0.59543  1.0000
  H   H417      1.0  0.50470  0.43360  0.57476  1.0000
  C   C533      1.0  0.52527  0.34914  0.94295  1.0000
  C   C534      1.0  0.51199  0.40708  0.97954  1.0000
  C   C535      1.0  0.60732  0.27089  0.71896  1.0000
  C   C536      1.0  0.43805  0.45664  0.81703  1.0000
  H   H418      1.0  0.48230  0.33516  0.92707  1.0000
  C   C537      1.0  0.48751  0.33980  0.89427  1.0000
  C   C538      1.0  0.35816  0.44397  0.34446  1.0000
  C   C539      1.0  0.60833  0.36519  0.77987  1.0000
  C   C540      1.0  0.64632  0.27524  0.33667  1.0000
  C   C541      1.0  0.62123  0.27177  0.83288  1.0000
  H   H419      1.0  0.46654  0.46407  0.70369  1.0000
  H   H420      1.0  0.39152  0.43673  0.89357  1.0000
  C   C542      1.0  0.52986  0.27959  0.83793  1.0000
  C   C543      1.0  0.43936  0.46580  0.77786  1.0000
  C   C544      1.0  0.52085  0.39450  0.96161  1.0000
  C   C545      1.0  0.42006  0.42996  0.68922  1.0000
  C   C546      1.0  0.57477  0.27840  0.72504  1.0000
  H   H421      1.0  0.52715  0.30586  0.01432  1.0000
  H   H422      1.0  0.48735  0.46439  0.15882  1.0000
  C   C547      1.0  0.43316  0.44492  0.70654  1.0000
  H   H423      1.0  0.44488  0.32452  0.66947  1.0000
  H   H424      1.0  0.52423  0.44692  0.44359  1.0000
  H   H425      1.0  0.38316  0.32814  0.66117  1.0000
  H   H426      1.0  0.51632  0.42414  0.50809  1.0000
  C   C548      1.0  0.62270  0.43773  0.63446  1.0000
  C   C549      1.0  0.51651  0.46881  0.47361  1.0000
  C   C550      1.0  0.47240  0.30674  0.57829  1.0000
  C   C551      1.0  0.51129  0.38368  0.93358  1.0000
  C   C552      1.0  0.53228  0.31922  0.95211  1.0000
  H   H427      1.0  0.53533  0.39338  0.96914  1.0000
  H   H428      1.0  0.47144  0.40167  0.92998  1.0000
  C   C553      1.0  0.49115  0.36538  0.65142  1.0000
  H   H429      1.0  0.52778  0.41746  0.59113  1.0000
  C   C554      1.0  0.51943  0.24237  0.72261  1.0000
  C   C555      1.0  0.47468  0.32934  0.86991  1.0000
  H   H430      1.0  0.47037  0.38919  0.43546  1.0000
  H   H431      1.0  0.40246  0.42357  0.70092  1.0000
  H   H432      1.0  0.63804  0.38904  0.49464  1.0000
  C   C556      1.0  0.55353  0.40260  0.85702  1.0000
  H   H433      1.0  0.52047  0.47877  0.44512  1.0000
  H   H434      1.0  0.50149  0.46540  0.57685  1.0000
  H   H435      1.0  0.54546  0.45830  0.25115  1.0000
  C   C557      1.0  0.43778  0.37175  0.65334  1.0000
  H   H436      1.0  0.51267  0.37173  0.69229  1.0000
  C   C558      1.0  0.45593  0.45270  0.69089  1.0000
  C   C559      1.0  0.58118  0.28764  0.56644  1.0000
  C   C560      1.0  0.57685  0.27918  0.68306  1.0000
  C   C561      1.0  0.52004  0.33203  0.01114  1.0000
  H   H437      1.0  0.39518  0.43307  0.96498  1.0000
  C   C562      1.0  0.45183  0.46653  0.84065  1.0000
  C   C563      1.0  0.62170  0.47280  0.82701  1.0000
  C   C564      1.0  0.61381  0.47090  0.61349  1.0000
  C   C565      1.0  0.48397  0.37124  0.51767  1.0000
  C   C566      1.0  0.51332  0.36181  0.83382  1.0000
  C   C567      1.0  0.64246  0.28077  0.83801  1.0000
  H   H438      1.0  0.34559  0.41827  0.83713  1.0000
  C   C568      1.0  0.57912  0.47080  0.21664  1.0000
  H   H439      1.0  0.53945  0.40598  0.85411  1.0000
  H   H440      1.0  0.41702  0.41448  0.77790  1.0000
  C   C569      1.0  0.49338  0.38636  0.92231  1.0000
  C   C570      1.0  0.59974  0.32816  0.56617  1.0000
  H   H441      1.0  0.53586  0.25335  0.61882  1.0000
  C   C571      1.0  0.52193  0.39603  0.64358  1.0000
  H   H442      1.0  0.57551  0.34077  0.51740  1.0000
  H   H443      1.0  0.61906  0.26724  0.73232  1.0000
  C   C572      1.0  0.53981  0.45621  0.91327  1.0000
  C   C573      1.0  0.54604  0.45137  0.87527  1.0000
  C   C574      1.0  0.56494  0.46424  0.84687  1.0000
  H   H444      1.0  0.47396  0.47213  0.47780  1.0000
  C   C575      1.0  0.49708  0.47893  0.14139  1.0000
  C   C576      1.0  0.64453  0.25830  0.36150  1.0000
  H   H445      1.0  0.53575  0.33549  0.89359  1.0000
  H   H446      1.0  0.56482  0.28199  0.66918  1.0000
  C   C577      1.0  0.43778  0.35639  0.63211  1.0000
  C   C578      1.0  0.48616  0.37950  0.47757  1.0000
  H   H447      1.0  0.48152  0.35072  0.66802  1.0000
  H   H448      1.0  0.55071  0.28932  0.59595  1.0000
  H   H449      1.0  0.61165  0.25684  0.84807  1.0000
  H   H450      1.0  0.33583  0.48113  0.27103  1.0000
  C   C579      1.0  0.41814  0.37139  0.67696  1.0000
  C   C580      1.0  0.45228  0.43062  0.64183  1.0000
  C   C581      1.0  0.37085  0.45971  0.31264  1.0000
  C   C582      1.0  0.50888  0.37720  0.66511  1.0000
  P   P19       1.0  0.58612  0.27047  0.79812  1.0000
  H   H451      1.0  0.52596  0.30534  0.85659  1.0000
  H   H452      1.0  0.52459  0.44672  0.93432  1.0000
  H   H453      1.0  0.53565  0.43801  0.86725  1.0000
  H   H454      1.0  0.56919  0.46046  0.81714  1.0000
  C   C583      1.0  0.42032  0.32785  0.76579  1.0000
  H   H455      1.0  0.45292  0.38378  0.65248  1.0000
  H   H456      1.0  0.37514  0.44719  0.79182  1.0000
  H   H457      1.0  0.60892  0.42173  0.82150  1.0000
  C   C584      1.0  0.50715  0.35587  0.87629  1.0000
  H   H458      1.0  0.49560  0.39738  0.56835  1.0000
  C   C585      1.0  0.45202  0.30070  0.64836  1.0000
  C   C586      1.0  0.59281  0.41167  0.83871  1.0000
  C   C587      1.0  0.57445  0.41601  0.83676  1.0000
  C   C588      1.0  0.59030  0.39405  0.86171  1.0000
  H   H459      1.0  0.60454  0.39056  0.86253  1.0000
  H   H460      1.0  0.42166  0.46620  0.17852  1.0000
  H   H461      1.0  0.47158  0.32646  0.80883  1.0000
  C   C589      1.0  0.40237  0.46822  0.88558  1.0000
  H   H462      1.0  0.48299  0.45107  0.64765  1.0000
  C   C590      1.0  0.60921  0.27162  0.67704  1.0000
  H   H463      1.0  0.56539  0.46954  0.30833  1.0000
  H   H464      1.0  0.49766  0.36893  0.52592  1.0000
  C   C591      1.0  0.53151  0.33471  0.92646  1.0000
  H   H465      1.0  0.45976  0.42491  0.61740  1.0000
  C   C592      1.0  0.51857  0.45074  0.47261  1.0000
  C   C593      1.0  0.56717  0.28095  0.82083  1.0000
  C   C594      1.0  0.58576  0.36021  0.46023  1.0000
  C   C595      1.0  0.60199  0.37690  0.43478  1.0000
  H   H466      1.0  0.63555  0.47568  0.06050  1.0000
  H   H467      1.0  0.57395  0.27197  0.56678  1.0000
  C   C596      1.0  0.60787  0.36317  0.50998  1.0000
  C   C597      1.0  0.53408  0.24657  0.64960  1.0000
  H   H468      1.0  0.57093  0.24858  0.88164  1.0000
  C   C598      1.0  0.59551  0.36384  0.59676  1.0000
  H   H469      1.0  0.63324  0.40024  0.42783  1.0000
  C   C599      1.0  0.57732  0.31747  0.58297  1.0000
  C   C600      1.0  0.56812  0.29733  0.58320  1.0000
  H   H470      1.0  0.40094  0.46981  0.85432  1.0000
  H   H471      1.0  0.56804  0.36723  0.90020  1.0000
  C   C601      1.0  0.40522  0.48080  0.21692  1.0000
  C   C602      1.0  0.58548  0.35331  0.63667  1.0000
  C   C603      1.0  0.57304  0.36030  0.66447  1.0000
  C   C604      1.0  0.57107  0.37805  0.65321  1.0000
  C   C605      1.0  0.58171  0.38894  0.61408  1.0000
  C   C606      1.0  0.59391  0.38193  0.58596  1.0000
  H   H472      1.0  0.50164  0.38355  0.45531  1.0000
  H   H473      1.0  0.46280  0.27982  0.62032  1.0000
  P   P20       1.0  0.42038  0.45376  0.74835  1.0000
  H   H474      1.0  0.51269  0.27209  0.83870  1.0000
  C   C607      1.0  0.48481  0.39920  0.93977  1.0000
  H   H475      1.0  0.51942  0.41541  0.00113  1.0000
  H   H476      1.0  0.62220  0.26860  0.65834  1.0000
  H   H477      1.0  0.59960  0.38242  0.40608  1.0000
  H   H478      1.0  0.63756  0.45222  0.82969  1.0000
  H   H479      1.0  0.38937  0.47260  0.21167  1.0000
  C   C608      1.0  0.48603  0.37241  0.61650  1.0000
  H   H480      1.0  0.56672  0.32479  0.59465  1.0000
  H   H481      1.0  0.51421  0.26141  0.67721  1.0000
  C   C609      1.0  0.50991  0.47415  0.51114  1.0000
  H   H482      1.0  0.58693  0.33958  0.64624  1.0000
  H   H483      1.0  0.56454  0.35184  0.69461  1.0000
  H   H484      1.0  0.56102  0.38315  0.67469  1.0000
  H   H485      1.0  0.57979  0.40245  0.60485  1.0000
  C   C610      1.0  0.62323  0.26622  0.41849  1.0000
  H   H486      1.0  0.53591  0.40498  0.65386  1.0000
  H   H487      1.0  0.64881  0.27284  0.85734  1.0000
  H   H488      1.0  0.61743  0.29269  0.40602  1.0000
  C   C611      1.0  0.63295  0.25365  0.40264  1.0000
  C   C612      1.0  0.64461  0.36962  0.59829  1.0000
  S   S86       1.0  0.64534  0.35869  0.75112  1.0000
  C   C613      1.0  0.63657  0.28763  0.35266  1.0000
  H   H489      1.0  0.54716  0.47787  0.95210  1.0000
  C   C614      1.0  0.56632  0.47804  0.33254  1.0000
  C   C615      1.0  0.57909  0.47657  0.35977  1.0000
  C   C616      1.0  0.57773  0.48211  0.85633  1.0000
  C   C617      1.0  0.64745  0.31005  0.79279  1.0000
  H   H490      1.0  0.45508  0.47859  0.42594  1.0000
  C   C618      1.0  0.63278  0.23311  0.77875  1.0000
  C   C619      1.0  0.49553  0.50253  0.47149  1.0000
  Fe  Fe43      1.0  0.41834  0.61195  0.11265  1.0000
  Fe  Fe44      1.0  0.54320  0.55518  0.24748  1.0000
  S   S87       1.0  0.57359  0.58011  0.21166  1.0000
  S   S88       1.0  0.52964  0.55411  0.31350  1.0000
  H   H491      1.0  0.49301  0.62792  0.24057  1.0000
  H   H492      1.0  0.59713  0.61645  0.15515  1.0000
  S   S89       1.0  0.60565  0.58724  0.94744  1.0000
  C   C620      1.0  0.63725  0.70041  0.80911  1.0000
  C   C621      1.0  0.57317  0.56166  0.39288  1.0000
  Fe  Fe45      1.0  0.59238  0.71321  0.07333  1.0000
  S   S90       1.0  0.58943  0.70269  0.01431  1.0000
  C   C622      1.0  0.36594  0.52621  0.00821  1.0000
  Fe  Fe46      1.0  0.56735  0.67274  0.12297  1.0000
  S   S91       1.0  0.56140  0.65844  0.06827  1.0000
  S   S92       1.0  0.55503  0.65742  0.18806  1.0000
  Fe  Fe47      1.0  0.59663  0.67754  0.04073  1.0000
  S   S93       1.0  0.62263  0.66872  0.00587  1.0000
  Fe  Fe48      1.0  0.55449  0.68475  0.04701  1.0000
  S   S94       1.0  0.53038  0.68764  0.01177  1.0000
  S   S95       1.0  0.60308  0.68996  0.09706  1.0000
  S   S96       1.0  0.55700  0.69714  0.10426  1.0000
  S   S97       1.0  0.42837  0.64006  0.06870  1.0000
  C   C623      1.0  0.59920  0.62950  0.85209  1.0000
  H   H493      1.0  0.40161  0.56422  0.34907  1.0000
  C   C624      1.0  0.59676  0.53542  0.81725  1.0000
  H   H494      1.0  0.44162  0.54354  0.17201  1.0000
  C   C625      1.0  0.44757  0.57163  0.25224  1.0000
  S   S98       1.0  0.43399  0.60255  0.24785  1.0000
  C   C626      1.0  0.58970  0.50119  0.16922  1.0000
  H   H495      1.0  0.35875  0.64313  0.04863  1.0000
  C   C627      1.0  0.32633  0.66687  0.12752  1.0000
  C   C628      1.0  0.32014  0.56590  0.92835  1.0000
  C   C629      1.0  0.39998  0.51331  0.98166  1.0000
  C   C630      1.0  0.50209  0.67514  0.03101  1.0000
  C   C631      1.0  0.49314  0.66162  0.06758  1.0000
  C   C632      1.0  0.47040  0.65080  0.07975  1.0000
  C   C633      1.0  0.45668  0.65388  0.05588  1.0000
  C   C634      1.0  0.46564  0.66810  0.02046  1.0000
  C   C635      1.0  0.48827  0.67858  0.00791  1.0000
  H   H496      1.0  0.50376  0.65903  0.08566  1.0000
  H   H497      1.0  0.46357  0.64005  0.10745  1.0000
  H   H498      1.0  0.45513  0.67060  0.00203  1.0000
  H   H499      1.0  0.49517  0.68914  0.97979  1.0000
  C   C636      1.0  0.46844  0.58499  0.00481  1.0000
  C   C637      1.0  0.63699  0.52431  0.31261  1.0000
  H   H500      1.0  0.47304  0.59997  0.99041  1.0000
  H   H501      1.0  0.44045  0.58465  0.04855  1.0000
  C   C638      1.0  0.60906  0.60915  0.96637  1.0000
  C   C639      1.0  0.62974  0.62055  0.97092  1.0000
  C   C640      1.0  0.63348  0.63869  0.98333  1.0000
  C   C641      1.0  0.61644  0.64538  0.99239  1.0000
  C   C642      1.0  0.59551  0.63382  0.98884  1.0000
  C   C643      1.0  0.59189  0.61576  0.97529  1.0000
  C   C644      1.0  0.34053  0.72242  0.20647  1.0000
  C   C645      1.0  0.44448  0.48831  0.08052  1.0000
  H   H502      1.0  0.58232  0.63896  0.99573  1.0000
  H   H503      1.0  0.57600  0.60708  0.97109  1.0000
  C   C646      1.0  0.44416  0.55694  0.05631  1.0000
  C   C647      1.0  0.56908  0.60193  0.20583  1.0000
  C   C648      1.0  0.55138  0.60369  0.23194  1.0000
  C   C649      1.0  0.54781  0.62115  0.22707  1.0000
  C   C650      1.0  0.56109  0.63643  0.19489  1.0000
  C   C651      1.0  0.57884  0.63472  0.16868  1.0000
  C   C652      1.0  0.58320  0.61765  0.17494  1.0000
  H   H504      1.0  0.54041  0.59163  0.25582  1.0000
  H   H505      1.0  0.53423  0.62261  0.24726  1.0000
  H   H506      1.0  0.58930  0.64658  0.14390  1.0000
  C   C653      1.0  0.50449  0.59391  0.19017  1.0000
  C   C654      1.0  0.34894  0.64668  0.93933  1.0000
  C   C655      1.0  0.63644  0.55082  0.38516  1.0000
  C   C656      1.0  0.38203  0.64813  0.89377  1.0000
  C   C657      1.0  0.38158  0.63185  0.91891  1.0000
  C   C658      1.0  0.36506  0.62317  0.95513  1.0000
  C   C659      1.0  0.34845  0.63044  0.96469  1.0000
  P   P21       1.0  0.36338  0.60121  0.98597  1.0000
  C   C660      1.0  0.35436  0.60229  0.03934  1.0000
  C   C661      1.0  0.34359  0.58026  0.97279  1.0000
  C   C662      1.0  0.33566  0.58218  0.93783  1.0000
  H   H507      1.0  0.61501  0.49424  0.67212  1.0000
  H   H508      1.0  0.32131  0.72607  0.10988  1.0000
  C   C663      1.0  0.41631  0.49277  0.05062  1.0000
  C   C664      1.0  0.33587  0.56181  0.99781  1.0000
  C   C665      1.0  0.36941  0.61100  0.06217  1.0000
  C   C666      1.0  0.46081  0.53086  0.13442  1.0000
  Fe  Fe49      1.0  0.57126  0.57000  0.94446  1.0000
  H   H509      1.0  0.61484  0.57318  0.86823  1.0000
  H   H510      1.0  0.48322  0.52270  0.09258  1.0000
  C   C667      1.0  0.39001  0.59947  0.97638  1.0000
  C   C668      1.0  0.39234  0.58207  0.96751  1.0000
  C   C669      1.0  0.41303  0.58110  0.95848  1.0000
  C   C670      1.0  0.45971  0.56173  0.31057  1.0000
  C   C671      1.0  0.42945  0.61470  0.96770  1.0000
  C   C672      1.0  0.40881  0.61580  0.97628  1.0000
  H   H511      1.0  0.43058  0.51639  0.26789  1.0000
  C   C673      1.0  0.36774  0.49979  0.23240  1.0000
  H   H512      1.0  0.39488  0.65482  0.86604  1.0000
  H   H513      1.0  0.39397  0.62595  0.90967  1.0000
  H   H514      1.0  0.33497  0.62348  0.99147  1.0000
  H   H515      1.0  0.34101  0.59623  0.91827  1.0000
  H   H516      1.0  0.33421  0.60330  0.15451  1.0000
  C   C674      1.0  0.32392  0.72956  0.21656  1.0000
  H   H517      1.0  0.33509  0.50692  0.15332  1.0000
  H   H518      1.0  0.34121  0.56011  0.02561  1.0000
  H   H519      1.0  0.38678  0.61714  0.04889  1.0000
  H   H520      1.0  0.37387  0.61821  0.12077  1.0000
  C   C675      1.0  0.51760  0.51343  0.13885  1.0000
  H   H521      1.0  0.51608  0.50296  0.59271  1.0000
  C   C676      1.0  0.40987  0.48481  0.90356  1.0000
  H   H522      1.0  0.37835  0.56922  0.96714  1.0000
  C   C677      1.0  0.44352  0.58638  0.27128  1.0000
  C   C678      1.0  0.49792  0.60248  0.22264  1.0000
  H   H523      1.0  0.40758  0.62944  0.98288  1.0000
  C   C679      1.0  0.47654  0.66773  0.18186  1.0000
  C   C680      1.0  0.45560  0.65511  0.18100  1.0000
  C   C681      1.0  0.44213  0.66247  0.16401  1.0000
  C   C682      1.0  0.44956  0.68243  0.14808  1.0000
  C   C683      1.0  0.47093  0.69504  0.14739  1.0000
  C   C684      1.0  0.48429  0.68757  0.16476  1.0000
  H   H524      1.0  0.33087  0.65291  0.02583  1.0000
  H   H525      1.0  0.40157  0.70350  0.03100  1.0000
  H   H526      1.0  0.45650  0.49224  0.73249  1.0000
  C   C685      1.0  0.46770  0.55705  0.90255  1.0000
  P   P22       1.0  0.60125  0.49931  0.81829  1.0000
  Fe  Fe50      1.0  0.42111  0.59381  0.19370  1.0000
  C   C686      1.0  0.59940  0.53110  0.09531  1.0000
  H   H527      1.0  0.61542  0.52014  0.39487  1.0000
  C   C687      1.0  0.64871  0.51589  0.60110  1.0000
  C   C688      1.0  0.59507  0.48631  0.18744  1.0000
  C   C689      1.0  0.61607  0.50352  0.27214  1.0000
  H   H528      1.0  0.63296  0.51304  0.55101  1.0000
  C   C690      1.0  0.50492  0.49463  0.16153  1.0000
  C   C691      1.0  0.45489  0.48494  0.76270  1.0000
  C   C692      1.0  0.55132  0.49791  0.61859  1.0000
  H   H529      1.0  0.48668  0.66218  0.19615  1.0000
  H   H530      1.0  0.44984  0.63963  0.19334  1.0000
  H   H531      1.0  0.42592  0.65269  0.16314  1.0000
  H   H532      1.0  0.43850  0.68790  0.13662  1.0000
  H   H533      1.0  0.50055  0.69715  0.16564  1.0000
  H   H534      1.0  0.52776  0.50772  0.78060  1.0000
  H   H535      1.0  0.39634  0.51970  0.18641  1.0000
  C   C693      1.0  0.58009  0.48731  0.39153  1.0000
  C   C694      1.0  0.56749  0.49381  0.72896  1.0000
  C   C695      1.0  0.33983  0.60345  0.12225  1.0000
  P   P23       1.0  0.50783  0.49770  0.51212  1.0000
  H   H536      1.0  0.34713  0.49193  0.33932  1.0000
  H   H537      1.0  0.45011  0.73062  0.91675  1.0000
  S   S99       1.0  0.51962  0.50297  0.02252  1.0000
  H   H538      1.0  0.46448  0.70229  0.06444  1.0000
  H   H539      1.0  0.50926  0.70727  0.07863  1.0000
  C   C696      1.0  0.48124  0.57451  0.99120  1.0000
  C   C697      1.0  0.49820  0.62141  0.21531  1.0000
  H   H540      1.0  0.59495  0.66829  0.93862  1.0000
  H   H541      1.0  0.55098  0.49179  0.72693  1.0000
  C   C698      1.0  0.47876  0.48701  0.46226  1.0000
  H   H542      1.0  0.62525  0.51127  0.45797  1.0000
  C   C699      1.0  0.40733  0.49458  0.24326  1.0000
  C   C700      1.0  0.39774  0.55143  0.33449  1.0000
  C   C701      1.0  0.62690  0.53143  0.40636  1.0000
  C   C702      1.0  0.56308  0.56997  0.12112  1.0000
  C   C703      1.0  0.58258  0.58576  0.10208  1.0000
  C   C704      1.0  0.58201  0.60354  0.08598  1.0000
  C   C705      1.0  0.56196  0.60555  0.08895  1.0000
  C   C706      1.0  0.54224  0.58952  0.10635  1.0000
  C   C707      1.0  0.54301  0.57195  0.12393  1.0000
  P   P24       1.0  0.51635  0.59199  0.10784  1.0000
  C   C708      1.0  0.51112  0.60419  0.14998  1.0000
  C   C709      1.0  0.51673  0.60561  0.06037  1.0000
  C   C710      1.0  0.50065  0.61337  0.05881  1.0000
  C   C711      1.0  0.50217  0.62572  0.02365  1.0000
  C   C712      1.0  0.51940  0.62998  0.98940  1.0000
  C   C713      1.0  0.53489  0.62156  0.98999  1.0000
  C   C714      1.0  0.53332  0.60911  0.02505  1.0000
  C   C715      1.0  0.50606  0.63211  0.17562  1.0000
  C   C716      1.0  0.51261  0.62361  0.14317  1.0000
  C   C717      1.0  0.49420  0.56833  0.11645  1.0000
  C   C718      1.0  0.49727  0.55309  0.09781  1.0000
  C   C719      1.0  0.58421  0.57960  0.32378  1.0000
  H   H543      1.0  0.59814  0.58447  0.10105  1.0000
  H   H544      1.0  0.59712  0.61596  0.07206  1.0000
  H   H545      1.0  0.56189  0.61957  0.07730  1.0000
  H   H546      1.0  0.41369  0.53747  0.36891  1.0000
  H   H547      1.0  0.48715  0.61017  0.08504  1.0000
  H   H548      1.0  0.48969  0.63162  0.02260  1.0000
  H   H549      1.0  0.52033  0.63928  0.96199  1.0000
  H   H550      1.0  0.54768  0.62412  0.96282  1.0000
  H   H551      1.0  0.54498  0.60221  0.02435  1.0000
  H   H552      1.0  0.50799  0.64724  0.16978  1.0000
  H   H553      1.0  0.51879  0.63231  0.11296  1.0000
  H   H554      1.0  0.51250  0.55565  0.07635  1.0000
  H   H555      1.0  0.39978  0.49227  0.05478  1.0000
  H   H556      1.0  0.39401  0.66837  0.05217  1.0000
  H   H557      1.0  0.49263  0.50265  0.65832  1.0000
  C   C720      1.0  0.64695  0.54073  0.45809  1.0000
  C   C721      1.0  0.52737  0.68875  0.21821  1.0000
  C   C722      1.0  0.52777  0.70754  0.22075  1.0000
  C   C723      1.0  0.51900  0.71165  0.25799  1.0000
  C   C724      1.0  0.50959  0.69692  0.29261  1.0000
  C   C725      1.0  0.50923  0.67798  0.29031  1.0000
  C   C726      1.0  0.51805  0.67399  0.25269  1.0000
  P   P25       1.0  0.49594  0.65849  0.33413  1.0000
  C   C727      1.0  0.50948  0.64131  0.33205  1.0000
  C   C728      1.0  0.49770  0.66898  0.38006  1.0000
  C   C729      1.0  0.51451  0.66981  0.39959  1.0000
  C   C730      1.0  0.51587  0.67830  0.43466  1.0000
  C   C731      1.0  0.48235  0.67683  0.39614  1.0000
  C   C732      1.0  0.49736  0.62099  0.34230  1.0000
  C   C733      1.0  0.50805  0.60788  0.34110  1.0000
  C   C734      1.0  0.53088  0.61494  0.33000  1.0000
  C   C735      1.0  0.54306  0.63510  0.31931  1.0000
  C   C736      1.0  0.53243  0.64823  0.32002  1.0000
  C   C737      1.0  0.46738  0.64647  0.33463  1.0000
  C   C738      1.0  0.45995  0.64864  0.29925  1.0000
  C   C739      1.0  0.43775  0.63960  0.30017  1.0000
  C   C740      1.0  0.45226  0.63505  0.37088  1.0000
  H   H558      1.0  0.53451  0.68562  0.18955  1.0000
  C   C741      1.0  0.56837  0.50068  0.18165  1.0000
  H   H559      1.0  0.59221  0.55617  0.49949  1.0000
  H   H560      1.0  0.50283  0.70050  0.32095  1.0000
  H   H561      1.0  0.51796  0.65954  0.24983  1.0000
  H   H562      1.0  0.52670  0.66407  0.38786  1.0000
  H   H563      1.0  0.52895  0.67899  0.44943  1.0000
  H   H564      1.0  0.46943  0.67665  0.38127  1.0000
  H   H565      1.0  0.47969  0.61516  0.35075  1.0000
  H   H566      1.0  0.49864  0.59219  0.34808  1.0000
  H   H567      1.0  0.53911  0.60475  0.32811  1.0000
  H   H568      1.0  0.56074  0.64054  0.30890  1.0000
  H   H569      1.0  0.54215  0.66380  0.31076  1.0000
  H   H570      1.0  0.47118  0.65715  0.27081  1.0000
  C   C742      1.0  0.64072  0.70501  0.92558  1.0000
  H   H571      1.0  0.45768  0.63305  0.39844  1.0000
  C   C743      1.0  0.45007  0.57634  0.03776  1.0000
  H   H572      1.0  0.50396  0.57916  0.19630  1.0000
  H   H573      1.0  0.40574  0.62078  0.33636  1.0000
  C   C744      1.0  0.46856  0.49483  0.78654  1.0000
  C   C745      1.0  0.38088  0.50678  0.96718  1.0000
  H   H574      1.0  0.38148  0.56209  0.29467  1.0000
  S   S100      1.0  0.46931  0.54653  0.33704  1.0000
  C   C746      1.0  0.57008  0.69781  0.87715  1.0000
  H   H575      1.0  0.54939  0.51047  0.63007  1.0000
  S   S101      1.0  0.34214  0.56960  0.19634  1.0000
  C   C747      1.0  0.50051  0.68605  0.45044  1.0000
  C   C748      1.0  0.48376  0.68531  0.43118  1.0000
  C   C749      1.0  0.56966  0.57331  0.36232  1.0000
  H   H576      1.0  0.55519  0.57683  0.36804  1.0000
  C   C750      1.0  0.58223  0.51837  0.08135  1.0000
  C   C751      1.0  0.37131  0.69815  0.01231  1.0000
  C   C752      1.0  0.43006  0.62595  0.37163  1.0000
  H   H577      1.0  0.56118  0.55578  0.42186  1.0000
  C   C753      1.0  0.42283  0.62819  0.33623  1.0000
  C   C754      1.0  0.32086  0.54547  0.98749  1.0000
  H   H578      1.0  0.49303  0.59460  0.25361  1.0000
  C   C755      1.0  0.62243  0.56822  0.19293  1.0000
  H   H579      1.0  0.61549  0.57909  0.19912  1.0000
  S   S102      1.0  0.50454  0.58578  0.95087  1.0000
  H   H580      1.0  0.51478  0.53378  0.45569  1.0000
  H   H581      1.0  0.60983  0.48339  0.60555  1.0000
  C   C756      1.0  0.52822  0.51057  0.84308  1.0000
  C   C757      1.0  0.63295  0.63411  0.87220  1.0000
  C   C758      1.0  0.59152  0.55666  0.38532  1.0000
  C   C759      1.0  0.55748  0.54948  0.51208  1.0000
  C   C760      1.0  0.62209  0.53980  0.16232  1.0000
  C   C761      1.0  0.51427  0.50058  0.07589  1.0000
  C   C762      1.0  0.60657  0.56338  0.34710  1.0000
  P   P26       1.0  0.38312  0.49782  0.26967  1.0000
  C   C763      1.0  0.64672  0.69884  0.88881  1.0000
  H   H582      1.0  0.33637  0.70717  0.20350  1.0000
  C   C764      1.0  0.61283  0.55361  0.17141  1.0000
  H   H583      1.0  0.59863  0.54044  0.28786  1.0000
  H   H584      1.0  0.59351  0.54711  0.40900  1.0000
  C   C765      1.0  0.52168  0.50065  0.88345  1.0000
  C   C766      1.0  0.38646  0.69257  0.02821  1.0000
  S   S103      1.0  0.56294  0.53913  0.93329  1.0000
  C   C767      1.0  0.46784  0.49060  0.43323  1.0000
  H   H585      1.0  0.46007  0.54857  0.25643  1.0000
  S   S104      1.0  0.54101  0.51626  0.37644  1.0000
  H   H586      1.0  0.45708  0.57739  0.36041  1.0000
  P   P27       1.0  0.47979  0.72111  0.13169  1.0000
  C   C768      1.0  0.60426  0.51554  0.26967  1.0000
  C   C769      1.0  0.60854  0.53180  0.28925  1.0000
  H   H587      1.0  0.47051  0.57655  0.15559  1.0000
  H   H588      1.0  0.41415  0.49920  0.88595  1.0000
  H   H589      1.0  0.64852  0.52193  0.79234  1.0000
  C   C770      1.0  0.45622  0.55955  0.27154  1.0000
  C   C771      1.0  0.38214  0.67274  0.04063  1.0000
  C   C772      1.0  0.36232  0.65847  0.03874  1.0000
  H   H590      1.0  0.56199  0.51557  0.03849  1.0000
  H   H591      1.0  0.41850  0.61693  0.39946  1.0000
  C   C773      1.0  0.47381  0.56483  0.14259  1.0000
  H   H592      1.0  0.33850  0.68762  0.00226  1.0000
  H   H593      1.0  0.41165  0.71183  0.95315  1.0000
  C   C774      1.0  0.46372  0.49706  0.63517  1.0000
  C   C775      1.0  0.40181  0.52646  0.00923  1.0000
  S   S105      1.0  0.39410  0.58384  0.10286  1.0000
  S   S106      1.0  0.44122  0.59859  0.12999  1.0000
  H   H594      1.0  0.58053  0.50056  0.90286  1.0000
  H   H595      1.0  0.44455  0.56991  0.22238  1.0000
  C   C776      1.0  0.52295  0.50011  0.81183  1.0000
  C   C777      1.0  0.59112  0.69857  0.86079  1.0000
  H   H596      1.0  0.35269  0.53092  0.01901  1.0000
  C   C778      1.0  0.63078  0.51436  0.10300  1.0000
  H   H597      1.0  0.59827  0.55325  0.16179  1.0000
  Fe  Fe51      1.0  0.49680  0.54016  0.30056  1.0000
  H   H598      1.0  0.33511  0.71183  0.05341  1.0000
  C   C779      1.0  0.45632  0.54614  0.04139  1.0000
  C   C780      1.0  0.38196  0.53403  0.28405  1.0000
  C   C781      1.0  0.45479  0.57596  0.32999  1.0000
  C   C782      1.0  0.55464  0.49039  0.33703  1.0000
  H   H599      1.0  0.44769  0.51660  0.14052  1.0000
  S   S107      1.0  0.59481  0.48868  0.53163  1.0000
  H   H600      1.0  0.34262  0.70820  0.88057  1.0000
  H   H601      1.0  0.43217  0.64092  0.27251  1.0000
  S   S108      1.0  0.51016  0.54436  0.23286  1.0000
  H   H602      1.0  0.35373  0.54979  0.13089  1.0000
  Fe  Fe52      1.0  0.41520  0.57015  0.12609  1.0000
  S   S109      1.0  0.42138  0.54604  0.09770  1.0000
  H   H603      1.0  0.64967  0.64761  0.98592  1.0000
  C   C783      1.0  0.32408  0.53633  0.11118  1.0000
  C   C784      1.0  0.60254  0.57458  0.31609  1.0000
  C   C785      1.0  0.60031  0.68796  0.88278  1.0000
  C   C786      1.0  0.62460  0.49253  0.81698  1.0000
  C   C787      1.0  0.33536  0.73106  0.90711  1.0000
  C   C788      1.0  0.47515  0.55503  0.00948  1.0000
  C   C789      1.0  0.53466  0.51636  0.50706  1.0000
  C   C790      1.0  0.56717  0.67595  0.93748  1.0000
  C   C791      1.0  0.63676  0.65389  0.87279  1.0000
  C   C792      1.0  0.58814  0.67658  0.92118  1.0000
  H   H604      1.0  0.59997  0.70726  0.83095  1.0000
  S   S110      1.0  0.40018  0.60934  0.17677  1.0000
  C   C793      1.0  0.44729  0.58859  0.30994  1.0000
  H   H605      1.0  0.33158  0.53033  0.08752  1.0000
  P   P28       1.0  0.42166  0.50437  0.96702  1.0000
  S   S111      1.0  0.55577  0.57836  0.89676  1.0000
  H   H606      1.0  0.38652  0.54284  0.04432  1.0000
  C   C794      1.0  0.60259  0.55779  0.04399  1.0000
  H   H607      1.0  0.45152  0.53106  0.05527  1.0000
  H   H608      1.0  0.63269  0.55220  0.89391  1.0000
  H   H609      1.0  0.62388  0.56067  0.08445  1.0000
  C   C795      1.0  0.57617  0.54513  0.50164  1.0000
  H   H610      1.0  0.44379  0.62722  0.96870  1.0000
  P   P29       1.0  0.61048  0.52154  0.13272  1.0000
  H   H611      1.0  0.52820  0.55983  0.14015  1.0000
  C   C796      1.0  0.38927  0.51909  0.29420  1.0000
  H   H612      1.0  0.36595  0.66811  0.88457  1.0000
  C   C797      1.0  0.60307  0.64930  0.85206  1.0000
  C   C798      1.0  0.39323  0.49776  0.69807  1.0000
  C   C799      1.0  0.57516  0.52543  0.04935  1.0000
  H   H613      1.0  0.61849  0.53867  0.56411  1.0000
  C   C800      1.0  0.43158  0.59745  0.95823  1.0000
  C   C801      1.0  0.44474  0.52287  0.93017  1.0000
  S   S112      1.0  0.54227  0.56279  0.99723  1.0000
  H   H614      1.0  0.33587  0.64266  0.11559  1.0000
  H   H615      1.0  0.52240  0.53861  0.52354  1.0000
  H   H616      1.0  0.58998  0.48625  0.41253  1.0000
  H   H617      1.0  0.44401  0.59987  0.32469  1.0000
  C   C802      1.0  0.36575  0.65559  0.90408  1.0000
  H   H618      1.0  0.61188  0.49024  0.25927  1.0000
  Fe  Fe53      1.0  0.52585  0.56851  0.94838  1.0000
  C   C803      1.0  0.47801  0.53156  0.87646  1.0000
  H   H619      1.0  0.47502  0.49365  0.03829  1.0000
  C   C804      1.0  0.34662  0.66399  0.02548  1.0000
  C   C805      1.0  0.48074  0.53435  0.10721  1.0000
  H   H620      1.0  0.44758  0.59670  0.95077  1.0000
  H   H621      1.0  0.41471  0.56764  0.95177  1.0000
  C   C806      1.0  0.61998  0.52963  0.85912  1.0000
  H   H622      1.0  0.56977  0.50826  0.41990  1.0000
  C   C807      1.0  0.56908  0.50061  0.58629  1.0000
  H   H623      1.0  0.47142  0.57248  0.90329  1.0000
  C   C808      1.0  0.45735  0.54608  0.15210  1.0000
  C   C809      1.0  0.62830  0.53535  0.58328  1.0000
  H   H624      1.0  0.56354  0.55640  0.13487  1.0000
  Fe  Fe54      1.0  0.54431  0.54668  0.89103  1.0000
  H   H625      1.0  0.44376  0.70985  0.01713  1.0000
  C   C810      1.0  0.45865  0.49344  0.04177  1.0000
  H   H626      1.0  0.48485  0.54678  0.99917  1.0000
  H   H627      1.0  0.48980  0.52731  0.85708  1.0000
  C   C811      1.0  0.47353  0.50969  0.41321  1.0000
  C   C812      1.0  0.63235  0.54523  0.61581  1.0000
  C   C813      1.0  0.61297  0.55952  0.85736  1.0000
  H   H628      1.0  0.49701  0.56245  0.85638  1.0000
  C   C814      1.0  0.55350  0.51201  0.49753  1.0000
  H   H629      1.0  0.57445  0.50295  0.09468  1.0000
  C   C815      1.0  0.60991  0.55076  0.07569  1.0000
  C   C816      1.0  0.59985  0.55341  0.83008  1.0000
  C   C817      1.0  0.32687  0.55520  0.16616  1.0000
  H   H630      1.0  0.34138  0.67795  0.10865  1.0000
  H   H631      1.0  0.56300  0.70602  0.86028  1.0000
  H   H632      1.0  0.31954  0.60353  0.86595  1.0000
  H   H633      1.0  0.40553  0.50862  0.33486  1.0000
  C   C818      1.0  0.64028  0.49023  0.06827  1.0000
  C   C819      1.0  0.45489  0.49366  0.60128  1.0000
  C   C820      1.0  0.48214  0.55142  0.87607  1.0000
  C   C821      1.0  0.63235  0.52639  0.44235  1.0000
  C   C822      1.0  0.33316  0.49284  0.21318  1.0000
  C   C823      1.0  0.44922  0.54289  0.92983  1.0000
  S   S113      1.0  0.49566  0.50970  0.31405  1.0000
  H   H634      1.0  0.49526  0.53983  0.40473  1.0000
  Fe  Fe55      1.0  0.52963  0.52390  0.32177  1.0000
  Fe  Fe56      1.0  0.51160  0.51479  0.24740  1.0000
  H   H635      1.0  0.43899  0.54773  0.95132  1.0000
  C   C824      1.0  0.62302  0.54764  0.87188  1.0000
  H   H636      1.0  0.61052  0.57302  0.02905  1.0000
  H   H637      1.0  0.39677  0.50968  0.75303  1.0000
  S   S114      1.0  0.54574  0.52586  0.25642  1.0000
  C   C825      1.0  0.36214  0.61170  0.10331  1.0000
  C   C826      1.0  0.58514  0.54515  0.03105  1.0000
  S   S115      1.0  0.39742  0.56403  0.19178  1.0000
  C   C827      1.0  0.63244  0.50792  0.29350  1.0000
  C   C828      1.0  0.59460  0.49840  0.76918  1.0000
  H   H638      1.0  0.52372  0.52555  0.15446  1.0000
  Fe  Fe57      1.0  0.37810  0.57991  0.16917  1.0000
  C   C829      1.0  0.34483  0.49032  0.24176  1.0000
  H   H639      1.0  0.59138  0.56226  0.81993  1.0000
  H   H640      1.0  0.55900  0.56394  0.51813  1.0000
  C   C830      1.0  0.42332  0.48804  0.08498  1.0000
  C   C831      1.0  0.38491  0.53287  0.02251  1.0000
  H   H641      1.0  0.64220  0.59981  0.32511  1.0000
  C   C832      1.0  0.60978  0.49821  0.73462  1.0000
  C   C833      1.0  0.35107  0.68373  0.01212  1.0000
  H   H642      1.0  0.58850  0.52276  0.48721  1.0000
  C   C834      1.0  0.33194  0.59453  0.05852  1.0000
  H   H643      1.0  0.46243  0.50979  0.23433  1.0000
  C   C835      1.0  0.55810  0.68646  0.91537  1.0000
  H   H644      1.0  0.54181  0.68591  0.92808  1.0000
  C   C836      1.0  0.44840  0.71929  0.03912  1.0000
  H   H645      1.0  0.53200  0.53093  0.07821  1.0000
  C   C837      1.0  0.36697  0.51430  0.16566  1.0000
  H   H646      1.0  0.56150  0.49625  0.79237  1.0000
  Fe  Fe58      1.0  0.53261  0.53244  0.98236  1.0000
  P   P30       1.0  0.62663  0.68731  0.86106  1.0000
  H   H647      1.0  0.55803  0.66748  0.96755  1.0000
  S   S116      1.0  0.51316  0.53747  0.93898  1.0000
  S   S117      1.0  0.54257  0.53602  0.83171  1.0000
  C   C838      1.0  0.42816  0.50528  0.24888  1.0000
  C   C839      1.0  0.36396  0.51326  0.98042  1.0000
  C   C840      1.0  0.43066  0.49831  0.01156  1.0000
  H   H648      1.0  0.57959  0.55062  0.00641  1.0000
  H   H649      1.0  0.59122  0.65489  0.84442  1.0000
  C   C841      1.0  0.60688  0.52341  0.83152  1.0000
  H   H650      1.0  0.58587  0.53073  0.79731  1.0000
  C   C842      1.0  0.52223  0.51645  0.09583  1.0000
  H   H651      1.0  0.36574  0.70481  0.92677  1.0000
  H   H652      1.0  0.58075  0.51524  0.57302  1.0000
  H   H653      1.0  0.54828  0.72335  0.04229  1.0000
  C   C843      1.0  0.35839  0.71559  0.92970  1.0000
  H   H654      1.0  0.58094  0.58788  0.29943  1.0000
  H   H655      1.0  0.55246  0.49749  0.49277  1.0000
  H   H656      1.0  0.41621  0.53150  0.02107  1.0000
  C   C844      1.0  0.51842  0.72219  0.08164  1.0000
  C   C845      1.0  0.50148  0.52163  0.45048  1.0000
  C   C846      1.0  0.49047  0.49755  0.56013  1.0000
  C   C847      1.0  0.57415  0.52640  0.49444  1.0000
  C   C848      1.0  0.45942  0.51732  0.90345  1.0000
  C   C849      1.0  0.49047  0.52516  0.42146  1.0000
  C   C850      1.0  0.64492  0.54076  0.64055  1.0000
  H   H657      1.0  0.33624  0.65240  0.94696  1.0000
  C   C851      1.0  0.38645  0.55025  0.30375  1.0000
  P   P31       1.0  0.37699  0.72373  0.99587  1.0000
  H   H658      1.0  0.41238  0.48436  0.11504  1.0000
  C   C852      1.0  0.55579  0.50118  0.36885  1.0000
  C   C853      1.0  0.33663  0.54743  0.13552  1.0000
  C   C854      1.0  0.64093  0.56885  0.20640  1.0000
  C   C855      1.0  0.32328  0.64707  0.13130  1.0000
  H   H659      1.0  0.59109  0.51179  0.25416  1.0000
  H   H660      1.0  0.61330  0.57915  0.28573  1.0000
  S   S118      1.0  0.49800  0.48992  0.21508  1.0000
  C   C856      1.0  0.53678  0.53513  0.51496  1.0000
  C   C857      1.0  0.63660  0.69042  0.77584  1.0000
  C   C858      1.0  0.62485  0.53624  0.31121  1.0000
  H   H661      1.0  0.46511  0.51245  0.39059  1.0000
  H   H662      1.0  0.56391  0.51229  0.16913  1.0000
  H   H663      1.0  0.37277  0.53327  0.26097  1.0000
  C   C859      1.0  0.40452  0.53636  0.34565  1.0000
  H   H664      1.0  0.54458  0.49137  0.31630  1.0000
  C   C860      1.0  0.47403  0.73018  0.17851  1.0000
  C   C861      1.0  0.64591  0.50675  0.80176  1.0000
  H   H665      1.0  0.52606  0.50846  0.90773  1.0000
  H   H666      1.0  0.45009  0.48474  0.10696  1.0000
  H   H667      1.0  0.61092  0.60648  0.86295  1.0000
  C   C862      1.0  0.61418  0.62193  0.86197  1.0000
  H   H668      1.0  0.45694  0.50202  0.90444  1.0000
  H   H669      1.0  0.62601  0.49924  0.73620  1.0000
  C   C863      1.0  0.46008  0.71499  0.06606  1.0000
  C   C864      1.0  0.44396  0.48748  0.20465  1.0000
  C   C865      1.0  0.44637  0.50166  0.22972  1.0000
  C   C866      1.0  0.62474  0.49557  0.09263  1.0000
  C   C867      1.0  0.56860  0.49970  0.39584  1.0000
  C   C868      1.0  0.58252  0.49311  0.69505  1.0000
  H   H670      1.0  0.45342  0.49695  0.66399  1.0000
  C   C869      1.0  0.45187  0.49849  0.00743  1.0000
  C   C870      1.0  0.62197  0.66170  0.86213  1.0000
  H   H671      1.0  0.46091  0.49112  0.53820  1.0000
  C   C871      1.0  0.37872  0.51186  0.19413  1.0000
  H   H672      1.0  0.37876  0.49651  0.94626  1.0000
  H   H673      1.0  0.31989  0.58811  0.04178  1.0000
  C   C872      1.0  0.48578  0.50044  0.63187  1.0000
  H   H674      1.0  0.62727  0.52031  0.87180  1.0000
  H   H675      1.0  0.43776  0.49091  0.60388  1.0000
  H   H676      1.0  0.46334  0.50258  0.97790  1.0000
  H   H677      1.0  0.41128  0.48622  0.77996  1.0000
  H   H678      1.0  0.62564  0.55624  0.62202  1.0000
  H   H679      1.0  0.37549  0.52386  0.13643  1.0000
  C   C873      1.0  0.40016  0.52017  0.32583  1.0000
  C   C874      1.0  0.64473  0.70092  0.73586  1.0000
  C   C875      1.0  0.32476  0.59484  0.09986  1.0000
  H   H680      1.0  0.58440  0.61993  0.84509  1.0000
  C   C876      1.0  0.57349  0.49639  0.76593  1.0000
  C   C877      1.0  0.41821  0.72760  0.95074  1.0000
  H   H681      1.0  0.64090  0.49807  0.29673  1.0000
  H   H682      1.0  0.64685  0.52889  0.17265  1.0000
  H   H683      1.0  0.64801  0.54837  0.66587  1.0000
  H   H684      1.0  0.64425  0.69314  0.71031  1.0000
  C   C878      1.0  0.63652  0.52082  0.57589  1.0000
  C   C879      1.0  0.46682  0.48568  0.82564  1.0000
  C   C880      1.0  0.57178  0.48449  0.57119  1.0000
  H   H685      1.0  0.62995  0.67458  0.78050  1.0000
  H   H686      1.0  0.44080  0.72631  0.17674  1.0000
  C   C881      1.0  0.34421  0.50480  0.17518  1.0000
  C   C882      1.0  0.49909  0.50061  0.59457  1.0000
  H   H687      1.0  0.60798  0.48511  0.10290  1.0000
  H   H688      1.0  0.62386  0.70250  0.93901  1.0000
  P   P32       1.0  0.63040  0.55706  0.33725  1.0000
  C   C883      1.0  0.64601  0.72100  0.80178  1.0000
  C   C884      1.0  0.45347  0.73104  0.19319  1.0000
  C   C885      1.0  0.34647  0.72418  0.06272  1.0000
  H   H689      1.0  0.53515  0.71898  0.19393  1.0000
  H   H690      1.0  0.34913  0.50803  0.96963  1.0000
  H   H691      1.0  0.38675  0.50805  0.68644  1.0000
  C   C886      1.0  0.46582  0.72692  0.09516  1.0000
  C   C887      1.0  0.60364  0.49542  0.69789  1.0000
  H   H692      1.0  0.48083  0.50945  0.77455  1.0000
  H   H693      1.0  0.64833  0.58031  0.22273  1.0000
  H   H694      1.0  0.64411  0.62797  0.88128  1.0000
  H   H695      1.0  0.47195  0.69147  0.44320  1.0000
  H   H696      1.0  0.64306  0.61555  0.96392  1.0000
  C   C888      1.0  0.36097  0.72686  0.96078  1.0000
  H   H697      1.0  0.59181  0.72404  0.15678  1.0000
  C   C889      1.0  0.64013  0.54000  0.17747  1.0000
  C   C890      1.0  0.54049  0.73124  0.06086  1.0000
  H   H698      1.0  0.61163  0.48680  0.17962  1.0000
  H   H699      1.0  0.64652  0.72895  0.82708  1.0000
  C   C891      1.0  0.34553  0.71764  0.90311  1.0000
  H   H700      1.0  0.57768  0.49035  0.66686  1.0000
  H   H701      1.0  0.47768  0.49315  0.84385  1.0000
  H   H702      1.0  0.50168  0.69274  0.47744  1.0000
  C   C892      1.0  0.57138  0.48678  0.89481  1.0000
  H   H703      1.0  0.64951  0.52724  0.32962  1.0000
  H   H704      1.0  0.37537  0.72956  0.19167  1.0000
  H   H705      1.0  0.45808  0.48465  0.19010  1.0000
  C   C893      1.0  0.55251  0.48516  0.21089  1.0000
  C   C894      1.0  0.39887  0.49867  0.73558  1.0000
  C   C895      1.0  0.64962  0.55459  0.19914  1.0000
  H   H706      1.0  0.51984  0.72638  0.26007  1.0000
  C   C896      1.0  0.46816  0.49382  0.56393  1.0000
  C   C897      1.0  0.33861  0.73220  0.09493  1.0000
  H   H707      1.0  0.53609  0.48480  0.22052  1.0000
  C   C898      1.0  0.50841  0.73239  0.10593  1.0000
  H   H708      1.0  0.32470  0.73211  0.88761  1.0000
  C   C899      1.0  0.36859  0.73251  0.04160  1.0000
  H   H709      1.0  0.57338  0.73148  0.22041  1.0000
  C   C900      1.0  0.41189  0.48285  0.94406  1.0000
  C   C901      1.0  0.39579  0.48350  0.67569  1.0000
  H   H710      1.0  0.39123  0.48270  0.64675  1.0000
  C   C902      1.0  0.40715  0.48536  0.75070  1.0000
  Fe  Fe59      1.0  0.54161  0.93910  0.28671  1.0000
  S   S119      1.0  0.55050  0.94511  0.21824  1.0000
  C   C903      1.0  0.63023  0.82070  0.04564  1.0000
  H   H711      1.0  0.53830  0.94499  0.37828  1.0000
  C   C904      1.0  0.62551  0.80750  0.01863  1.0000
  S   S120      1.0  0.51100  0.94534  0.29373  1.0000
  H   H712      1.0  0.45955  0.84552  0.22877  1.0000
  S   S121      1.0  0.53433  0.92382  0.04705  1.0000
  H   H713      1.0  0.44853  0.94423  0.24039  1.0000
  Fe  Fe60      1.0  0.41354  0.81331  0.12372  1.0000
  S   S122      1.0  0.38905  0.82029  0.16761  1.0000
  S   S123      1.0  0.42220  0.78699  0.13139  1.0000
  Fe  Fe61      1.0  0.42696  0.85031  0.06346  1.0000
  S   S124      1.0  0.40353  0.86094  0.10122  1.0000
  S   S125      1.0  0.45052  0.86604  0.00300  1.0000
  Fe  Fe62      1.0  0.41469  0.85091  0.15427  1.0000
  S   S126      1.0  0.41922  0.86685  0.20763  1.0000
  Fe  Fe63      1.0  0.37970  0.82971  0.11158  1.0000
  S   S127      1.0  0.34448  0.82350  0.11184  1.0000
  S   S128      1.0  0.44018  0.84278  0.11573  1.0000
  S   S129      1.0  0.40200  0.82007  0.06874  1.0000
  H   H714      1.0  0.47499  0.86187  0.15734  1.0000
  H   H715      1.0  0.50582  0.89441  0.13923  1.0000
  C   C905      1.0  0.61616  0.96520  0.25524  1.0000
  Fe  Fe64      1.0  0.55049  0.78923  0.22138  1.0000
  S   S130      1.0  0.53808  0.80417  0.26913  1.0000
  S   S131      1.0  0.55881  0.76292  0.23526  1.0000
  Fe  Fe65      1.0  0.54657  0.81531  0.15185  1.0000
  S   S132      1.0  0.53408  0.83317  0.19250  1.0000
  H   H716      1.0  0.50548  0.73454  0.19170  1.0000
  Fe  Fe66      1.0  0.55956  0.83208  0.22543  1.0000
  H   H717      1.0  0.33671  0.76970  0.03301  1.0000
  Fe  Fe67      1.0  0.51348  0.80412  0.23294  1.0000
  S   S133      1.0  0.47849  0.79844  0.26251  1.0000
  S   S134      1.0  0.57413  0.81711  0.18068  1.0000
  S   S135      1.0  0.52384  0.78640  0.18950  1.0000
  C   C906      1.0  0.43762  0.79020  0.16804  1.0000
  C   C907      1.0  0.43287  0.79920  0.20110  1.0000
  C   C908      1.0  0.44531  0.80148  0.23038  1.0000
  C   C909      1.0  0.46277  0.79521  0.22616  1.0000
  C   C910      1.0  0.46761  0.78648  0.19274  1.0000
  C   C911      1.0  0.45501  0.78395  0.16384  1.0000
  H   H718      1.0  0.41959  0.80432  0.20428  1.0000
  H   H719      1.0  0.44173  0.80848  0.25577  1.0000
  H   H720      1.0  0.48095  0.78152  0.18921  1.0000
  H   H721      1.0  0.45913  0.77779  0.13750  1.0000
  C   C912      1.0  0.33299  0.80773  0.07941  1.0000
  C   C913      1.0  0.46524  0.74445  0.25107  1.0000
  H   H722      1.0  0.33035  0.75305  0.94046  1.0000
  H   H723      1.0  0.34867  0.82994  0.20889  1.0000
  H   H724      1.0  0.34667  0.75506  0.13080  1.0000
  H   H725      1.0  0.64902  0.96674  0.16468  1.0000
  H   H726      1.0  0.63288  0.88117  0.27894  1.0000
  C   C914      1.0  0.46372  0.95525  0.28821  1.0000
  Fe  Fe68      1.0  0.59559  0.94979  0.91887  1.0000
  H   H727      1.0  0.37222  0.91012  0.87209  1.0000
  H   H728      1.0  0.47318  0.91936  0.25369  1.0000
  C   C915      1.0  0.45703  0.80350  0.02032  1.0000
  C   C916      1.0  0.40761  0.90667  0.06662  1.0000
  C   C917      1.0  0.32909  0.74940  0.21977  1.0000
  S   S136      1.0  0.54280  0.91445  0.32877  1.0000
  C   C918      1.0  0.44918  0.74800  0.06856  1.0000
  H   H729      1.0  0.57525  0.78401  0.15207  1.0000
  C   C919      1.0  0.49868  0.88737  0.17085  1.0000
  H   H730      1.0  0.47787  0.78157  0.98477  1.0000
  C   C920      1.0  0.51139  0.90826  0.03288  1.0000
  C   C921      1.0  0.49121  0.90106  0.06137  1.0000
  C   C922      1.0  0.47256  0.88829  0.05183  1.0000
  C   C923      1.0  0.47388  0.88283  0.01344  1.0000
  C   C924      1.0  0.49389  0.89054  0.98412  1.0000
  C   C925      1.0  0.51271  0.90319  0.99396  1.0000
  H   H731      1.0  0.49006  0.90514  0.09116  1.0000
  H   H732      1.0  0.45705  0.88279  0.07414  1.0000
  H   H733      1.0  0.49493  0.88639  0.95427  1.0000
  H   H734      1.0  0.52812  0.90897  0.97148  1.0000
  C   C926      1.0  0.55331  0.89851  0.30528  1.0000
  C   C927      1.0  0.43555  0.79971  0.01757  1.0000
  H   H735      1.0  0.33352  0.79805  0.18732  1.0000
  C   C928      1.0  0.57044  0.87273  0.26967  1.0000
  C   C929      1.0  0.55774  0.88030  0.25042  1.0000
  C   C930      1.0  0.54966  0.89360  0.26770  1.0000
  H   H736      1.0  0.35317  0.74991  0.98698  1.0000
  C   C931      1.0  0.50337  0.83103  0.04372  1.0000
  H   H737      1.0  0.55434  0.87610  0.22207  1.0000
  C   C932      1.0  0.47766  0.92518  0.18850  1.0000
  C   C933      1.0  0.46966  0.91847  0.15517  1.0000
  C   C934      1.0  0.45204  0.90040  0.16061  1.0000
  C   C935      1.0  0.44166  0.88939  0.19975  1.0000
  C   C936      1.0  0.44900  0.89659  0.23336  1.0000
  C   C937      1.0  0.46723  0.91424  0.22774  1.0000
  C   C938      1.0  0.48144  0.86905  0.18108  1.0000
  H   H738      1.0  0.44638  0.89501  0.13466  1.0000
  H   H739      1.0  0.44087  0.88830  0.26372  1.0000
  H   H740      1.0  0.54566  0.88634  0.12194  1.0000
  C   C939      1.0  0.50827  0.80051  0.99660  1.0000
  C   C940      1.0  0.52860  0.80151  0.00262  1.0000
  C   C941      1.0  0.53371  0.78483  0.00462  1.0000
  C   C942      1.0  0.51867  0.76701  0.99984  1.0000
  C   C943      1.0  0.49866  0.76601  0.99232  1.0000
  C   C944      1.0  0.49342  0.78269  0.99064  1.0000
  C   C945      1.0  0.50264  0.81873  0.07844  1.0000
  C   C946      1.0  0.50387  0.82568  0.11512  1.0000
  C   C947      1.0  0.50572  0.84486  0.11756  1.0000
  H   H741      1.0  0.42206  0.78912  0.04099  1.0000
  H   H742      1.0  0.45988  0.79577  0.04600  1.0000
  H   H743      1.0  0.54042  0.81522  0.00645  1.0000
  H   H744      1.0  0.54927  0.78577  0.01044  1.0000
  C   C948      1.0  0.61508  0.79570  0.21177  1.0000
  H   H745      1.0  0.48718  0.75223  0.98812  1.0000
  H   H746      1.0  0.50150  0.80386  0.07736  1.0000
  H   H747      1.0  0.50378  0.81623  0.14147  1.0000
  H   H748      1.0  0.50716  0.85022  0.14591  1.0000
  H   H749      1.0  0.55204  0.85444  0.08073  1.0000
  C   C949      1.0  0.63599  0.90683  0.18765  1.0000
  H   H750      1.0  0.38475  0.76448  0.19776  1.0000
  H   H751      1.0  0.44491  0.76076  0.06991  1.0000
  H   H752      1.0  0.54058  0.89994  0.25204  1.0000
  C   C950      1.0  0.37460  0.83207  0.97763  1.0000
  H   H753      1.0  0.32094  0.90884  0.07678  1.0000
  P   P33       1.0  0.64969  0.83619  0.10742  1.0000
  H   H754      1.0  0.39498  0.82432  0.28354  1.0000
  C   C951      1.0  0.62686  0.80438  0.17161  1.0000
  H   H755      1.0  0.50326  0.89590  0.26574  1.0000
  C   C952      1.0  0.34054  0.79316  0.06805  1.0000
  H   H756      1.0  0.34118  0.82832  0.98065  1.0000
  C   C953      1.0  0.37521  0.75590  0.08792  1.0000
  C   C954      1.0  0.38317  0.74783  0.05571  1.0000
  C   C955      1.0  0.44002  0.73824  0.92958  1.0000
  H   H757      1.0  0.43346  0.73896  0.02046  1.0000
  H   H758      1.0  0.45681  0.94112  0.30823  1.0000
  C   C956      1.0  0.45905  0.95701  0.25001  1.0000
  C   C957      1.0  0.56734  0.91303  0.13554  1.0000
  H   H759      1.0  0.36097  0.86437  0.08240  1.0000
  H   H760      1.0  0.49945  0.97007  0.99461  1.0000
  H   H761      1.0  0.63127  0.85127  0.17670  1.0000
  H   H762      1.0  0.32046  0.80220  0.33464  1.0000
  H   H763      1.0  0.38860  0.94602  0.87008  1.0000
  H   H764      1.0  0.60198  0.88307  0.15857  1.0000
  C   C958      1.0  0.43548  0.76853  0.93971  1.0000
  C   C959      1.0  0.41367  0.75794  0.96088  1.0000
  C   C960      1.0  0.44872  0.75868  0.92447  1.0000
  H   H765      1.0  0.54691  0.97545  0.14703  1.0000
  C   C961      1.0  0.33843  0.74277  0.93711  1.0000
  C   C962      1.0  0.57208  0.97712  0.42538  1.0000
  H   H766      1.0  0.58961  0.96877  0.46639  1.0000
  C   C963      1.0  0.40511  0.73735  0.96803  1.0000
  C   C964      1.0  0.63309  0.82457  0.15844  1.0000
  C   C965      1.0  0.36244  0.73500  0.19980  1.0000
  H   H767      1.0  0.38627  0.76813  0.09807  1.0000
  H   H768      1.0  0.40052  0.75373  0.04196  1.0000
  H   H769      1.0  0.48158  0.97026  0.32959  1.0000
  S   S137      1.0  0.60778  0.74532  0.07382  1.0000
  C   C966      1.0  0.59512  0.75051  0.11917  1.0000
  H   H770      1.0  0.46559  0.76692  0.90795  1.0000
  H   H771      1.0  0.55768  0.92138  0.12875  1.0000
  H   H772      1.0  0.61215  0.85402  0.97063  1.0000
  C   C967      1.0  0.33906  0.81689  0.23177  1.0000
  H   H773      1.0  0.44206  0.78441  0.93469  1.0000
  H   H774      1.0  0.40346  0.76583  0.97152  1.0000
  C   C968      1.0  0.55504  0.97919  0.04438  1.0000
  H   H775      1.0  0.55047  0.97021  0.02168  1.0000
  C   C969      1.0  0.39579  0.94323  0.92908  1.0000
  P   P34       1.0  0.50215  0.82234  0.99600  1.0000
  C   C970      1.0  0.50583  0.85704  0.08344  1.0000
  C   C971      1.0  0.43149  0.81042  0.98613  1.0000
  C   C972      1.0  0.47468  0.81771  0.99105  1.0000
  H   H776      1.0  0.41480  0.80785  0.98476  1.0000
  C   C973      1.0  0.47239  0.85997  0.22195  1.0000
  H   H777      1.0  0.42902  0.85278  0.27707  1.0000
  C   C974      1.0  0.59261  0.89166  0.15184  1.0000
  C   C975      1.0  0.47046  0.82906  0.96070  1.0000
  C   C976      1.0  0.50434  0.85006  0.04676  1.0000
  H   H778      1.0  0.40288  0.95890  0.92827  1.0000
  C   C977      1.0  0.44893  0.82523  0.95798  1.0000
  H   H779      1.0  0.44575  0.83441  0.93526  1.0000
  H   H780      1.0  0.48356  0.84135  0.94012  1.0000
  H   H781      1.0  0.50714  0.87190  0.08527  1.0000
  C   C978      1.0  0.42657  0.83901  0.29502  1.0000
  C   C979      1.0  0.40720  0.82284  0.29881  1.0000
  H   H782      1.0  0.47753  0.92707  0.12493  1.0000
  C   C980      1.0  0.40394  0.80481  0.32121  1.0000
  C   C981      1.0  0.50655  0.89683  0.20155  1.0000
  H   H783      1.0  0.38909  0.79220  0.32355  1.0000
  H   H784      1.0  0.59205  0.93747  0.14955  1.0000
  C   C982      1.0  0.47985  0.86961  0.25319  1.0000
  H   H785      1.0  0.51960  0.91120  0.19351  1.0000
  H   H786      1.0  0.35387  0.91485  0.02243  1.0000
  C   C983      1.0  0.57061  0.94405  0.44341  1.0000
  H   H787      1.0  0.50428  0.85960  0.02064  1.0000
  C   C984      1.0  0.51967  0.83929  0.35072  1.0000
  C   C985      1.0  0.49710  0.88810  0.24254  1.0000
  H   H788      1.0  0.53221  0.83542  0.36063  1.0000
  H   H789      1.0  0.53134  0.83797  0.28785  1.0000
  C   C986      1.0  0.50409  0.84302  0.37874  1.0000
  C   C987      1.0  0.51919  0.84066  0.30962  1.0000
  C   C988      1.0  0.50347  0.84608  0.29615  1.0000
  C   C989      1.0  0.44299  0.83732  0.31320  1.0000
  H   H790      1.0  0.50441  0.84190  0.41064  1.0000
  H   H791      1.0  0.50342  0.84695  0.26411  1.0000
  C   C990      1.0  0.52313  0.83990  0.95437  1.0000
  H   H792      1.0  0.54295  0.85573  0.99286  1.0000
  C   C991      1.0  0.48826  0.85051  0.32381  1.0000
  C   C992      1.0  0.48828  0.84845  0.36542  1.0000
  P   P35       1.0  0.46839  0.85819  0.30637  1.0000
  C   C993      1.0  0.42014  0.80297  0.33966  1.0000
  H   H793      1.0  0.47631  0.85131  0.38743  1.0000
  H   H794      1.0  0.37220  0.81747  0.97135  1.0000
  C   C994      1.0  0.56554  0.89055  0.32490  1.0000
  H   H795      1.0  0.50907  0.82624  0.90723  1.0000
  C   C995      1.0  0.43964  0.81912  0.33556  1.0000
  H   H796      1.0  0.62327  0.83178  0.04583  1.0000
  C   C996      1.0  0.33558  0.81811  0.27322  1.0000
  C   C997      1.0  0.35706  0.83817  0.98309  1.0000
  C   C998      1.0  0.54137  0.85444  0.96202  1.0000
  C   C999      1.0  0.52247  0.83791  0.91380  1.0000
  H   H797      1.0  0.41792  0.78889  0.35614  1.0000
  C   C1000     1.0  0.57298  0.75827  0.19062  1.0000
  C   C1001     1.0  0.59909  0.85416  0.99468  1.0000
  H   H798      1.0  0.59353  0.91824  0.24110  1.0000
  C   C1002     1.0  0.55818  0.86727  0.92966  1.0000
  C   C1003     1.0  0.46458  0.87673  0.33476  1.0000
  H   H799      1.0  0.49833  0.88908  0.33877  1.0000
  H   H800      1.0  0.45223  0.81714  0.34891  1.0000
  H   H801      1.0  0.59583  0.77786  0.09001  1.0000
  C   C1004     1.0  0.61985  0.87343  0.08064  1.0000
  S   S138      1.0  0.59541  0.96316  0.85702  1.0000
  P   P36       1.0  0.62594  0.92407  0.16568  1.0000
  C   C1005     1.0  0.53923  0.85092  0.88144  1.0000
  H   H802      1.0  0.57229  0.87835  0.93586  1.0000
  S   S139      1.0  0.55110  0.81492  0.08494  1.0000
  S   S140      1.0  0.58219  0.85722  0.24766  1.0000
  C   C1006     1.0  0.48237  0.88994  0.34644  1.0000
  H   H803      1.0  0.61848  0.90398  0.25016  1.0000
  Fe  Fe69      1.0  0.52135  0.95380  0.22539  1.0000
  H   H804      1.0  0.34584  0.86094  0.99789  1.0000
  C   C1007     1.0  0.55704  0.86565  0.88940  1.0000
  C   C1008     1.0  0.39789  0.86329  0.99023  1.0000
  H   H805      1.0  0.40872  0.84004  0.97723  1.0000
  C   C1009     1.0  0.39505  0.84468  0.98102  1.0000
  H   H806      1.0  0.53855  0.84948  0.85018  1.0000
  C   C1010     1.0  0.56534  0.85444  0.05709  1.0000
  H   H807      1.0  0.34255  0.83215  0.28256  1.0000
  C   C1011     1.0  0.35980  0.85670  0.99276  1.0000
  C   C1012     1.0  0.52132  0.95683  0.96832  1.0000
  H   H808      1.0  0.43009  0.86849  0.33666  1.0000
  H   H809      1.0  0.49380  0.91462  0.37640  1.0000
  C   C1013     1.0  0.56858  0.83703  0.05308  1.0000
  C   C1014     1.0  0.44414  0.87836  0.34509  1.0000
  C   C1015     1.0  0.47983  0.90448  0.36790  1.0000
  C   C1016     1.0  0.32978  0.89920  0.07792  1.0000
  H   H810      1.0  0.60979  0.78002  0.22143  1.0000
  C   C1017     1.0  0.57892  0.87176  0.02945  1.0000
  C   C1018     1.0  0.64350  0.81931  0.07213  1.0000
  H   H811      1.0  0.56844  0.89434  0.35389  1.0000
  H   H812      1.0  0.57624  0.88516  0.03223  1.0000
  C   C1019     1.0  0.58515  0.83683  0.02144  1.0000
  H   H813      1.0  0.57014  0.87570  0.86448  1.0000
  C   C1020     1.0  0.57451  0.87808  0.30668  1.0000
  H   H814      1.0  0.58726  0.82324  0.01782  1.0000
  C   C1021     1.0  0.44825  0.91806  0.01112  1.0000
  C   C1022     1.0  0.55743  0.97008  0.40077  1.0000
  C   C1023     1.0  0.59972  0.91156  0.15497  1.0000
  C   C1024     1.0  0.44168  0.89309  0.36621  1.0000
  Fe  Fe70      1.0  0.56697  0.93171  0.00359  1.0000
  C   C1025     1.0  0.59601  0.87164  0.99861  1.0000
  H   H815      1.0  0.51504  0.94448  0.99326  1.0000
  H   H816      1.0  0.58432  0.87228  0.32165  1.0000
  H   H817      1.0  0.62953  0.78202  0.99828  1.0000
  C   C1026     1.0  0.35129  0.74080  0.96373  1.0000
  C   C1027     1.0  0.38035  0.86951  0.99610  1.0000
  C   C1028     1.0  0.61567  0.82714  0.22644  1.0000
  S   S141      1.0  0.59419  0.92808  0.02805  1.0000
  S   S142      1.0  0.57364  0.91885  0.94766  1.0000
  C   C1029     1.0  0.45953  0.90616  0.37757  1.0000
  H   H818      1.0  0.42619  0.91609  0.11125  1.0000
  H   H819      1.0  0.46685  0.75382  0.11527  1.0000
  H   H820      1.0  0.53700  0.95527  0.09489  1.0000
  C   C1030     1.0  0.44267  0.73565  0.04083  1.0000
  C   C1031     1.0  0.62731  0.83585  0.18621  1.0000
  S   S143      1.0  0.58649  0.96290  0.97299  1.0000
  S   S144      1.0  0.61383  0.89306  0.96466  1.0000
  C   C1032     1.0  0.37851  0.91576  0.89745  1.0000
  C   C1033     1.0  0.63387  0.79276  0.01801  1.0000
  H   H821      1.0  0.42593  0.89438  0.37362  1.0000
  C   C1034     1.0  0.48532  0.74272  0.23776  1.0000
  H   H822      1.0  0.54545  0.94732  0.93545  1.0000
  C   C1035     1.0  0.37735  0.90276  0.93126  1.0000
  H   H823      1.0  0.37012  0.88720  0.93135  1.0000
  C   C1036     1.0  0.38773  0.93598  0.89632  1.0000
  H   H824      1.0  0.45769  0.91762  0.39374  1.0000
  C   C1037     1.0  0.62381  0.85751  0.09743  1.0000
  H   H825      1.0  0.41373  0.87255  0.99337  1.0000
  S   S145      1.0  0.56274  0.96937  0.29227  1.0000
  H   H826      1.0  0.55222  0.77566  0.09056  1.0000
  H   H827      1.0  0.60329  0.87275  0.08529  1.0000
  C   C1038     1.0  0.53845  0.95842  0.93578  1.0000
  H   H828      1.0  0.61078  0.83585  0.24736  1.0000
  C   C1039     1.0  0.35119  0.76194  0.21281  1.0000
  C   C1040     1.0  0.32231  0.88327  0.10997  1.0000
  C   C1041     1.0  0.38554  0.90993  0.96419  1.0000
  H   H829      1.0  0.43005  0.90836  0.96648  1.0000
  C   C1042     1.0  0.63987  0.93699  0.08112  1.0000
  Fe  Fe71      1.0  0.60273  0.91800  0.96926  1.0000
  H   H830      1.0  0.51278  0.98226  0.08713  1.0000
  H   H831      1.0  0.40083  0.93611  0.98823  1.0000
  H   H832      1.0  0.61499  0.80844  0.99876  1.0000
  P   P37       1.0  0.38364  0.89345  0.00872  1.0000
  C   C1043     1.0  0.63629  0.96035  0.19246  1.0000
  C   C1044     1.0  0.42897  0.91023  0.99803  1.0000
  C   C1045     1.0  0.54945  0.95025  0.39761  1.0000
  H   H833      1.0  0.55029  0.92198  0.41522  1.0000
  H   H834      1.0  0.58841  0.93989  0.28963  1.0000
  H   H835      1.0  0.59599  0.96271  0.07237  1.0000
  C   C1046     1.0  0.59894  0.97631  0.12571  1.0000
  S   S146      1.0  0.50037  0.94751  0.17984  1.0000
  H   H836      1.0  0.35587  0.77731  0.21464  1.0000
  H   H837      1.0  0.55234  0.98003  0.38361  1.0000
  C   C1047     1.0  0.35988  0.89002  0.04845  1.0000
  H   H838      1.0  0.57000  0.75709  0.04926  1.0000
  C   C1048     1.0  0.55298  0.98218  0.11518  1.0000
  C   C1049     1.0  0.40846  0.90409  0.02586  1.0000
  H   H839      1.0  0.46400  0.92182  0.99000  1.0000
  C   C1050     1.0  0.57933  0.77125  0.15369  1.0000
  H   H840      1.0  0.51304  0.76047  0.12496  1.0000
  C   C1051     1.0  0.59093  0.76768  0.11834  1.0000
  C   C1052     1.0  0.58858  0.73734  0.15595  1.0000
  C   C1053     1.0  0.39465  0.93027  0.96295  1.0000
  C   C1054     1.0  0.62992  0.89985  0.22987  1.0000
  C   C1055     1.0  0.32320  0.80122  0.30250  1.0000
  H   H841      1.0  0.62310  0.92948  0.07990  1.0000
  H   H842      1.0  0.59958  0.80009  0.26976  1.0000
  C   C1056     1.0  0.64715  0.79133  0.04408  1.0000
  C   C1057     1.0  0.63327  0.97259  0.22005  1.0000
  C   C1058     1.0  0.55274  0.75037  0.06448  1.0000
  C   C1059     1.0  0.33036  0.79880  0.21958  1.0000
  C   C1060     1.0  0.60496  0.93330  0.23530  1.0000
  H   H843      1.0  0.57577  0.93394  0.45972  1.0000
  H   H844      1.0  0.49780  0.74757  0.25469  1.0000
  C   C1061     1.0  0.58682  0.92212  0.14724  1.0000
  C   C1062     1.0  0.57806  0.74151  0.19188  1.0000
  C   C1063     1.0  0.33088  0.78090  0.04187  1.0000
  C   C1064     1.0  0.54275  0.76075  0.08790  1.0000
  C   C1065     1.0  0.54741  0.97071  0.08564  1.0000
  H   H845      1.0  0.46218  0.92581  0.06219  1.0000
  H   H846      1.0  0.39213  0.90211  0.08889  1.0000
  C   C1066     1.0  0.36774  0.75471  0.20312  1.0000
  H   H847      1.0  0.63365  0.90176  0.04204  1.0000
  C   C1067     1.0  0.44724  0.92026  0.05184  1.0000
  C   C1068     1.0  0.52057  0.75195  0.10791  1.0000
  C   C1069     1.0  0.35238  0.87419  0.08089  1.0000
  C   C1070     1.0  0.47772  0.97162  0.30014  1.0000
  C   C1071     1.0  0.42694  0.91470  0.07949  1.0000
  H   H848      1.0  0.56791  0.86732  0.13717  1.0000
  C   C1072     1.0  0.60939  0.80703  0.23912  1.0000
  H   H849      1.0  0.35364  0.79124  0.07964  1.0000
  C   C1073     1.0  0.51258  0.97131  0.96906  1.0000
  C   C1074     1.0  0.56059  0.89331  0.13157  1.0000
  C   C1075     1.0  0.33362  0.87077  0.11140  1.0000
  S   S147      1.0  0.63881  0.98122  0.01571  1.0000
  C   C1076     1.0  0.54681  0.97447  0.90384  1.0000
  C   C1077     1.0  0.57849  0.96389  0.44696  1.0000
  H   H850      1.0  0.58209  0.96814  0.14169  1.0000
  H   H851      1.0  0.52257  0.75402  0.00198  1.0000
  Fe  Fe72      1.0  0.61438  0.95817  0.99235  1.0000
  C   C1078     1.0  0.64518  0.85792  0.09029  1.0000
  C   C1079     1.0  0.46120  0.74389  0.09486  1.0000
  C   C1080     1.0  0.62236  0.94045  0.20029  1.0000
  C   C1081     1.0  0.55618  0.93727  0.41858  1.0000
  C   C1082     1.0  0.60197  0.94556  0.26280  1.0000
  S   S148      1.0  0.62547  0.94783  0.93527  1.0000
  C   C1083     1.0  0.57319  0.88264  0.13987  1.0000
  H   H852      1.0  0.61006  0.84460  0.11460  1.0000
  C   C1084     1.0  0.55446  0.97976  0.76873  1.0000
  C   C1085     1.0  0.48970  0.73554  0.20172  1.0000
  C   C1086     1.0  0.63705  0.88984  0.05636  1.0000
  C   C1087     1.0  0.60686  0.97318  0.08652  1.0000
  H   H853      1.0  0.56040  0.97566  0.87930  1.0000
  H   H854      1.0  0.46226  0.75086  0.27800  1.0000
  C   C1088     1.0  0.63819  0.88687  0.24646  1.0000
  H   H855      1.0  0.54680  0.96500  0.76316  1.0000
  H   H856      1.0  0.43372  0.73990  0.23929  1.0000
  C   C1089     1.0  0.35288  0.74838  0.10683  1.0000
  C   C1090     1.0  0.64583  0.93745  0.11852  1.0000
  H   H857      1.0  0.63065  0.79512  0.15106  1.0000
  Fe  Fe73      1.0  0.53302  0.97630  0.29403  1.0000
  H   H858      1.0  0.46469  0.97604  0.19408  1.0000
  H   H859      1.0  0.32784  0.85825  0.13589  1.0000
  C   C1091     1.0  0.46849  0.97508  0.22359  1.0000
  Fe  Fe74      1.0  0.56878  0.97614  0.22443  1.0000
  H   H860      1.0  0.53439  0.97349  0.82955  1.0000
  C   C1092     1.0  0.44922  0.73840  0.22905  1.0000
  H   H861      1.0  0.61347  0.97486  0.27590  1.0000
  C   C1093     1.0  0.34850  0.90258  0.04715  1.0000
  C   C1094     1.0  0.31795  0.78175  0.24869  1.0000
  H   H862      1.0  0.67729  0.15159  0.65398  1.0000
  S   S149      1.0  0.77027  0.21727  0.46843  1.0000
  H   H863      1.0  0.67046  0.22935  0.38924  1.0000
  S   S150      1.0  0.76139  0.17615  0.55767  1.0000
  H   H864      1.0  0.71386  0.13494  0.82924  1.0000
  C   C1095     1.0  0.66688  0.22834  0.77380  1.0000
  C   C1096     1.0  0.65645  0.22369  0.48309  1.0000
  C   C1097     1.0  0.71964  0.12513  0.81317  1.0000
  H   H865      1.0  0.67730  0.20558  0.34776  1.0000
  H   H866      1.0  0.68011  0.02098  0.78496  1.0000
  C   C1098     1.0  0.67208  0.18717  0.70700  1.0000
  C   C1099     1.0  0.67549  0.16274  0.80445  1.0000
  S   S151      1.0  0.66147  0.07538  0.62638  1.0000
  C   C1100     1.0  0.75533  0.11394  0.67075  1.0000
  H   H867      1.0  0.65600  0.07749  0.93520  1.0000
  S   S152      1.0  0.68042  0.13781  0.38518  1.0000
  H   H868      1.0  0.71305  0.21530  0.69018  1.0000
  C   C1101     1.0  0.76106  0.05691  0.75660  1.0000
  C   C1102     1.0  0.67272  0.16909  0.69955  1.0000
  C   C1103     1.0  0.72865  0.22144  0.79373  1.0000
  S   S153      1.0  0.68024  0.08811  0.72218  1.0000
  C   C1104     1.0  0.65393  0.04778  0.94604  1.0000
  H   H869      1.0  0.67364  0.21511  0.67955  1.0000
  H   H870      1.0  0.66836  0.05225  0.48435  1.0000
  C   C1105     1.0  0.76005  0.09869  0.68936  1.0000
  H   H871      1.0  0.66843  0.05043  0.92216  1.0000
  H   H872      1.0  0.65783  0.14249  0.49206  1.0000
  Fe  Fe75      1.0  0.67341  0.11433  0.73649  1.0000
  S   S154      1.0  0.70116  0.14228  0.73590  1.0000
  C   C1106     1.0  0.74066  0.13230  0.78746  1.0000
  Fe  Fe76      1.0  0.74050  0.22453  0.48530  1.0000
  H   H873      1.0  0.75107  0.14764  0.78373  1.0000
  H   H874      1.0  0.66179  0.05910  0.41595  1.0000
  H   H875      1.0  0.72110  0.07725  0.67169  1.0000
  H   H876      1.0  0.77763  0.13453  0.35092  1.0000
  C   C1107     1.0  0.66704  0.14475  0.83103  1.0000
  H   H877      1.0  0.77452  0.03543  0.77079  1.0000
  H   H878      1.0  0.75310  0.04911  0.73491  1.0000
  C   C1108     1.0  0.67631  0.19696  0.63455  1.0000
  C   C1109     1.0  0.66063  0.20365  0.36183  1.0000
  C   C1110     1.0  0.68956  0.03299  0.75972  1.0000
  H   H879      1.0  0.76861  0.09803  0.79923  1.0000
  C   C1111     1.0  0.68236  0.03384  0.72387  1.0000
  C   C1112     1.0  0.74792  0.11989  0.76536  1.0000
  H   H880      1.0  0.65970  0.16438  0.40964  1.0000
  H   H881      1.0  0.73572  0.19167  0.42606  1.0000
  H   H882      1.0  0.67978  0.17633  0.59645  1.0000
  C   C1113     1.0  0.70823  0.04812  0.76390  1.0000
  C   C1114     1.0  0.70097  0.20776  0.75638  1.0000
  C   C1115     1.0  0.71282  0.06476  0.69593  1.0000
  C   C1116     1.0  0.69403  0.04970  0.69190  1.0000
  C   C1117     1.0  0.66153  0.17176  0.79459  1.0000
  H   H883      1.0  0.79772  0.13136  0.58618  1.0000
  H   H884      1.0  0.67405  0.16847  0.53018  1.0000
  C   C1118     1.0  0.71695  0.21670  0.71950  1.0000
  H   H885      1.0  0.66742  0.02247  0.72136  1.0000
  S   S155      1.0  0.65819  0.05220  0.82604  1.0000
  C   C1119     1.0  0.67768  0.17924  0.62725  1.0000
  C   C1120     1.0  0.74440  0.23021  0.75690  1.0000
  C   C1121     1.0  0.76906  0.12575  0.63392  1.0000
  H   H886      1.0  0.80577  0.10389  0.61748  1.0000
  H   H887      1.0  0.79000  0.08419  0.83453  1.0000
  S   S156      1.0  0.73155  0.21162  0.55190  1.0000
  C   C1122     1.0  0.74393  0.16713  0.60668  1.0000
  C   C1123     1.0  0.74355  0.17960  0.63512  1.0000
  C   C1124     1.0  0.73047  0.17193  0.67504  1.0000
  C   C1125     1.0  0.71724  0.15194  0.68599  1.0000
  C   C1126     1.0  0.71696  0.13967  0.65702  1.0000
  C   C1127     1.0  0.73057  0.14720  0.61766  1.0000
  H   H888      1.0  0.75373  0.19507  0.62663  1.0000
  H   H889      1.0  0.73046  0.18152  0.69723  1.0000
  H   H890      1.0  0.70659  0.12430  0.66506  1.0000
  H   H891      1.0  0.73080  0.13758  0.59575  1.0000
  C   C1128     1.0  0.70521  0.19570  0.43311  1.0000
  C   C1129     1.0  0.68382  0.18794  0.42809  1.0000
  C   C1130     1.0  0.67619  0.17027  0.41328  1.0000
  C   C1131     1.0  0.68999  0.16033  0.40278  1.0000
  C   C1132     1.0  0.71161  0.16826  0.40690  1.0000
  C   C1133     1.0  0.71912  0.18574  0.42268  1.0000
  H   H892      1.0  0.67301  0.19551  0.43621  1.0000
  H   H893      1.0  0.73322  0.22333  0.82243  1.0000
  H   H894      1.0  0.72241  0.16070  0.39843  1.0000
  C   C1134     1.0  0.78719  0.12212  0.61474  1.0000
  C   C1135     1.0  0.75915  0.07457  0.76447  1.0000
  C   C1136     1.0  0.79168  0.10667  0.63242  1.0000
  C   C1137     1.0  0.72003  0.06416  0.73196  1.0000
  C   C1138     1.0  0.71306  0.09312  0.79469  1.0000
  C   C1139     1.0  0.78195  0.07658  0.81270  1.0000
  C   C1140     1.0  0.78056  0.16053  0.37679  1.0000
  Fe  Fe77      1.0  0.76246  0.20604  0.53570  1.0000
  H   H895      1.0  0.67686  0.21709  0.51895  1.0000
  H   H896      1.0  0.71299  0.04759  0.79258  1.0000
  H   H897      1.0  0.67717  0.20747  0.60926  1.0000
  H   H898      1.0  0.74541  0.11292  0.40492  1.0000
  C   C1141     1.0  0.67284  0.14375  0.50075  1.0000
  C   C1142     1.0  0.68196  0.15838  0.52245  1.0000
  C   C1143     1.0  0.70121  0.15994  0.53406  1.0000
  C   C1144     1.0  0.71185  0.14756  0.52217  1.0000
  C   C1145     1.0  0.70365  0.13376  0.49787  1.0000
  C   C1146     1.0  0.68362  0.13147  0.48834  1.0000
  P   P38       1.0  0.71967  0.12020  0.47741  1.0000
  C   C1147     1.0  0.72841  0.11027  0.51829  1.0000
  C   C1148     1.0  0.70291  0.10022  0.45677  1.0000
  C   C1149     1.0  0.69201  0.08132  0.48021  1.0000
  C   C1150     1.0  0.67736  0.06651  0.46537  1.0000
  H   H899      1.0  0.66635  0.08997  0.54272  1.0000
  C   C1151     1.0  0.68491  0.08902  0.40297  1.0000
  C   C1152     1.0  0.69951  0.10384  0.41779  1.0000
  C   C1153     1.0  0.74835  0.10767  0.51060  1.0000
  C   C1154     1.0  0.75461  0.09929  0.54228  1.0000
  C   C1155     1.0  0.74096  0.09339  0.58167  1.0000
  C   C1156     1.0  0.72116  0.09609  0.58953  1.0000
  C   C1157     1.0  0.71490  0.10448  0.55800  1.0000
  C   C1158     1.0  0.74351  0.13612  0.43803  1.0000
  C   C1159     1.0  0.75358  0.15617  0.43925  1.0000
  C   C1160     1.0  0.77193  0.16829  0.40868  1.0000
  C   C1161     1.0  0.75256  0.12837  0.40621  1.0000
  H   H900      1.0  0.67118  0.15804  0.72425  1.0000
  P   P39       1.0  0.67271  0.19399  0.75654  1.0000
  H   H901      1.0  0.70831  0.17100  0.55141  1.0000
  H   H902      1.0  0.72701  0.14931  0.53057  1.0000
  H   H903      1.0  0.67659  0.12080  0.47015  1.0000
  H   H904      1.0  0.69407  0.07810  0.51058  1.0000
  Fe  Fe78      1.0  0.65318  0.07160  0.77720  1.0000
  H   H905      1.0  0.70760  0.11837  0.39940  1.0000
  H   H906      1.0  0.75907  0.11209  0.48026  1.0000
  H   H907      1.0  0.77006  0.09740  0.53628  1.0000
  H   H908      1.0  0.74586  0.08690  0.60607  1.0000
  H   H909      1.0  0.71047  0.09179  0.61995  1.0000
  H   H910      1.0  0.69946  0.10640  0.56478  1.0000
  H   H911      1.0  0.74736  0.16276  0.46326  1.0000
  H   H912      1.0  0.77931  0.18378  0.40976  1.0000
  C   C1162     1.0  0.67392  0.20107  0.67421  1.0000
  C   C1163     1.0  0.77093  0.14056  0.37564  1.0000
  H   H913      1.0  0.68177  0.09231  0.37351  1.0000
  H   H914      1.0  0.76572  0.13782  0.62014  1.0000
  H   H915      1.0  0.76420  0.12579  0.74533  1.0000
  H   H916      1.0  0.69286  0.16912  0.79008  1.0000
  S   S157      1.0  0.71422  0.21841  0.45020  1.0000
  C   C1164     1.0  0.77821  0.09501  0.66963  1.0000
  C   C1165     1.0  0.70699  0.21032  0.79351  1.0000
  H   H917      1.0  0.78217  0.08330  0.68297  1.0000
  H   H918      1.0  0.68804  0.05071  0.66460  1.0000
  C   C1166     1.0  0.76976  0.08440  0.79258  1.0000
  H   H919      1.0  0.68936  0.10000  0.83601  1.0000
  C   C1167     1.0  0.67367  0.07038  0.42689  1.0000
  C   C1168     1.0  0.78367  0.05895  0.80487  1.0000
  P   P40       1.0  0.74320  0.08442  0.73857  1.0000
  H   H920      1.0  0.67789  0.13761  0.83701  1.0000
  C   C1169     1.0  0.67595  0.16529  0.65970  1.0000
  C   C1170     1.0  0.77325  0.04913  0.77680  1.0000
  H   H921      1.0  0.79304  0.05288  0.82063  1.0000
  H   H922      1.0  0.70201  0.07813  0.79759  1.0000
  H   H923      1.0  0.74123  0.11695  0.68490  1.0000
  C   C1171     1.0  0.73405  0.10022  0.76843  1.0000
  H   H924      1.0  0.79468  0.17003  0.35301  1.0000
  C   C1172     1.0  0.70586  0.10553  0.81686  1.0000
  H   H925      1.0  0.69488  0.20379  0.82222  1.0000
  C   C1173     1.0  0.73852  0.22787  0.71985  1.0000
  H   H926      1.0  0.65171  0.01286  0.46996  1.0000
  H   H927      1.0  0.65666  0.14161  0.59914  1.0000
  C   C1174     1.0  0.65710  0.20934  0.76555  1.0000
  H   H928      1.0  0.65161  0.01978  0.88607  1.0000
  C   C1175     1.0  0.65668  0.21702  0.38559  1.0000
  Fe  Fe79      1.0  0.65372  0.08310  0.68853  1.0000
  C   C1176     1.0  0.67183  0.22836  0.50668  1.0000
  H   H929      1.0  0.65941  0.00588  0.06767  1.0000
  C   C1177     1.0  0.94113  0.30492  0.48635  1.0000
  C   C1178     1.0  0.94146  0.38938  0.47012  1.0000
  H   H930      1.0  0.65526  0.27872  0.30494  1.0000
  S   S158      1.0  0.69309  0.44677  0.69333  1.0000
  C   C1179     1.0  0.94874  0.47742  0.63981  1.0000
  S   S159      1.0  0.81322  0.38178  0.71245  1.0000
  Fe  Fe80      1.0  0.93735  0.34465  0.60032  1.0000
  S   S160      1.0  0.92697  0.33882  0.54204  1.0000
  H   H931      1.0  0.73689  0.32624  0.65123  1.0000
  Fe  Fe81      1.0  0.89107  0.33477  0.64910  1.0000
  S   S161      1.0  0.87654  0.32852  0.59546  1.0000
  S   S162      1.0  0.86991  0.33023  0.71180  1.0000
  Fe  Fe82      1.0  0.89901  0.31268  0.58090  1.0000
  S   S163      1.0  0.88788  0.28291  0.56296  1.0000
  Fe  Fe83      1.0  0.90562  0.35522  0.56155  1.0000
  S   S164      1.0  0.89993  0.37703  0.51994  1.0000
  S   S165      1.0  0.91135  0.31677  0.63757  1.0000
  S   S166      1.0  0.91813  0.36320  0.61679  1.0000
  C   C1180     1.0  0.91413  0.36556  0.86607  1.0000
  S   S167      1.0  0.75923  0.25493  0.49521  1.0000
  S   S168      1.0  0.74879  0.25757  0.61158  1.0000
  S   S169      1.0  0.85239  0.43731  0.69384  1.0000
  S   S170      1.0  0.65365  0.25526  0.67560  1.0000
  C   C1181     1.0  0.97310  0.34679  0.77622  1.0000
  S   S171      1.0  0.82079  0.26992  0.45078  1.0000
  C   C1182     1.0  0.68299  0.37868  0.56626  1.0000
  H   H932      1.0  0.75063  0.23478  0.69112  1.0000
  C   C1183     1.0  0.96243  0.30098  0.59639  1.0000
  S   S172      1.0  0.85681  0.46321  0.60649  1.0000
  H   H933      1.0  0.66256  0.25500  0.78513  1.0000
  H   H934      1.0  0.65392  0.26858  0.46276  1.0000
  C   C1184     1.0  0.69021  0.42767  0.55755  1.0000
  C   C1185     1.0  0.86900  0.27962  0.53236  1.0000
  C   C1186     1.0  0.85702  0.26067  0.52687  1.0000
  C   C1187     1.0  0.84195  0.25768  0.50240  1.0000
  C   C1188     1.0  0.83913  0.27366  0.48257  1.0000
  C   C1189     1.0  0.85116  0.29266  0.48793  1.0000
  C   C1190     1.0  0.86602  0.29564  0.51295  1.0000
  C   C1191     1.0  0.68087  0.24746  0.51396  1.0000
  H   H935      1.0  0.93676  0.33182  0.88160  1.0000
  H   H936      1.0  0.84871  0.30502  0.47335  1.0000
  H   H937      1.0  0.87518  0.31032  0.51708  1.0000
  C   C1192     1.0  0.82763  0.36625  0.71067  1.0000
  C   C1193     1.0  0.84345  0.36801  0.67561  1.0000
  C   C1194     1.0  0.85614  0.35658  0.67547  1.0000
  C   C1195     1.0  0.85292  0.34334  0.71051  1.0000
  C   C1196     1.0  0.83643  0.34098  0.74505  1.0000
  C   C1197     1.0  0.82378  0.35243  0.74514  1.0000
  H   H938      1.0  0.95583  0.42803  0.81698  1.0000
  H   H939      1.0  0.86875  0.35839  0.64856  1.0000
  H   H940      1.0  0.83372  0.33054  0.77195  1.0000
  H   H941      1.0  0.81151  0.35103  0.77230  1.0000
  C   C1198     1.0  0.76338  0.46140  0.77967  1.0000
  C   C1199     1.0  0.92585  0.46986  0.65178  1.0000
  H   H942      1.0  0.78733  0.46382  0.59046  1.0000
  C   C1200     1.0  0.72221  0.25669  0.62862  1.0000
  C   C1201     1.0  0.71764  0.26578  0.66160  1.0000
  H   H943      1.0  0.95968  0.41525  0.70280  1.0000
  H   H944      1.0  0.67148  0.23907  0.60988  1.0000
  H   H945      1.0  0.70143  0.31263  0.70363  1.0000
  H   H946      1.0  0.73036  0.27288  0.67656  1.0000
  C   C1202     1.0  0.66655  0.37715  0.60004  1.0000
  H   H947      1.0  0.90575  0.41218  0.46934  1.0000
  H   H948      1.0  0.69998  0.38525  0.56728  1.0000
  C   C1203     1.0  0.92190  0.42069  0.34604  1.0000
  C   C1204     1.0  0.91530  0.43629  0.33870  1.0000
  C   C1205     1.0  0.89334  0.43357  0.35193  1.0000
  C   C1206     1.0  0.87793  0.41528  0.37260  1.0000
  C   C1207     1.0  0.88439  0.39951  0.38037  1.0000
  C   C1208     1.0  0.90653  0.40236  0.36696  1.0000
  P   P41       1.0  0.86413  0.37614  0.40813  1.0000
  C   C1209     1.0  0.87401  0.35653  0.40382  1.0000
  C   C1210     1.0  0.85703  0.37700  0.46199  1.0000
  C   C1211     1.0  0.85964  0.39484  0.47562  1.0000
  C   C1212     1.0  0.85508  0.39535  0.51740  1.0000
  C   C1213     1.0  0.84796  0.37814  0.54592  1.0000
  C   C1214     1.0  0.84507  0.36029  0.53269  1.0000
  C   C1215     1.0  0.84946  0.35968  0.49094  1.0000
  C   C1216     1.0  0.86422  0.34082  0.38462  1.0000
  C   C1217     1.0  0.87043  0.32469  0.38598  1.0000
  C   C1218     1.0  0.88640  0.32414  0.40641  1.0000
  C   C1219     1.0  0.89616  0.33971  0.42559  1.0000
  C   C1220     1.0  0.89002  0.35581  0.42419  1.0000
  C   C1221     1.0  0.84042  0.37097  0.38724  1.0000
  C   C1222     1.0  0.84303  0.37601  0.34507  1.0000
  C   C1223     1.0  0.82469  0.37188  0.32869  1.0000
  C   C1224     1.0  0.80367  0.36259  0.35426  1.0000
  C   C1225     1.0  0.80099  0.35739  0.39619  1.0000
  C   C1226     1.0  0.81931  0.36152  0.41260  1.0000
  H   H949      1.0  0.93909  0.42303  0.33691  1.0000
  H   H950      1.0  0.92722  0.45064  0.32356  1.0000
  H   H951      1.0  0.88842  0.44586  0.34707  1.0000
  H   H952      1.0  0.86104  0.41359  0.38329  1.0000
  H   H953      1.0  0.91219  0.39072  0.37315  1.0000
  H   H954      1.0  0.86573  0.40853  0.45451  1.0000
  H   H955      1.0  0.85766  0.40924  0.52756  1.0000
  H   H956      1.0  0.84523  0.37872  0.57818  1.0000
  H   H957      1.0  0.84032  0.34706  0.55477  1.0000
  H   H958      1.0  0.84768  0.34577  0.48146  1.0000
  H   H959      1.0  0.85134  0.34060  0.36973  1.0000
  H   H960      1.0  0.86226  0.31224  0.37254  1.0000
  H   H961      1.0  0.87722  0.34161  0.78893  1.0000
  H   H962      1.0  0.90790  0.33913  0.44292  1.0000
  H   H963      1.0  0.89721  0.36745  0.44028  1.0000
  H   H964      1.0  0.85924  0.38312  0.32487  1.0000
  H   H965      1.0  0.82681  0.37589  0.29616  1.0000
  H   H966      1.0  0.78946  0.35936  0.34159  1.0000
  H   H967      1.0  0.78474  0.35011  0.41600  1.0000
  H   H968      1.0  0.81702  0.35727  0.44496  1.0000
  S   S173      1.0  0.81122  0.42554  0.64942  1.0000
  C   C1227     1.0  0.76509  0.31764  0.71860  1.0000
  C   C1228     1.0  0.78592  0.46815  0.76273  1.0000
  H   H969      1.0  0.94927  0.44982  0.86472  1.0000
  C   C1229     1.0  0.70470  0.29629  0.57763  1.0000
  C   C1230     1.0  0.69491  0.30890  0.59203  1.0000
  C   C1231     1.0  0.70775  0.32861  0.59024  1.0000
  C   C1232     1.0  0.73034  0.33570  0.57364  1.0000
  C   C1233     1.0  0.74016  0.32318  0.55789  1.0000
  C   C1234     1.0  0.72732  0.30322  0.56161  1.0000
  P   P42       1.0  0.76906  0.33272  0.53391  1.0000
  C   C1235     1.0  0.77704  0.35766  0.50836  1.0000
  C   C1236     1.0  0.78317  0.33030  0.57315  1.0000
  C   C1237     1.0  0.79049  0.34553  0.59493  1.0000
  C   C1238     1.0  0.80222  0.34401  0.62399  1.0000
  C   C1239     1.0  0.80668  0.32718  0.63171  1.0000
  C   C1240     1.0  0.79867  0.31157  0.61135  1.0000
  C   C1241     1.0  0.78663  0.31297  0.58269  1.0000
  C   C1242     1.0  0.79779  0.37186  0.50606  1.0000
  C   C1243     1.0  0.80386  0.39102  0.48593  1.0000
  C   C1244     1.0  0.78933  0.39621  0.46772  1.0000
  C   C1245     1.0  0.76881  0.38208  0.46890  1.0000
  C   C1246     1.0  0.76277  0.36283  0.48873  1.0000
  C   C1247     1.0  0.77528  0.31979  0.49366  1.0000
  C   C1248     1.0  0.76017  0.31190  0.47039  1.0000
  C   C1249     1.0  0.76529  0.30209  0.43901  1.0000
  C   C1250     1.0  0.78567  0.30049  0.43010  1.0000
  C   C1251     1.0  0.80100  0.30882  0.45229  1.0000
  C   C1252     1.0  0.79586  0.31841  0.48392  1.0000
  H   H970      1.0  0.69471  0.28107  0.57906  1.0000
  H   H971      1.0  0.67740  0.30328  0.60508  1.0000
  H   H972      1.0  0.70018  0.33836  0.60178  1.0000
  H   H973      1.0  0.74009  0.35098  0.57286  1.0000
  H   H974      1.0  0.73467  0.29301  0.55179  1.0000
  H   H975      1.0  0.78730  0.35866  0.58928  1.0000
  H   H976      1.0  0.80775  0.35588  0.64069  1.0000
  H   H977      1.0  0.81603  0.32612  0.65392  1.0000
  H   H978      1.0  0.80164  0.29827  0.61787  1.0000
  H   H979      1.0  0.78022  0.30052  0.56786  1.0000
  H   H980      1.0  0.80942  0.36816  0.51936  1.0000
  H   H981      1.0  0.81984  0.40197  0.48469  1.0000
  H   H982      1.0  0.79406  0.41120  0.45276  1.0000
  H   H983      1.0  0.75760  0.38610  0.45451  1.0000
  H   H984      1.0  0.74691  0.35202  0.48887  1.0000
  H   H985      1.0  0.74437  0.31311  0.47666  1.0000
  H   H986      1.0  0.75331  0.29535  0.42211  1.0000
  H   H987      1.0  0.78946  0.29238  0.40667  1.0000
  H   H988      1.0  0.81671  0.30738  0.44562  1.0000
  H   H989      1.0  0.80798  0.32463  0.50081  1.0000
  C   C1253     1.0  0.92835  0.42741  0.67138  1.0000
  C   C1254     1.0  0.91572  0.41755  0.64619  1.0000
  C   C1255     1.0  0.89369  0.40585  0.66249  1.0000
  C   C1256     1.0  0.88420  0.40399  0.70398  1.0000
  C   C1257     1.0  0.89680  0.41365  0.72972  1.0000
  C   C1258     1.0  0.91896  0.42559  0.71285  1.0000
  P   P43       1.0  0.88407  0.41049  0.78354  1.0000
  C   C1259     1.0  0.86218  0.41950  0.78730  1.0000
  C   C1260     1.0  0.87295  0.38482  0.80578  1.0000
  C   C1261     1.0  0.85715  0.37799  0.84315  1.0000
  C   C1262     1.0  0.84824  0.35806  0.86031  1.0000
  C   C1263     1.0  0.85556  0.34495  0.84091  1.0000
  C   C1264     1.0  0.87176  0.35178  0.80438  1.0000
  C   C1265     1.0  0.88026  0.37159  0.78664  1.0000
  C   C1266     1.0  0.86645  0.43951  0.78658  1.0000
  C   C1267     1.0  0.84944  0.44636  0.78947  1.0000
  C   C1268     1.0  0.82813  0.43337  0.79190  1.0000
  C   C1269     1.0  0.82385  0.41354  0.79119  1.0000
  C   C1270     1.0  0.84079  0.40664  0.78862  1.0000
  C   C1271     1.0  0.90383  0.42194  0.81209  1.0000
  C   C1272     1.0  0.89973  0.43338  0.84102  1.0000
  C   C1273     1.0  0.91601  0.44324  0.86027  1.0000
  C   C1274     1.0  0.93997  0.42912  0.82460  1.0000
  C   C1275     1.0  0.92357  0.41899  0.80599  1.0000
  H   H990      1.0  0.94529  0.43700  0.65844  1.0000
  H   H991      1.0  0.92283  0.41937  0.61383  1.0000
  H   H992      1.0  0.86701  0.39513  0.71608  1.0000
  H   H993      1.0  0.92907  0.43408  0.73087  1.0000
  H   H994      1.0  0.85145  0.38804  0.85856  1.0000
  H   H995      1.0  0.83558  0.35277  0.88852  1.0000
  H   H996      1.0  0.84857  0.32948  0.85383  1.0000
  H   H997      1.0  0.89221  0.37644  0.75765  1.0000
  H   H998      1.0  0.88296  0.44991  0.78287  1.0000
  H   H999      1.0  0.85291  0.46188  0.78793  1.0000
  H   H1000     1.0  0.81518  0.43887  0.79214  1.0000
  H   H1001     1.0  0.80760  0.40365  0.79070  1.0000
  H   H1002     1.0  0.83722  0.39140  0.78622  1.0000
  H   H1003     1.0  0.88417  0.43494  0.84854  1.0000
  H   H1004     1.0  0.92659  0.40953  0.78525  1.0000
  Fe  Fe84      1.0  0.68963  0.42194  0.65885  1.0000
  C   C1276     1.0  0.65556  0.29992  0.81802  1.0000
  C   C1277     1.0  0.96268  0.45066  0.55554  1.0000
  H   H1005     1.0  0.76117  0.23888  0.75691  1.0000
  C   C1278     1.0  0.95788  0.41978  0.42089  1.0000
  C   C1279     1.0  0.93210  0.36195  0.76252  1.0000
  C   C1280     1.0  0.65476  0.24017  0.78019  1.0000
  S   S174      1.0  0.96574  0.47654  0.74777  1.0000
  S   S175      1.0  0.65325  0.43403  0.46084  1.0000
  H   H1006     1.0  0.77461  0.30897  0.72403  1.0000
  H   H1007     1.0  0.92003  0.46817  0.75439  1.0000
  S   S176      1.0  0.82221  0.47176  0.70598  1.0000
  Fe  Fe85      1.0  0.83693  0.43490  0.59054  1.0000
  C   C1281     1.0  0.93836  0.42278  0.43093  1.0000
  Fe  Fe86      1.0  0.75336  0.24119  0.56013  1.0000
  S   S177      1.0  0.70581  0.42565  0.59259  1.0000
  C   C1282     1.0  0.70566  0.24716  0.60972  1.0000
  C   C1283     1.0  0.94791  0.29418  0.63495  1.0000
  C   C1284     1.0  0.96463  0.39967  0.86848  1.0000
  H   H1008     1.0  0.65601  0.46891  0.53317  1.0000
  H   H1009     1.0  0.77128  0.33298  0.76858  1.0000
  H   H1010     1.0  0.86398  0.46434  0.38862  1.0000
  C   C1285     1.0  0.65561  0.36492  0.52885  1.0000
  H   H1011     1.0  0.84618  0.37844  0.64882  1.0000
  C   C1286     1.0  0.75526  0.31574  0.68573  1.0000
  S   S178      1.0  0.69868  0.40461  0.70505  1.0000
  Fe  Fe87      1.0  0.78836  0.24643  0.48460  1.0000
  C   C1287     1.0  0.95785  0.29116  0.56372  1.0000
  C   C1288     1.0  0.69657  0.26550  0.67559  1.0000
  C   C1289     1.0  0.75107  0.34245  0.73654  1.0000
  C   C1290     1.0  0.74113  0.34064  0.70349  1.0000
  C   C1291     1.0  0.74383  0.32753  0.67755  1.0000
  P   P44       1.0  0.72637  0.35588  0.69214  1.0000
  C   C1292     1.0  0.72482  0.37058  0.73143  1.0000
  C   C1293     1.0  0.74268  0.37306  0.64535  1.0000
  C   C1294     1.0  0.76545  0.37803  0.63420  1.0000
  C   C1295     1.0  0.77845  0.39194  0.59937  1.0000
  C   C1296     1.0  0.76900  0.40138  0.57579  1.0000
  C   C1297     1.0  0.74652  0.39692  0.58697  1.0000
  C   C1298     1.0  0.73341  0.38284  0.62147  1.0000
  C   C1299     1.0  0.74350  0.38665  0.73295  1.0000
  C   C1300     1.0  0.74248  0.39807  0.76324  1.0000
  C   C1301     1.0  0.72277  0.39377  0.79186  1.0000
  C   C1302     1.0  0.70415  0.37776  0.79077  1.0000
  C   C1303     1.0  0.70519  0.36608  0.76095  1.0000
  C   C1304     1.0  0.69888  0.34084  0.68892  1.0000
  C   C1305     1.0  0.69143  0.32022  0.69537  1.0000
  Fe  Fe88      1.0  0.69835  0.42796  0.74243  1.0000
  S   S179      1.0  0.72053  0.44158  0.78211  1.0000
  C   C1306     1.0  0.66342  0.33819  0.67747  1.0000
  C   C1307     1.0  0.68422  0.34957  0.68168  1.0000
  H   H1012     1.0  0.74998  0.35283  0.75642  1.0000
  H   H1013     1.0  0.81628  0.46723  0.52935  1.0000
  H   H1014     1.0  0.77344  0.37163  0.65292  1.0000
  H   H1015     1.0  0.79604  0.39590  0.59122  1.0000
  H   H1016     1.0  0.77927  0.41257  0.54954  1.0000
  H   H1017     1.0  0.73935  0.40490  0.56966  1.0000
  H   H1018     1.0  0.71631  0.38032  0.62968  1.0000
  H   H1019     1.0  0.75894  0.39040  0.71089  1.0000
  H   H1020     1.0  0.75690  0.41054  0.76404  1.0000
  H   H1021     1.0  0.72187  0.40311  0.81438  1.0000
  H   H1022     1.0  0.68875  0.37469  0.81242  1.0000
  H   H1023     1.0  0.69050  0.35389  0.76060  1.0000
  C   C1308     1.0  0.74860  0.45001  0.75934  1.0000
  C   C1309     1.0  0.76313  0.33109  0.74379  1.0000
  H   H1024     1.0  0.67088  0.38242  0.62719  1.0000
  H   H1025     1.0  0.96639  0.35080  0.75187  1.0000
  H   H1026     1.0  0.68834  0.36509  0.68098  1.0000
  H   H1027     1.0  0.89052  0.31128  0.40877  1.0000
  C   C1310     1.0  0.92062  0.40945  0.46112  1.0000
  C   C1311     1.0  0.96325  0.44180  0.52104  1.0000
  C   C1312     1.0  0.95920  0.40270  0.43941  1.0000
  Fe  Fe89      1.0  0.65755  0.43016  0.72285  1.0000
  C   C1313     1.0  0.67045  0.30887  0.69193  1.0000
  H   H1028     1.0  0.92421  0.34699  0.77887  1.0000
  S   S180      1.0  0.85639  0.41845  0.61060  1.0000
  C   C1314     1.0  0.93630  0.44145  0.85138  1.0000
  H   H1029     1.0  0.88400  0.39852  0.64250  1.0000
  C   C1315     1.0  0.67421  0.26186  0.49826  1.0000
  C   C1316     1.0  0.95787  0.39538  0.75497  1.0000
  H   H1030     1.0  0.88281  0.36351  0.90044  1.0000
  C   C1317     1.0  0.69929  0.42919  0.51612  1.0000
  H   H1031     1.0  0.65168  0.36048  0.50086  1.0000
  C   C1318     1.0  0.97852  0.41679  0.87849  1.0000
  S   S181      1.0  0.90970  0.48088  0.38359  1.0000
  H   H1032     1.0  0.94263  0.37648  0.48521  1.0000
  H   H1033     1.0  0.91699  0.27277  0.67067  1.0000
  C   C1319     1.0  0.80357  0.47508  0.58557  1.0000
  H   H1034     1.0  0.97215  0.39081  0.61161  1.0000
  S   S182      1.0  0.82791  0.43311  0.53041  1.0000
  C   C1320     1.0  0.88748  0.46689  0.42484  1.0000
  C   C1321     1.0  0.92233  0.39302  0.48152  1.0000
  C   C1322     1.0  0.68439  0.24657  0.62419  1.0000
  Fe  Fe90      1.0  0.83211  0.41111  0.67117  1.0000
  H   H1035     1.0  0.91429  0.30841  0.46579  1.0000
  P   P45       1.0  0.95525  0.36926  0.82270  1.0000
  H   H1036     1.0  0.93789  0.32978  0.39988  1.0000
  Fe  Fe91      1.0  0.97655  0.46686  0.39102  1.0000
  H   H1037     1.0  0.75736  0.46507  0.80852  1.0000
  H   H1038     1.0  0.69035  0.37412  0.50428  1.0000
  S   S183      1.0  0.66288  0.41299  0.77465  1.0000
  H   H1039     1.0  0.94753  0.39371  0.88422  1.0000
  H   H1040     1.0  0.83264  0.24298  0.49850  1.0000
  C   C1323     1.0  0.94797  0.37612  0.77676  1.0000
  C   C1324     1.0  0.77909  0.45163  0.70552  1.0000
  H   H1041     1.0  0.75704  0.30552  0.66580  1.0000
  H   H1042     1.0  0.65658  0.45683  0.61648  1.0000
  C   C1325     1.0  0.92416  0.26752  0.60913  1.0000
  H   H1043     1.0  0.93473  0.26639  0.54593  1.0000
  H   H1044     1.0  0.70924  0.24009  0.58430  1.0000
  C   C1326     1.0  0.98027  0.34871  0.84336  1.0000
  Fe  Fe92      1.0  0.66260  0.39123  0.73301  1.0000
  Fe  Fe93      1.0  0.87460  0.44632  0.63142  1.0000
  C   C1327     1.0  0.92675  0.36685  0.72631  1.0000
  C   C1328     1.0  0.79384  0.46311  0.72592  1.0000
  Fe  Fe94      1.0  0.83310  0.45228  0.66773  1.0000
  H   H1045     1.0  0.74503  0.43654  0.70609  1.0000
  C   C1329     1.0  0.92869  0.27754  0.64126  1.0000
  H   H1046     1.0  0.87499  0.33177  0.94386  1.0000
  H   H1047     1.0  0.69310  0.27253  0.70114  1.0000
  C   C1330     1.0  0.86631  0.46072  0.41858  1.0000
  C   C1331     1.0  0.67991  0.25572  0.65718  1.0000
  C   C1332     1.0  0.65877  0.25721  0.47465  1.0000
  S   S184      1.0  0.97238  0.35188  0.60340  1.0000
  S   S185      1.0  0.65345  0.40680  0.68402  1.0000
  H   H1048     1.0  0.89778  0.46171  0.70242  1.0000
  C   C1333     1.0  0.66097  0.48173  0.80823  1.0000
  H   H1049     1.0  0.90665  0.46682  0.46884  1.0000
  H   H1050     1.0  0.69481  0.43221  0.45512  1.0000
  C   C1334     1.0  0.97289  0.39077  0.83803  1.0000
  C   C1335     1.0  0.89460  0.35661  0.89623  1.0000
  C   C1336     1.0  0.85100  0.44585  0.49005  1.0000
  H   H1051     1.0  0.83183  0.44541  0.44594  1.0000
  C   C1337     1.0  0.68756  0.43095  0.48715  1.0000
  H   H1052     1.0  0.94872  0.45431  0.56750  1.0000
  C   C1338     1.0  0.93656  0.38608  0.70496  1.0000
  H   H1053     1.0  0.93682  0.43541  0.41543  1.0000
  C   C1339     1.0  0.84814  0.45004  0.45098  1.0000
  C   C1340     1.0  0.75642  0.44532  0.72194  1.0000
  C   C1341     1.0  0.89024  0.33877  0.92071  1.0000
  C   C1342     1.0  0.89040  0.46221  0.46370  1.0000
  C   C1343     1.0  0.95188  0.40037  0.71960  1.0000
  S   S186      1.0  0.91123  0.46193  0.61472  1.0000
  H   H1054     1.0  0.91488  0.35580  0.71482  1.0000
  C   C1344     1.0  0.96375  0.30948  0.47763  1.0000
  H   H1055     1.0  0.71550  0.42910  0.50635  1.0000
  C   C1345     1.0  0.92798  0.47088  0.72236  1.0000
  H   H1056     1.0  0.87452  0.44873  0.52656  1.0000
  C   C1346     1.0  0.90552  0.32993  0.91518  1.0000
  C   C1347     1.0  0.93878  0.27414  0.57065  1.0000
  H   H1057     1.0  0.94961  0.43830  0.50671  1.0000
  H   H1058     1.0  0.93246  0.38985  0.67683  1.0000
  H   H1059     1.0  0.90206  0.31601  0.93395  1.0000
  C   C1348     1.0  0.94510  0.32411  0.42145  1.0000
  H   H1060     1.0  0.66490  0.29304  0.69691  1.0000
  C   C1349     1.0  0.87215  0.45193  0.49645  1.0000
  H   H1061     1.0  0.91710  0.37924  0.84693  1.0000
  C   C1350     1.0  0.92982  0.35702  0.86096  1.0000
  H   H1062     1.0  0.93050  0.29599  0.51483  1.0000
  C   C1351     1.0  0.92527  0.33901  0.88545  1.0000
  C   C1352     1.0  0.67754  0.37252  0.53072  1.0000
  C   C1353     1.0  0.64991  0.23808  0.46657  1.0000
  H   H1063     1.0  0.97036  0.40661  0.76470  1.0000
  C   C1354     1.0  0.98087  0.27509  0.45789  1.0000
  S   S187      1.0  0.95221  0.47060  0.44164  1.0000
  H   H1064     1.0  0.97875  0.35417  0.87189  1.0000
  H   H1065     1.0  0.78511  0.44795  0.67674  1.0000
  C   C1355     1.0  0.91543  0.46729  0.69304  1.0000
  H   H1066     1.0  0.65746  0.32489  0.77706  1.0000
  H   H1067     1.0  0.95117  0.30231  0.65950  1.0000
  C   C1356     1.0  0.93184  0.31212  0.45836  1.0000
  H   H1068     1.0  0.69308  0.25104  0.53161  1.0000
  C   C1357     1.0  0.66668  0.43133  0.49923  1.0000
  H   H1069     1.0  0.67200  0.30692  0.82192  1.0000
  H   H1070     1.0  0.90887  0.25506  0.61357  1.0000
  H   H1071     1.0  0.91313  0.45271  0.88125  1.0000
  H   H1072     1.0  0.67200  0.47435  0.45940  1.0000
  C   C1358     1.0  0.66912  0.42772  0.56996  1.0000
  H   H1073     1.0  0.85920  0.24824  0.54194  1.0000
  H   H1074     1.0  0.98180  0.43101  0.47776  1.0000
  H   H1075     1.0  0.66200  0.42639  0.60191  1.0000
  H   H1076     1.0  0.97040  0.36758  0.51843  1.0000
  C   C1359     1.0  0.97034  0.35357  0.81346  1.0000
  H   H1077     1.0  0.65221  0.34510  0.67223  1.0000
  C   C1360     1.0  0.65731  0.42957  0.54077  1.0000
  C   C1361     1.0  0.65658  0.31787  0.68234  1.0000
  H   H1078     1.0  0.68110  0.27661  0.50431  1.0000
  C   C1362     1.0  0.81988  0.47698  0.55119  1.0000
  S   S188      1.0  0.96594  0.48000  0.34102  1.0000
  H   H1079     1.0  0.65215  0.24892  0.34840  1.0000
  C   C1363     1.0  0.98121  0.38708  0.63187  1.0000
  C   C1364     1.0  0.95074  0.47634  0.71053  1.0000
  H   H1080     1.0  0.97425  0.40030  0.43137  1.0000
  C   C1365     1.0  0.97700  0.32154  0.44044  1.0000
  H   H1081     1.0  0.79726  0.47709  0.77846  1.0000
  H   H1082     1.0  0.97205  0.42382  0.90145  1.0000
  C   C1366     1.0  0.98016  0.45493  0.57426  1.0000
  C   C1367     1.0  0.96769  0.32883  0.41250  1.0000
  H   H1083     1.0  0.95683  0.48028  0.60779  1.0000
  H   H1084     1.0  0.67492  0.47741  0.80425  1.0000
  H   H1085     1.0  0.97693  0.31408  0.59246  1.0000
  P   P46       1.0  0.97599  0.29995  0.51315  1.0000
  H   H1086     1.0  0.97988  0.46200  0.60073  1.0000
  H   H1087     1.0  0.97673  0.28398  0.43628  1.0000
  H   H1088     1.0  0.97796  0.33820  0.38394  1.0000
  C   C1368     1.0  0.96115  0.48024  0.66910  1.0000
  S   S189      1.0  0.78355  0.23433  0.55027  1.0000
  C   C1369     1.0  0.98148  0.43761  0.50476  1.0000
  S   S190      1.0  0.98118  0.43831  0.38850  1.0000
  C   C1370     1.0  0.98296  0.36874  0.63463  1.0000
  C   C1371     1.0  0.98176  0.27942  0.49712  1.0000
  H   H1089     1.0  0.68396  0.23433  0.77427  1.0000
  H   H1090     1.0  0.89915  0.55715  0.59545  1.0000
  C   C1372     1.0  0.67172  0.49062  0.66273  1.0000
  C   C1373     1.0  0.80832  0.48748  0.61397  1.0000
  C   C1374     1.0  0.89536  0.55767  0.51467  1.0000
  C   C1375     1.0  0.65611  0.56019  0.43781  1.0000
  H   H1091     1.0  0.93938  0.50000  0.47762  1.0000
  C   C1376     1.0  0.87721  0.51381  0.68630  1.0000
  H   H1092     1.0  0.91242  0.58529  0.47355  1.0000
  H   H1093     1.0  0.90834  0.56259  0.66140  1.0000
  H   H1094     1.0  0.89444  0.53491  0.71974  1.0000
  C   C1377     1.0  0.85758  0.56545  0.51610  1.0000
  C   C1378     1.0  0.84105  0.49101  0.54552  1.0000
  C   C1379     1.0  0.66889  0.70252  0.87253  1.0000
  C   C1380     1.0  0.89273  0.54496  0.62060  1.0000
  Fe  Fe95      1.0  0.94355  0.48594  0.39157  1.0000
  H   H1095     1.0  0.70345  0.58746  0.24106  1.0000
  H   H1096     1.0  0.73286  0.50654  0.60733  1.0000
  S   S191      1.0  0.96779  0.51576  0.39274  1.0000
  C   C1381     1.0  0.87198  0.51064  0.64898  1.0000
  C   C1382     1.0  0.89671  0.57496  0.49187  1.0000
  C   C1383     1.0  0.85616  0.54813  0.53891  1.0000
  H   H1097     1.0  0.84293  0.56843  0.51661  1.0000
  C   C1384     1.0  0.84612  0.50322  0.57450  1.0000
  H   H1098     1.0  0.68548  0.53122  0.53127  1.0000
  C   C1385     1.0  0.68226  0.51872  0.51579  1.0000
  H   H1099     1.0  0.69424  0.50779  0.42092  1.0000
  C   C1386     1.0  0.89025  0.53254  0.69085  1.0000
  H   H1100     1.0  0.65824  0.58036  0.38603  1.0000
  H   H1101     1.0  0.91582  0.51090  0.44167  1.0000
  C   C1387     1.0  0.68707  0.49062  0.68512  1.0000
  C   C1388     1.0  0.68991  0.59006  0.25913  1.0000
  C   C1389     1.0  0.91342  0.51015  0.47444  1.0000
  C   C1390     1.0  0.65322  0.52625  0.63311  1.0000
  H   H1102     1.0  0.68164  0.48515  0.71772  1.0000
  H   H1103     1.0  0.65458  0.48539  0.67854  1.0000
  P   P47       1.0  0.87336  0.52167  0.56721  1.0000
  H   H1104     1.0  0.68439  0.53321  0.05036  1.0000
  C   C1391     1.0  0.67345  0.61256  0.28223  1.0000
  C   C1392     1.0  0.89803  0.54811  0.65799  1.0000
  H   H1105     1.0  0.70486  0.62141  0.23976  1.0000
  C   C1393     1.0  0.69112  0.52166  0.47375  1.0000
  C   C1394     1.0  0.69074  0.60918  0.25847  1.0000
  C   C1395     1.0  0.67166  0.57427  0.28312  1.0000
  H   H1106     1.0  0.67382  0.49958  0.03438  1.0000
  H   H1107     1.0  0.67145  0.55961  0.28340  1.0000
  C   C1396     1.0  0.90668  0.50698  0.55925  1.0000
  C   C1397     1.0  0.87952  0.52617  0.61588  1.0000
  H   H1108     1.0  0.70602  0.50691  0.56747  1.0000
  C   C1398     1.0  0.87783  0.57884  0.49253  1.0000
  C   C1399     1.0  0.87504  0.54406  0.53816  1.0000
  H   H1109     1.0  0.66275  0.52301  0.65290  1.0000
  C   C1400     1.0  0.89356  0.51374  0.53924  1.0000
  C   C1401     1.0  0.92664  0.50387  0.49457  1.0000
  H   H1110     1.0  0.91016  0.55489  0.51391  1.0000
  H   H1111     1.0  0.87889  0.59220  0.47470  1.0000
  C   C1402     1.0  0.71585  0.50252  0.62283  1.0000
  C   C1403     1.0  0.89696  0.51513  0.49664  1.0000
  H   H1112     1.0  0.84033  0.53794  0.55693  1.0000
  H   H1113     1.0  0.86215  0.49597  0.64599  1.0000
  H   H1114     1.0  0.85345  0.49175  0.51919  1.0000
  C   C1404     1.0  0.92325  0.50223  0.53683  1.0000
  C   C1405     1.0  0.66944  0.49973  0.53775  1.0000
  H   H1115     1.0  0.72089  0.49586  0.68251  1.0000
  C   C1406     1.0  0.82943  0.50158  0.60838  1.0000
  H   H1116     1.0  0.70101  0.53630  0.45693  1.0000
  H   H1117     1.0  0.88691  0.52003  0.48050  1.0000
  H   H1118     1.0  0.83275  0.51085  0.63111  1.0000
  C   C1407     1.0  0.65522  0.59682  0.30637  1.0000
  C   C1408     1.0  0.68735  0.50565  0.45344  1.0000
  H   H1119     1.0  0.90428  0.50523  0.59205  1.0000
  H   H1120     1.0  0.68041  0.51233  0.78569  1.0000
  C   C1409     1.0  0.67834  0.49679  0.62021  1.0000
  H   H1121     1.0  0.66364  0.55477  0.21040  1.0000
  C   C1410     1.0  0.65397  0.57749  0.30633  1.0000
  C   C1411     1.0  0.66402  0.50136  0.79768  1.0000
  C   C1412     1.0  0.70053  0.50267  0.60032  1.0000
  C   C1413     1.0  0.68466  0.71163  0.89344  1.0000
  H   H1122     1.0  0.87113  0.50160  0.71153  1.0000
  C   C1414     1.0  0.66779  0.52264  0.06257  1.0000
  Fe  Fe96      1.0  0.97855  0.49982  0.43870  1.0000
  C   C1415     1.0  0.67844  0.71730  0.93052  1.0000
  H   H1123     1.0  0.67392  0.69815  0.84389  1.0000
  C   C1416     1.0  0.65650  0.71408  0.94644  1.0000
  H   H1124     1.0  0.70167  0.71410  0.88115  1.0000
  H   H1125     1.0  0.67417  0.62742  0.28199  1.0000
  C   C1417     1.0  0.66183  0.50372  0.05344  1.0000
  P   P48       1.0  0.65808  0.49626  0.59192  1.0000
  C   C1418     1.0  0.66576  0.48373  0.51713  1.0000
  C   C1419     1.0  0.70914  0.49656  0.66522  1.0000
  H   H1126     1.0  0.66738  0.57132  0.45012  1.0000
  H   H1127     1.0  0.93343  0.49706  0.55221  1.0000
  H   H1128     1.0  0.97875  0.48510  0.65960  1.0000
  H   H1129     1.0  0.69053  0.72401  0.94722  1.0000
  H   H1130     1.0  0.65980  0.72951  0.69782  1.0000
  C   C1420     1.0  0.67478  0.48674  0.47516  1.0000
  H   H1131     1.0  0.65703  0.54291  0.09270  1.0000
  H   H1132     1.0  0.65094  0.66276  0.88244  1.0000
  S   S192      1.0  0.98298  0.51126  0.49686  1.0000
  H   H1133     1.0  0.65151  0.71806  0.97564  1.0000
  C   C1421     1.0  0.65412  0.73144  0.76177  1.0000
  C   C1422     1.0  0.65229  0.52802  0.08693  1.0000
  C   C1423     1.0  0.65350  0.72141  0.72882  1.0000
  C   C1424     1.0  0.65089  0.56524  0.40144  1.0000
  H   H1134     1.0  0.65115  0.53670  0.48593  1.0000
  H   H1135     1.0  0.79578  0.48585  0.64097  1.0000
  C   C1425     1.0  0.68360  0.95676  0.08214  1.0000
  H   H1136     1.0  0.68922  0.84295  0.04434  1.0000
  H   H1137     1.0  0.72802  0.85230  0.04588  1.0000
  H   H1138     1.0  0.67283  0.84474  0.17316  1.0000
  C   C1426     1.0  0.72230  0.85381  0.11002  1.0000
  H   H1139     1.0  0.67289  0.94737  0.14724  1.0000
  C   C1427     1.0  0.66790  0.94717  0.11872  1.0000
  C   C1428     1.0  0.71591  0.85063  0.07360  1.0000
  H   H1140     1.0  0.70051  0.96460  0.08252  1.0000
  C   C1429     1.0  0.70668  0.85168  0.14574  1.0000
  C   C1430     1.0  0.67745  0.95634  0.04507  1.0000
  H   H1141     1.0  0.67910  0.87521  0.05920  1.0000
  C   C1431     1.0  0.67807  0.84298  0.10870  1.0000
  H   H1142     1.0  0.73936  0.85791  0.11057  1.0000
  C   C1432     1.0  0.68464  0.84632  0.14514  1.0000
  H   H1143     1.0  0.71163  0.85410  0.17400  1.0000
  C   C1433     1.0  0.69389  0.84525  0.07288  1.0000
  H   H1144     1.0  0.68944  0.96401  0.01669  1.0000
  H   H1145     1.0  0.66201  0.80295  0.09143  1.0000
  C   C1434     1.0  0.65565  0.94625  0.04457  1.0000
  H   H1146     1.0  0.67168  0.90316  0.02996  1.0000
  C   C1435     1.0  0.66251  0.87458  0.06611  1.0000
  C   C1436     1.0  0.65842  0.89051  0.04936  1.0000
  H   H1147     1.0  0.66988  0.88287  0.15926  1.0000
  H   H1148     1.0  0.65296  0.77944  0.04447  1.0000
  C   C1437     1.0  0.65887  0.88771  0.17907  1.0000
  H   H1149     1.0  0.66089  0.74732  0.75635  1.0000
  H   H1150     1.0  0.65905  0.87078  0.23415  1.0000
  C   C1438     1.0  0.65201  0.80455  0.07097  1.0000
  H   H1151     1.0  0.65459  0.90487  0.12950  1.0000
  C   C1439     1.0  0.65281  0.88094  0.22117  1.0000
  C   C1440     1.0  0.65020  0.90030  0.16230  1.0000
  H   H1152     1.0  0.65080  0.94609  0.01586  1.0000
