data_image0
_chemical_formula_structural       CFeSCSFeS2FeSHFeSFeS3HC7H2CHCH4C3HC6H2C3HCHCH2CHCHSH2CFeH2CH2C3HCH3CHC2HCH2CHCH2CH4SC4HCHC4H3C6PCHCH2C2HC4H2CHCH2CH2C2HC3H4C3HCPHC2FeS2H2C2FeSHSHPHS2HSCHC6H6CHC2HC3H4CPC3HCHC4H2C4HC2HCH4CHSHCHCHC2H3C3H2CHC6H2FeH3C2HC3SFeHFeH2FeS2HFeCS3CFeCH2SFe2S2CHSHC7H5C3HCHFeC7HCHCHCS2H2CH2PC10HC2HC2PCH2C3H7C2H4CHC13H2CH2CH4C2HSCHC4H3SHCSC4H2CH2C3H2C6HC2HC2H2SCH2C4H2SCH2SPSC2HC2H2C2H3CSHC2HFeC2HC3H3CH4CH7C5HS3CFeSFe2S2FeC2HFeHS2CH3SC6H2C2HC2SHC3SHC6H5C2HCH2C6PC8H2C4H2C2H7CH3PH3CH4C3HCH2C2HCSCFeCH2CHCHC2HCSH2SFeHC3HCH2C2HC3H4CSHCHC4HC2HCH3SCH3CH5C3HC9HCHFeC2PC3HS2HC3HPH2CSPHCH2FeC2SCHC3HC3HFeS3C2HFeSHCS2C2FeS2FeSFeCSCHPC6H4C6H4PHC7H5CHCHCSHCHCH5C2HCPC3FeCH2CH4C3H2CSCSC5H3C8H2CHCSCH2CH2CH4C2H2C2HCHCH2C2HCHC2HCFeC3HCH2CHC2H2C4H4CH2CHC2H2SCHCH2PC6HC4H5C3HCH4CH2CH2C3HC5H2FeS2FeCFeSHSFeS2FeS2FeCFeS4CHC6H4C3HC2H2C7H4FeHCHC4H3C3HCHC6H2C6PH4C2H2CHSC3H5C3HSC2HC2HC2H2CHPHC2HC3H2CH2C4HCHCHSH2C2HC6PC18H12SH7C5HCH2CHCHCHPHC2HC2HC2HCH2C3HC2HSHC2H2SCHC2HFeH2CHC2H3CH3C3HC5H4C5HCSCH2FeS2FeSCSCFeS2FeS2FeSFeS2HC6H3C6H4C6H4C7H4C5H2CHC4H2CH2C4HCHFeH4SCHC3H4C5HCHCHCHCHCH3PH2C3HCH2C2HC9PC2H2CH2C7H2C3H3C2HCHCH8CHCSC6H3CH5C2PC4H2C5HC2HC2H5CHC3H6C6HCHC2HCH4PCHCPHC3HC2H2CHCHCFeH2SH2C3H5FeS2FeS2FeSFeS2C2FeSCFeS2Fe2S3C6H4CHPC6H4C6H3C6SH5C5H3C3HC2HC4H3CH2C3H3C2PC4HCHC6H4C3H2CSC2H7CHCH2C6PC7HC6HCH8CH6C4H5CHC6PC12HC2HC3H4CHCH2CH7C8PCH2C3HCSCHC2HCH3CH3CHCH3CH3SHC4HCHC3HCH4S2FeSHS3FeCFeS2H5C12HCH2C3HC2H3C5H2CH2C2H3CHCH2C3HC2H3CHC8FeH2C3H2CHCH2C4HC2H2PC2PHC2HC3HSC2PC6HCHCH4CHCSCHCH4C3H2CHC2H2CH2CHC5HC3HC3HCHPH3C3H4CH2C3H2C3PHCSCH3CSH2SCH4CSFeSCS3Fe2SC8HC2SCH2CSCH2C5H2C3HCHC2HPCSCH3CH2C2HCFeCHCFeC2PHFeH4C8H3C2SC3H2CHC11H2CH10CHCH2PH2SHC3H2CHCH2C2HCHC2Fe2CHC4FeCHC2H4PHC3H2C3HC2HCH3C2HSCH2CS2C2FeCH3C2H4C5H2CHCHSCHCH7SHCSCFeSFeSHSC7HCFeH4C2H2C3HC2HCPH3C7H4C2H2C2HC2HCFeH2CHC2H6CHC4H4CH2C2FeHSCHFeH2CHSCHCH2C2SCHCHC4H3CH2CHC2H3C6HCFeCHC2HCHCH6C2HC4H2C3
_chemical_formula_sum              "C1200 Fe80 S160 H960 P40"
_cell_length_a       49.4437
_cell_length_b       39.3276
_cell_length_c       39.3039
_cell_angle_alpha    89.9194
_cell_angle_beta     105.998
_cell_angle_gamma    89.7006

_space_group_name_H-M_alt    "P 1"
_space_group_IT_number       1

loop_
  _space_group_symop_operation_xyz
  'x, y, z'

loop_
  _atom_site_type_symbol
  _atom_site_label
  _atom_site_symmetry_multiplicity
  _atom_site_fract_x
  _atom_site_fract_y
  _atom_site_fract_z
  _atom_site_occupancy
  C   C1        1.0  0.03335  0.04937  0.42418  1.0000
  Fe  Fe1       1.0  0.00893  0.22541  0.41475  1.0000
  S   S1        1.0  0.04347  0.25529  0.39924  1.0000
  C   C2        1.0  0.31200  0.08549  0.22192  1.0000
  S   S2        1.0  0.00985  0.16776  0.41415  1.0000
  Fe  Fe2       1.0  0.05621  0.39680  0.25244  1.0000
  S   S3        1.0  0.09540  0.37495  0.24213  1.0000
  S   S4        1.0  0.02698  0.37256  0.28167  1.0000
  Fe  Fe3       1.0  0.05870  0.46147  0.20887  1.0000
  S   S5        1.0  0.09768  0.44379  0.19571  1.0000
  H   H1        1.0  0.99999  0.38895  0.41948  1.0000
  Fe  Fe4       1.0  0.07664  0.39262  0.18573  1.0000
  S   S6        1.0  0.08011  0.36432  0.13626  1.0000
  Fe  Fe5       1.0  0.11273  0.42820  0.25295  1.0000
  S   S7        1.0  0.15791  0.44010  0.28393  1.0000
  S   S8        1.0  0.03648  0.41142  0.19525  1.0000
  S   S9        1.0  0.07480  0.44886  0.26676  1.0000
  H   H2        1.0  0.99889  0.11779  0.35292  1.0000
  C   C3        1.0  0.06583  0.40788  0.41330  1.0000
  C   C4        1.0  0.05337  0.34085  0.10603  1.0000
  C   C5        1.0  0.05885  0.32733  0.07543  1.0000
  C   C6        1.0  0.03859  0.30763  0.05132  1.0000
  C   C7        1.0  0.01285  0.30051  0.05800  1.0000
  C   C8        1.0  0.00737  0.31401  0.08861  1.0000
  C   C9        1.0  0.02729  0.33460  0.11215  1.0000
  H   H3        1.0  0.07902  0.33175  0.07050  1.0000
  H   H4        1.0  0.04319  0.29703  0.02817  1.0000
  C   C10       1.0  0.02192  0.38538  0.42036  1.0000
  H   H5        1.0  0.02288  0.34466  0.13566  1.0000
  C   C11       1.0  0.16660  0.46861  0.32030  1.0000
  H   H6        1.0  0.98726  0.11427  0.12005  1.0000
  H   H7        1.0  0.98871  0.33968  0.31399  1.0000
  H   H8        1.0  0.07179  0.32321  0.43375  1.0000
  H   H9        1.0  0.02470  0.44387  0.07351  1.0000
  C   C12       1.0  0.14581  0.48469  0.33254  1.0000
  C   C13       1.0  0.03429  0.35321  0.42780  1.0000
  C   C14       1.0  0.01779  0.02443  0.40212  1.0000
  H   H10       1.0  0.12391  0.47955  0.31996  1.0000
  C   C15       1.0  0.03841  0.28727  0.36577  1.0000
  C   C16       1.0  0.06168  0.29880  0.35491  1.0000
  C   C17       1.0  0.05864  0.32455  0.32897  1.0000
  C   C18       1.0  0.03227  0.33942  0.31389  1.0000
  C   C19       1.0  0.00910  0.32808  0.32499  1.0000
  C   C20       1.0  0.01204  0.30198  0.35043  1.0000
  H   H11       1.0  0.08222  0.28773  0.36668  1.0000
  H   H12       1.0  0.07673  0.33310  0.32097  1.0000
  C   C21       1.0  0.08895  0.44403  0.09075  1.0000
  C   C22       1.0  0.19503  0.47542  0.33728  1.0000
  C   C23       1.0  0.01437  0.46843  0.07078  1.0000
  H   H13       1.0  0.21052  0.03317  0.20403  1.0000
  C   C24       1.0  0.11023  0.40899  0.35491  1.0000
  H   H14       1.0  0.07759  0.39602  0.06545  1.0000
  C   C25       1.0  0.11473  0.42415  0.38832  1.0000
  H   H15       1.0  0.14585  0.43353  0.43839  1.0000
  H   H16       1.0  0.01982  0.06601  0.33442  1.0000
  C   C26       1.0  0.19972  0.46914  0.22702  1.0000
  H   H17       1.0  0.25078  0.03368  0.17839  1.0000
  C   C27       1.0  0.20262  0.49755  0.36661  1.0000
  H   H18       1.0  0.01850  0.16058  0.11215  1.0000
  S   S10       1.0  0.98774  0.27311  0.03037  1.0000
  H   H19       1.0  0.21721  0.01526  0.26638  1.0000
  H   H20       1.0  0.12938  0.38417  0.31848  1.0000
  C   C28       1.0  0.09081  0.47908  0.08636  1.0000
  Fe  Fe6       1.0  0.99793  0.16964  0.46568  1.0000
  H   H21       1.0  0.06467  0.45982  0.46267  1.0000
  H   H22       1.0  0.15769  0.46300  0.19324  1.0000
  C   C29       1.0  0.02463  0.22772  0.30410  1.0000
  H   H23       1.0  0.02757  0.43728  0.40690  1.0000
  H   H24       1.0  0.23969  0.48238  0.26276  1.0000
  C   C30       1.0  0.03762  0.41266  0.41325  1.0000
  C   C31       1.0  0.07280  0.47233  0.02281  1.0000
  C   C32       1.0  0.23496  0.01539  0.25520  1.0000
  H   H25       1.0  0.00835  0.45049  0.28985  1.0000
  C   C33       1.0  0.11947  0.49450  0.43801  1.0000
  H   H26       1.0  0.08934  0.40782  0.33675  1.0000
  H   H27       1.0  0.99606  0.13164  0.00762  1.0000
  H   H28       1.0  0.04595  0.22648  0.32127  1.0000
  C   C34       1.0  0.01294  0.38937  0.01955  1.0000
  H   H29       1.0  0.04063  0.23411  0.12741  1.0000
  C   C35       1.0  0.15336  0.50738  0.36121  1.0000
  C   C36       1.0  0.07819  0.37552  0.42136  1.0000
  H   H30       1.0  0.07889  0.27486  0.15280  1.0000
  C   C37       1.0  0.04122  0.44755  0.33877  1.0000
  H   H31       1.0  0.09827  0.49532  0.10929  1.0000
  H   H32       1.0  0.09515  0.43294  0.11706  1.0000
  C   C38       1.0  0.15996  0.39614  0.36744  1.0000
  H   H33       1.0  0.31435  0.13892  0.23463  1.0000
  C   C39       1.0  0.03952  0.24989  0.14953  1.0000
  H   H34       1.0  0.99244  0.06024  0.47988  1.0000
  H   H35       1.0  0.14303  0.34181  0.02841  1.0000
  C   C40       1.0  0.07020  0.43709  0.02706  1.0000
  H   H36       1.0  0.29137  0.08295  0.22605  1.0000
  H   H37       1.0  0.02838  0.39092  0.04495  1.0000
  H   H38       1.0  0.03622  0.25654  0.26425  1.0000
  H   H39       1.0  0.02450  0.01523  0.37973  1.0000
  S   S11       1.0  0.00157  0.22657  0.46910  1.0000
  C   C41       1.0  0.16450  0.41014  0.40117  1.0000
  C   C42       1.0  0.01614  0.24817  0.16300  1.0000
  C   C43       1.0  0.00911  0.48660  0.03896  1.0000
  C   C44       1.0  0.00703  0.48231  0.09966  1.0000
  H   H40       1.0  0.03580  0.08192  0.46899  1.0000
  C   C45       1.0  0.99946  0.04954  0.45839  1.0000
  H   H41       1.0  0.31695  0.04715  0.14139  1.0000
  C   C46       1.0  0.14191  0.42356  0.41186  1.0000
  C   C47       1.0  0.06344  0.46449  0.36269  1.0000
  C   C48       1.0  0.28087  0.01535  0.22614  1.0000
  C   C49       1.0  0.06244  0.34838  0.42857  1.0000
  H   H42       1.0  0.03491  0.30966  0.22632  1.0000
  H   H43       1.0  0.21128  0.46320  0.32794  1.0000
  H   H44       1.0  0.07603  0.31215  0.20215  1.0000
  C   C50       1.0  0.06947  0.49815  0.35532  1.0000
  C   C51       1.0  0.03607  0.29257  0.20508  1.0000
  C   C52       1.0  0.02417  0.06193  0.45231  1.0000
  C   C53       1.0  0.17269  0.48052  0.20934  1.0000
  C   C54       1.0  0.06114  0.27279  0.16386  1.0000
  C   C55       1.0  0.01415  0.26970  0.19074  1.0000
  P   P1        1.0  0.08535  0.44244  0.40100  1.0000
  C   C56       1.0  0.09687  0.47258  0.43695  1.0000
  H   H45       1.0  0.13116  0.49248  0.41858  1.0000
  C   C57       1.0  0.99718  0.06843  0.32835  1.0000
  H   H46       1.0  0.17750  0.38640  0.35876  1.0000
  H   H47       1.0  0.03689  0.42105  0.34269  1.0000
  C   C58       1.0  0.00280  0.21301  0.31508  1.0000
  C   C59       1.0  0.13279  0.39508  0.34458  1.0000
  H   H48       1.0  0.18558  0.41087  0.41892  1.0000
  C   C60       1.0  0.05945  0.29400  0.19166  1.0000
  C   C61       1.0  0.08224  0.47608  0.46275  1.0000
  C   C62       1.0  0.07880  0.42312  0.06131  1.0000
  C   C63       1.0  0.99124  0.24728  0.24981  1.0000
  H   H49       1.0  0.20555  0.44285  0.22460  1.0000
  H   H50       1.0  0.05217  0.05949  0.41900  1.0000
  C   C64       1.0  0.08303  0.49315  0.05238  1.0000
  H   H51       1.0  0.09978  0.37081  0.42141  1.0000
  C   C65       1.0  0.25405  0.02557  0.20560  1.0000
  H   H52       1.0  0.02200  0.33177  0.43238  1.0000
  H   H53       1.0  0.99397  0.29361  0.35857  1.0000
  C   C66       1.0  0.02493  0.46423  0.30855  1.0000
  H   H54       1.0  0.01168  0.46856  0.12458  1.0000
  H   H55       1.0  0.01552  0.47579  0.01711  1.0000
  C   C67       1.0  0.21888  0.49139  0.24865  1.0000
  C   C68       1.0  0.01894  0.24491  0.27170  1.0000
  H   H56       1.0  0.00731  0.20014  0.34045  1.0000
  C   C69       1.0  0.12089  0.34169  0.01415  1.0000
  C   C70       1.0  0.99293  0.01220  0.40791  1.0000
  C   C71       1.0  0.09034  0.50073  0.48926  1.0000
  H   H57       1.0  0.98764  0.30836  0.09423  1.0000
  H   H58       1.0  0.99952  0.23054  0.15121  1.0000
  H   H59       1.0  0.22456  0.50211  0.37982  1.0000
  H   H60       1.0  0.11521  0.39479  0.02267  1.0000
  C   C72       1.0  0.03104  0.49772  0.30146  1.0000
  C   C73       1.0  0.23119  0.02547  0.22009  1.0000
  C   C74       1.0  0.99593  0.16310  0.10122  1.0000
  H   H61       1.0  0.99847  0.21226  0.07767  1.0000
  C   C75       1.0  0.10499  0.37165  0.01101  1.0000
  P   P2        1.0  0.31029  0.01559  0.20725  1.0000
  H   H62       1.0  0.29616  0.03400  0.07861  1.0000
  C   C76       1.0  0.30309  0.02555  0.13455  1.0000
  C   C77       1.0  0.29120  0.01828  0.09872  1.0000
  Fe  Fe7       1.0  0.03831  0.04651  0.75958  1.0000
  S   S12       1.0  0.08193  0.06513  0.76361  1.0000
  S   S13       1.0  0.00904  0.06990  0.78963  1.0000
  H   H63       1.0  0.01923  0.46346  0.94861  1.0000
  H   H64       1.0  0.00737  0.24708  0.67516  1.0000
  C   C78       1.0  0.05266  0.46343  0.88389  1.0000
  C   C79       1.0  0.10718  0.15127  0.78458  1.0000
  Fe  Fe8       1.0  0.06787  0.06346  0.70370  1.0000
  S   S14       1.0  0.07336  0.10950  0.67071  1.0000
  H   H65       1.0  0.01855  0.26858  0.62137  1.0000
  S   S15       1.0  0.02404  0.04649  0.69993  1.0000
  H   H66       1.0  0.00222  0.32016  0.81551  1.0000
  P   P3        1.0  0.05533  0.40991  0.98940  1.0000
  H   H67       1.0  0.11527  0.12726  0.77794  1.0000
  S   S16       1.0  0.03057  0.20356  0.88642  1.0000
  S   S17       1.0  0.00072  0.45395  0.80387  1.0000
  H   H68       1.0  0.02574  0.21634  0.80697  1.0000
  S   S18       1.0  0.00198  0.28186  0.93152  1.0000
  C   C80       1.0  0.02463  0.28221  0.75023  1.0000
  H   H69       1.0  0.02217  0.39637  0.84865  1.0000
  C   C81       1.0  0.05351  0.11510  0.62588  1.0000
  C   C82       1.0  0.03407  0.09084  0.60828  1.0000
  C   C83       1.0  0.01950  0.09540  0.57231  1.0000
  C   C84       1.0  0.02387  0.12440  0.55354  1.0000
  C   C85       1.0  0.04288  0.14903  0.57129  1.0000
  C   C86       1.0  0.05756  0.14441  0.60731  1.0000
  H   H70       1.0  0.03068  0.06822  0.62222  1.0000
  H   H71       1.0  0.04156  0.34037  0.96364  1.0000
  H   H72       1.0  0.04681  0.17122  0.55710  1.0000
  H   H73       1.0  0.07256  0.16332  0.62067  1.0000
  H   H74       1.0  0.09062  0.40391  0.93998  1.0000
  H   H75       1.0  0.06609  0.03537  0.59296  1.0000
  C   C87       1.0  0.03327  0.47228  0.90239  1.0000
  H   H76       1.0  0.08811  0.43187  0.88304  1.0000
  C   C88       1.0  0.01560  0.10771  0.81561  1.0000
  C   C89       1.0  0.01984  0.39749  0.98816  1.0000
  H   H77       1.0  0.13168  0.01020  0.85698  1.0000
  C   C90       1.0  0.02440  0.16671  0.85906  1.0000
  C   C91       1.0  0.04586  0.15376  0.84540  1.0000
  C   C92       1.0  0.04148  0.12455  0.82367  1.0000
  H   H78       1.0  0.06980  0.28791  0.96918  1.0000
  H   H79       1.0  0.13969  0.15661  0.83354  1.0000
  H   H80       1.0  0.06607  0.16623  0.85185  1.0000
  H   H81       1.0  0.05827  0.11482  0.81361  1.0000
  C   C93       1.0  0.12108  0.16796  0.81577  1.0000
  P   P4        1.0  0.04140  0.21545  0.73992  1.0000
  C   C94       1.0  0.07967  0.31132  0.98080  1.0000
  C   C95       1.0  0.05507  0.43163  0.94868  1.0000
  C   C96       1.0  0.08281  0.16539  0.76189  1.0000
  H   H82       1.0  0.00443  0.39701  0.93073  1.0000
  C   C97       1.0  0.00922  0.30027  0.80081  1.0000
  H   H83       1.0  0.12174  0.21219  0.84818  1.0000
  C   C98       1.0  0.03458  0.45665  0.93479  1.0000
  C   C99       1.0  0.05028  0.23274  0.70174  1.0000
  C   C100      1.0  0.08692  0.21383  0.80101  1.0000
  C   C101      1.0  0.06262  0.25646  0.64029  1.0000
  H   H84       1.0  0.07981  0.23831  0.80776  1.0000
  H   H85       1.0  0.00205  0.20311  0.55162  1.0000
  C   C102      1.0  0.07238  0.19677  0.77000  1.0000
  C   C103      1.0  0.99953  0.39262  0.95556  1.0000
  C   C104      1.0  0.07615  0.37149  0.99318  1.0000
  C   C105      1.0  0.02750  0.24848  0.76280  1.0000
  H   H86       1.0  0.00494  0.07612  0.55882  1.0000
  C   C106      1.0  0.06368  0.34117  0.97777  1.0000
  C   C107      1.0  0.07341  0.43904  0.89779  1.0000
  H   H87       1.0  0.05111  0.47486  0.85828  1.0000
  C   C108      1.0  0.08402  0.24299  0.66814  1.0000
  H   H88       1.0  0.05828  0.04062  0.52817  1.0000
  H   H89       1.0  0.09486  0.22058  0.71983  1.0000
  H   H90       1.0  0.07240  0.15184  0.73790  1.0000
  H   H91       1.0  0.07914  0.50313  0.50928  1.0000
  C   C109      1.0  0.11098  0.19926  0.82395  1.0000
  H   H92       1.0  0.03237  0.17033  0.67832  1.0000
  S   S19       1.0  0.08465  0.01029  0.70223  1.0000
  H   H93       1.0  0.01671  0.49051  0.89098  1.0000
  C   C110      1.0  0.07466  0.42314  0.93006  1.0000
  H   H94       1.0  0.29980  0.49862  0.58011  1.0000
  C   C111      1.0  0.05726  0.01581  0.53983  1.0000
  H   H95       1.0  0.06735  0.26523  0.61640  1.0000
  C   C112      1.0  0.03510  0.25828  0.64309  1.0000
  C   C113      1.0  0.01697  0.18101  0.72403  1.0000
  H   H96       1.0  0.01308  0.08350  0.97808  1.0000
  H   H97       1.0  0.06675  0.48401  0.99691  1.0000
  H   H98       1.0  0.10532  0.24122  0.66579  1.0000
  C   C114      1.0  0.02887  0.24617  0.67354  1.0000
  C   C115      1.0  0.01768  0.16340  0.69311  1.0000
  C   C116      1.0  0.07795  0.23126  0.69884  1.0000
  H   H99       1.0  0.01381  0.33386  0.75954  1.0000
  H   H100      1.0  0.12048  0.28825  0.00176  1.0000
  C   C117      1.0  0.02181  0.24138  0.79520  1.0000
  H   H101      1.0  0.99864  0.35048  0.87350  1.0000
  C   C118      1.0  0.99840  0.15037  0.85033  1.0000
  C   C119      1.0  0.99953  0.39657  0.84356  1.0000
  C   C120      1.0  0.01238  0.26703  0.81382  1.0000
  C   C121      1.0  0.06145  0.01297  0.57635  1.0000
  C   C122      1.0  0.99405  0.12107  0.82884  1.0000
  C   C123      1.0  0.01557  0.30791  0.76917  1.0000
  H   H102      1.0  0.03009  0.28922  0.72641  1.0000
  H   H103      1.0  0.99444  0.17802  0.60609  1.0000
  Fe  Fe9       1.0  0.99680  0.22870  0.90796  1.0000
  H   H104      1.0  0.00226  0.12091  0.65897  1.0000
  H   H105      1.0  0.99845  0.18130  0.76811  1.0000
  H   H106      1.0  0.00821  0.26120  0.83889  1.0000
  C   C124      1.0  0.99889  0.16951  0.74356  1.0000
  C   C125      1.0  0.98902  0.21625  0.56559  1.0000
  H   H107      1.0  0.31702  0.47013  0.63858  1.0000
  C   C126      1.0  0.99101  0.09060  0.97004  1.0000
  C   C127      1.0  0.00060  0.13509  0.68197  1.0000
  C   C128      1.0  0.10822  0.31152  0.99914  1.0000
  S   S20       1.0  0.00556  0.12767  0.50788  1.0000
  Fe  Fe10      1.0  0.09379  0.00954  0.76196  1.0000
  H   H108      1.0  0.98762  0.37722  0.63507  1.0000
  Fe  Fe11      1.0  0.08494  0.73708  0.05439  1.0000
  H   H109      1.0  0.14483  0.92669  0.03326  1.0000
  H   H110      1.0  0.22599  0.54151  0.27031  1.0000
  Fe  Fe12      1.0  0.07515  0.66919  0.08844  1.0000
  S   S21       1.0  0.03008  0.66655  0.05663  1.0000
  S   S22       1.0  0.09741  0.62666  0.12476  1.0000
  H   H111      1.0  0.00578  0.62731  0.19015  1.0000
  Fe  Fe13      1.0  0.02908  0.72266  0.06970  1.0000
  C   C129      1.0  0.26798  0.96926  0.11466  1.0000
  S   S23       1.0  0.09124  0.68263  0.04196  1.0000
  S   S24       1.0  0.07337  0.72390  0.10445  1.0000
  S   S25       1.0  0.11192  0.78328  0.05215  1.0000
  C   C130      1.0  0.13958  0.91121  0.00960  1.0000
  Fe  Fe14      1.0  0.28595  0.89298  0.03939  1.0000
  C   C131      1.0  0.99766  0.78032  0.11882  1.0000
  H   H112      1.0  0.08971  0.72821  0.45559  1.0000
  H   H113      1.0  0.05480  0.55540  0.42072  1.0000
  S   S26       1.0  0.04210  0.79012  0.45530  1.0000
  Fe  Fe15      1.0  0.23212  0.56135  0.44926  1.0000
  Fe  Fe16      1.0  0.27898  0.61433  0.45253  1.0000
  S   S27       1.0  0.27656  0.55756  0.44439  1.0000
  S   S28       1.0  0.23343  0.61853  0.45172  1.0000
  C   C132      1.0  0.01476  0.80922  0.42145  1.0000
  H   H114      1.0  0.28825  0.83373  0.12551  1.0000
  S   S29       1.0  0.99397  0.90760  0.28106  1.0000
  H   H115      1.0  0.14508  0.61620  0.30889  1.0000
  C   C133      1.0  0.16873  0.70517  0.47253  1.0000
  C   C134      1.0  0.03538  0.92709  0.45946  1.0000
  C   C135      1.0  0.16058  0.73296  0.48953  1.0000
  C   C136      1.0  0.00595  0.76183  0.23330  1.0000
  C   C137      1.0  0.00322  0.83633  0.16598  1.0000
  C   C138      1.0  0.02644  0.82382  0.15560  1.0000
  C   C139      1.0  0.02374  0.79600  0.13230  1.0000
  H   H116      1.0  0.19080  0.69814  0.47841  1.0000
  H   H117      1.0  0.01668  0.57534  0.15629  1.0000
  H   H118      1.0  0.04673  0.83578  0.16564  1.0000
  H   H119      1.0  0.04185  0.78691  0.12455  1.0000
  H   H120      1.0  0.21243  0.58236  0.37352  1.0000
  C   C140      1.0  0.28453  0.00552  0.26150  1.0000
  C   C141      1.0  0.99172  0.67986  0.18612  1.0000
  C   C142      1.0  0.27594  0.79220  0.08898  1.0000
  H   H121      1.0  0.26992  0.75092  0.05196  1.0000
  C   C143      1.0  0.08907  0.59834  0.23690  1.0000
  H   H122      1.0  0.09757  0.90051  0.01235  1.0000
  Fe  Fe17      1.0  0.28961  0.55444  0.50441  1.0000
  C   C144      1.0  0.05217  0.94745  0.41042  1.0000
  C   C145      1.0  0.07918  0.59397  0.13994  1.0000
  C   C146      1.0  0.05110  0.59773  0.14030  1.0000
  C   C147      1.0  0.03814  0.57211  0.15531  1.0000
  C   C148      1.0  0.05292  0.54240  0.16949  1.0000
  C   C149      1.0  0.08073  0.53836  0.16824  1.0000
  C   C150      1.0  0.09382  0.56410  0.15370  1.0000
  H   H123      1.0  0.03963  0.62068  0.12984  1.0000
  C   C151      1.0  0.10930  0.65254  0.37761  1.0000
  H   H124      1.0  0.11553  0.56113  0.15357  1.0000
  C   C152      1.0  0.07694  0.86669  0.48916  1.0000
  H   H125      1.0  0.14780  0.83815  0.04557  1.0000
  C   C153      1.0  0.14267  0.78413  0.03735  1.0000
  S   S30       1.0  0.00817  0.87173  0.19533  1.0000
  S   S31       1.0  0.29591  0.65667  0.42460  1.0000
  H   H126      1.0  0.07691  0.94752  0.46476  1.0000
  H   H127      1.0  0.27412  0.96076  0.17015  1.0000
  C   C154      1.0  0.19171  0.78822  0.01369  1.0000
  H   H128      1.0  0.98935  0.52531  0.11963  1.0000
  H   H129      1.0  0.29782  0.68529  0.50091  1.0000
  P   P5        1.0  0.01452  0.69186  0.22872  1.0000
  C   C155      1.0  0.01623  0.65679  0.25909  1.0000
  C   C156      1.0  0.04938  0.70075  0.22474  1.0000
  C   C157      1.0  0.06764  0.72155  0.24982  1.0000
  C   C158      1.0  0.09488  0.72789  0.24744  1.0000
  C   C159      1.0  0.10421  0.71315  0.22033  1.0000
  C   C160      1.0  0.08631  0.69212  0.19557  1.0000
  C   C161      1.0  0.05893  0.68609  0.19755  1.0000
  C   C162      1.0  0.04200  0.64666  0.28236  1.0000
  C   C163      1.0  0.04318  0.61965  0.30591  1.0000
  C   C164      1.0  0.29547  0.81289  0.11216  1.0000
  H   H130      1.0  0.04809  0.99005  0.49022  1.0000
  C   C165      1.0  0.00047  0.72935  0.24478  1.0000
  C   C166      1.0  0.05337  0.51462  0.32480  1.0000
  H   H131      1.0  0.00725  0.85835  0.34724  1.0000
  C   C167      1.0  0.10157  0.54500  0.26801  1.0000
  C   C168      1.0  0.09976  0.84413  0.49626  1.0000
  P   P6        1.0  0.09337  0.66988  0.41014  1.0000
  C   C169      1.0  0.99540  0.79090  0.24580  1.0000
  H   H132      1.0  0.22049  0.62590  0.25838  1.0000
  H   H133      1.0  0.06237  0.86663  0.46292  1.0000
  C   C170      1.0  0.13210  0.74115  0.48313  1.0000
  C   C171      1.0  0.29709  0.00499  0.16081  1.0000
  C   C172      1.0  0.26162  0.00551  0.27591  1.0000
  H   H134      1.0  0.06080  0.73303  0.27112  1.0000
  H   H135      1.0  0.10867  0.74453  0.26641  1.0000
  H   H136      1.0  0.12519  0.71834  0.21819  1.0000
  H   H137      1.0  0.09348  0.68083  0.17440  1.0000
  H   H138      1.0  0.04542  0.67010  0.17768  1.0000
  H   H139      1.0  0.06122  0.65945  0.28226  1.0000
  H   H140      1.0  0.06322  0.61196  0.32362  1.0000
  C   C173      1.0  0.06759  0.61608  0.48460  1.0000
  C   C174      1.0  0.01859  0.60255  0.30645  1.0000
  H   H141      1.0  0.25355  0.79675  0.08442  1.0000
  H   H142      1.0  0.12896  0.60973  0.41029  1.0000
  H   H143      1.0  0.16774  0.66732  0.12704  1.0000
  H   H144      1.0  0.01939  0.58181  0.32490  1.0000
  C   C175      1.0  0.00981  0.91817  0.43518  1.0000
  H   H145      1.0  0.05093  0.56543  0.48157  1.0000
  C   C176      1.0  0.21092  0.52494  0.25297  1.0000
  C   C177      1.0  0.99289  0.61216  0.28306  1.0000
  C   C178      1.0  0.06136  0.57948  0.43363  1.0000
  C   C179      1.0  0.07189  0.60503  0.41606  1.0000
  C   C180      1.0  0.08104  0.63602  0.43307  1.0000
  C   C181      1.0  0.07829  0.64153  0.46720  1.0000
  C   C182      1.0  0.11916  0.65602  0.32043  1.0000
  C   C183      1.0  0.10638  0.66929  0.34519  1.0000
  C   C184      1.0  0.06432  0.69792  0.38961  1.0000
  C   C185      1.0  0.03637  0.68783  0.38547  1.0000
  C   C186      1.0  0.01420  0.71074  0.37217  1.0000
  C   C187      1.0  0.01975  0.74371  0.36274  1.0000
  C   C188      1.0  0.17169  0.61541  0.14548  1.0000
  H   H146      1.0  0.07327  0.61708  0.22464  1.0000
  H   H147      1.0  0.14405  0.52785  0.27569  1.0000
  C   C189      1.0  0.28523  0.76630  0.07061  1.0000
  H   H148      1.0  0.09237  0.51583  0.17937  1.0000
  H   H149      1.0  0.07284  0.60055  0.38930  1.0000
  C   C190      1.0  0.27931  0.97686  0.15051  1.0000
  H   H150      1.0  0.11697  0.66902  0.29548  1.0000
  H   H151      1.0  0.09438  0.69261  0.33888  1.0000
  H   H152      1.0  0.03161  0.66276  0.39351  1.0000
  H   H153      1.0  0.01954  0.84932  0.48462  1.0000
  C   C191      1.0  0.00542  0.92406  0.39895  1.0000
  C   C192      1.0  0.05668  0.94142  0.44668  1.0000
  H   H154      1.0  0.99821  0.00367  0.15585  1.0000
  S   S32       1.0  0.29228  0.84224  0.01633  1.0000
  C   C193      1.0  0.12906  0.54803  0.26529  1.0000
  H   H155      1.0  0.16677  0.69114  0.18496  1.0000
  C   C194      1.0  0.02207  0.82906  0.39554  1.0000
  C   C195      1.0  0.08156  0.57009  0.25377  1.0000
  C   C196      1.0  0.13500  0.62612  0.32791  1.0000
  C   C197      1.0  0.21359  0.59231  0.34828  1.0000
  H   H156      1.0  0.02300  0.94343  0.35842  1.0000
  H   H157      1.0  0.15111  0.58658  0.36627  1.0000
  H   H158      1.0  0.16907  0.65293  0.23569  1.0000
  S   S33       1.0  0.99631  0.00567  0.29744  1.0000
  H   H159      1.0  0.05160  0.77944  0.35918  1.0000
  C   C198      1.0  0.04739  0.75365  0.36592  1.0000
  S   S34       1.0  0.99324  0.74550  0.08874  1.0000
  C   C199      1.0  0.00616  0.85361  0.05098  1.0000
  C   C200      1.0  0.05921  0.58503  0.46791  1.0000
  C   C201      1.0  0.18359  0.53639  0.23579  1.0000
  C   C202      1.0  0.99622  0.51879  0.03572  1.0000
  H   H160      1.0  0.00273  0.76196  0.35393  1.0000
  H   H161      1.0  0.25332  0.64548  0.31409  1.0000
  C   C203      1.0  0.13826  0.60942  0.36016  1.0000
  H   H162      1.0  0.09100  0.73954  0.38300  1.0000
  H   H163      1.0  0.04403  0.83323  0.39737  1.0000
  C   C204      1.0  0.17012  0.64219  0.21073  1.0000
  C   C205      1.0  0.27379  0.99006  0.08876  1.0000
  C   C206      1.0  0.06986  0.58817  0.03001  1.0000
  H   H164      1.0  0.30498  0.99783  0.27803  1.0000
  H   H165      1.0  0.12119  0.62277  0.21932  1.0000
  C   C207      1.0  0.21770  0.61700  0.28324  1.0000
  C   C208      1.0  0.06962  0.73095  0.37943  1.0000
  C   C209      1.0  0.14845  0.68569  0.44887  1.0000
  C   C210      1.0  0.16462  0.51399  0.21370  1.0000
  C   C211      1.0  0.00124  0.84334  0.36703  1.0000
  C   C212      1.0  0.18054  0.81745  0.02495  1.0000
  H   H166      1.0  0.05872  0.54014  0.31878  1.0000
  C   C213      1.0  0.13682  0.57619  0.24815  1.0000
  C   C214      1.0  0.15620  0.81538  0.03678  1.0000
  H   H167      1.0  0.03432  0.58045  0.05028  1.0000
  C   C215      1.0  0.12556  0.62259  0.38501  1.0000
  C   C216      1.0  0.11975  0.69405  0.44180  1.0000
  H   H168      1.0  0.08433  0.66553  0.48051  1.0000
  H   H169      1.0  0.05996  0.56691  0.25444  1.0000
  S   S35       1.0  0.04025  0.73887  0.02008  1.0000
  C   C217      1.0  0.11650  0.60137  0.23391  1.0000
  H   H170      1.0  0.06861  0.95863  0.40071  1.0000
  H   H171      1.0  0.02812  0.85935  0.05408  1.0000
  C   C218      1.0  0.17209  0.60679  0.20687  1.0000
  C   C219      1.0  0.16882  0.66393  0.18212  1.0000
  C   C220      1.0  0.02653  0.93880  0.38656  1.0000
  C   C221      1.0  0.23664  0.62790  0.31473  1.0000
  H   H172      1.0  0.08476  0.52029  0.04909  1.0000
  H   H173      1.0  0.15543  0.66403  0.43663  1.0000
  S   S36       1.0  0.31296  0.90186  0.09600  1.0000
  C   C222      1.0  0.99319  0.95028  0.14397  1.0000
  H   H174      1.0  0.01820  0.76483  0.21446  1.0000
  H   H175      1.0  0.17410  0.56648  0.17003  1.0000
  S   S37       1.0  0.18966  0.54032  0.41661  1.0000
  P   P7        1.0  0.17224  0.57875  0.24349  1.0000
  S   S38       1.0  0.23870  0.88801  0.02347  1.0000
  C   C223      1.0  0.19593  0.59441  0.28411  1.0000
  C   C224      1.0  0.19461  0.58134  0.31689  1.0000
  H   H176      1.0  0.17916  0.56243  0.31841  1.0000
  C   C225      1.0  0.11172  0.72169  0.45960  1.0000
  C   C226      1.0  0.98923  0.53275  0.06515  1.0000
  H   H177      1.0  0.25502  0.94691  0.10686  1.0000
  H   H178      1.0  0.17158  0.60508  0.11992  1.0000
  C   C227      1.0  0.23446  0.61574  0.34724  1.0000
  C   C228      1.0  0.16951  0.65054  0.14947  1.0000
  H   H179      1.0  0.24923  0.62406  0.37165  1.0000
  H   H180      1.0  0.08132  0.60260  0.05286  1.0000
  H   H181      1.0  0.00992  0.94245  0.16692  1.0000
  C   C229      1.0  0.17297  0.59358  0.17402  1.0000
  S   S39       1.0  0.03640  0.51160  0.18984  1.0000
  H   H182      1.0  0.99986  0.81587  0.23711  1.0000
  C   C230      1.0  0.12746  0.51915  0.46440  1.0000
  C   C231      1.0  0.15358  0.75490  0.02559  1.0000
  H   H183      1.0  0.19070  0.84167  0.02475  1.0000
  Fe  Fe18      1.0  0.04567  0.68307  0.01036  1.0000
  C   C232      1.0  0.04315  0.57561  0.02837  1.0000
  C   C233      1.0  0.99219  0.64632  0.17393  1.0000
  H   H184      1.0  0.99276  0.70335  0.37029  1.0000
  C   C234      1.0  0.99169  0.63907  0.25935  1.0000
  C   C235      1.0  0.98805  0.87849  0.05781  1.0000
  C   C236      1.0  0.00684  0.86102  0.49986  1.0000
  H   H185      1.0  0.01908  0.51005  0.27724  1.0000
  H   H186      1.0  0.14512  0.53568  0.46500  1.0000
  H   H187      1.0  0.10236  0.82716  0.47567  1.0000
  C   C237      1.0  0.17803  0.75697  0.01386  1.0000
  H   H188      1.0  0.99345  0.90582  0.44381  1.0000
  H   H189      1.0  0.14325  0.73074  0.02567  1.0000
  H   H190      1.0  0.13706  0.52028  0.36975  1.0000
  H   H191      1.0  0.01025  0.80151  0.03632  1.0000
  C   C238      1.0  0.31403  0.76131  0.07499  1.0000
  H   H192      1.0  0.12574  0.76228  0.49681  1.0000
  H   H193      1.0  0.09555  0.52259  0.28010  1.0000
  H   H194      1.0  0.26528  0.98385  0.06099  1.0000
  H   H195      1.0  0.99621  0.90372  0.06504  1.0000
  H   H196      1.0  0.14337  0.52210  0.20058  1.0000
  H   H197      1.0  0.26453  0.99776  0.30317  1.0000
  H   H198      1.0  0.08698  0.51150  0.37254  1.0000
  C   C239      1.0  0.99609  0.82106  0.04072  1.0000
  C   C240      1.0  0.99438  0.51438  0.09681  1.0000
  C   C241      1.0  0.11289  0.52230  0.49004  1.0000
  C   C242      1.0  0.18175  0.51335  0.37897  1.0000
  C   C243      1.0  0.98660  0.98471  0.13771  1.0000
  H   H199      1.0  0.18647  0.73424  0.00505  1.0000
  S   S40       1.0  0.01977  0.95093  0.66496  1.0000
  S   S41       1.0  0.04282  0.65538  0.95838  1.0000
  S   S42       1.0  0.24370  0.86444  0.94423  1.0000
  C   C244      1.0  0.00962  0.80601  0.68263  1.0000
  Fe  Fe19      1.0  0.23938  0.91320  0.97196  1.0000
  S   S43       1.0  0.20597  0.95403  0.95016  1.0000
  Fe  Fe20      1.0  0.29050  0.87141  0.96684  1.0000
  Fe  Fe21      1.0  0.07013  0.78353  0.58780  1.0000
  S   S44       1.0  0.02594  0.78496  0.55311  1.0000
  S   S45       1.0  0.08902  0.82604  0.62629  1.0000
  Fe  Fe22      1.0  0.08258  0.71424  0.55781  1.0000
  C   C245      1.0  0.06670  0.56442  0.97231  1.0000
  C   C246      1.0  0.11384  0.86283  0.55709  1.0000
  H   H200      1.0  0.04221  0.61403  0.65880  1.0000
  Fe  Fe23      1.0  0.02503  0.72955  0.56849  1.0000
  H   H201      1.0  0.03242  0.64278  0.74222  1.0000
  S   S46       1.0  0.08867  0.76829  0.54374  1.0000
  S   S47       1.0  0.06841  0.72925  0.60542  1.0000
  C   C247      1.0  0.99867  0.60373  0.87160  1.0000
  H   H202      1.0  0.28403  0.70476  0.55369  1.0000
  H   H203      1.0  0.02869  0.87437  0.81632  1.0000
  H   H204      1.0  0.04155  0.59237  0.82899  1.0000
  S   S48       1.0  0.23445  0.65181  0.54447  1.0000
  C   C248      1.0  0.14312  0.66512  0.54968  1.0000
  C   C249      1.0  0.16342  0.68967  0.56399  1.0000
  C   C250      1.0  0.19130  0.68525  0.56215  1.0000
  C   C251      1.0  0.19897  0.65670  0.54531  1.0000
  C   C252      1.0  0.08879  0.70684  0.69361  1.0000
  C   C253      1.0  0.10403  0.60010  0.70996  1.0000
  H   H205      1.0  0.15783  0.71147  0.57742  1.0000
  H   H206      1.0  0.20700  0.70398  0.57393  1.0000
  C   C254      1.0  0.13160  0.70376  0.87995  1.0000
  C   C255      1.0  0.08141  0.76709  0.70037  1.0000
  H   H207      1.0  0.04499  0.93156  0.80483  1.0000
  C   C256      1.0  0.01961  0.65624  0.62888  1.0000
  C   C257      1.0  0.17064  0.94269  0.84354  1.0000
  S   S49       1.0  0.05076  0.99091  0.76152  1.0000
  H   H208      1.0  0.11485  0.74622  0.68143  1.0000
  C   C258      1.0  0.10281  0.70444  0.80794  1.0000
  C   C259      1.0  0.01440  0.63974  0.92403  1.0000
  C   C260      1.0  0.05015  0.95462  0.53343  1.0000
  S   S50       1.0  0.99355  0.55117  0.78219  1.0000
  H   H209      1.0  0.09376  0.79853  0.76987  1.0000
  C   C261      1.0  0.03932  0.91700  0.65316  1.0000
  C   C262      1.0  0.02507  0.89083  0.63113  1.0000
  C   C263      1.0  0.03997  0.86317  0.62201  1.0000
  C   C264      1.0  0.06928  0.86112  0.63531  1.0000
  C   C265      1.0  0.08350  0.88750  0.65695  1.0000
  C   C266      1.0  0.06868  0.91540  0.66557  1.0000
  H   H210      1.0  0.00239  0.89176  0.62131  1.0000
  H   H211      1.0  0.02875  0.84325  0.60508  1.0000
  H   H212      1.0  0.10614  0.88625  0.66737  1.0000
  H   H213      1.0  0.08002  0.93530  0.68247  1.0000
  H   H214      1.0  0.03668  0.66333  0.61808  1.0000
  C   C267      1.0  0.18429  0.95838  0.90589  1.0000
  C   C268      1.0  0.00839  0.79056  0.65002  1.0000
  H   H215      1.0  0.30817  0.56208  0.58694  1.0000
  C   C269      1.0  0.99428  0.67449  0.61907  1.0000
  H   H216      1.0  0.03120  0.86999  0.71199  1.0000
  H   H217      1.0  0.02666  0.78298  0.84376  1.0000
  C   C270      1.0  0.19166  0.80188  0.90634  1.0000
  C   C271      1.0  0.19814  0.81806  0.87794  1.0000
  C   C272      1.0  0.18008  0.84303  0.85867  1.0000
  C   C273      1.0  0.15539  0.85160  0.86754  1.0000
  C   C274      1.0  0.14855  0.83513  0.89581  1.0000
  C   C275      1.0  0.16710  0.81054  0.91544  1.0000
  P   P8        1.0  0.11711  0.84576  0.90854  1.0000
  C   C276      1.0  0.09374  0.87276  0.87582  1.0000
  C   C277      1.0  0.10110  0.80548  0.91409  1.0000
  C   C278      1.0  0.09092  0.78407  0.88479  1.0000
  C   C279      1.0  0.07876  0.75274  0.88875  1.0000
  C   C280      1.0  0.08142  0.58612  0.71986  1.0000
  C   C281      1.0  0.05946  0.98127  0.59145  1.0000
  C   C282      1.0  0.10042  0.79401  0.94772  1.0000
  C   C283      1.0  0.06672  0.86193  0.85691  1.0000
  H   H218      1.0  0.09193  0.95188  0.83920  1.0000
  H   H219      1.0  0.29793  0.82361  0.86849  1.0000
  C   C284      1.0  0.08484  0.92677  0.84426  1.0000
  C   C285      1.0  0.10232  0.90578  0.86992  1.0000
  C   C286      1.0  0.12637  0.87060  0.94862  1.0000
  C   C287      1.0  0.15296  0.88581  0.96044  1.0000
  H   H220      1.0  0.13558  0.82426  0.53592  1.0000
  H   H221      1.0  0.16120  0.00085  0.91872  1.0000
  C   C288      1.0  0.05365  0.95232  0.57014  1.0000
  C   C289      1.0  0.16378  0.98437  0.89782  1.0000
  H   H222      1.0  0.20612  0.78332  0.92209  1.0000
  H   H223      1.0  0.21759  0.81197  0.87160  1.0000
  H   H224      1.0  0.18552  0.85638  0.83734  1.0000
  H   H225      1.0  0.14215  0.87139  0.85250  1.0000
  H   H226      1.0  0.16282  0.79834  0.93816  1.0000
  H   H227      1.0  0.09248  0.79162  0.85890  1.0000
  H   H228      1.0  0.07073  0.73645  0.86603  1.0000
  C   C290      1.0  0.02269  0.62822  0.65207  1.0000
  H   H229      1.0  0.02434  0.77259  0.64731  1.0000
  H   H230      1.0  0.05873  0.83759  0.86205  1.0000
  H   H231      1.0  0.06888  0.56620  0.70405  1.0000
  P   P9        1.0  0.03697  0.79481  0.72213  1.0000
  H   H232      1.0  0.18415  0.61051  0.51721  1.0000
  H   H233      1.0  0.12275  0.91523  0.88479  1.0000
  H   H234      1.0  0.16871  0.88260  0.94622  1.0000
  C   C291      1.0  0.03313  0.66397  0.82670  1.0000
  H   H235      1.0  0.28323  0.88084  0.84400  1.0000
  H   H236      1.0  0.00034  0.93307  0.54507  1.0000
  H   H237      1.0  0.00020  0.61852  0.99299  1.0000
  H   H238      1.0  0.10946  0.80882  0.97121  1.0000
  C   C292      1.0  0.11325  0.59182  0.85366  1.0000
  C   C293      1.0  0.30058  0.86793  0.83747  1.0000
  C   C294      1.0  0.15080  0.63661  0.53277  1.0000
  H   H239      1.0  0.12551  0.84636  0.79320  1.0000
  C   C295      1.0  0.05169  0.98684  0.51842  1.0000
  H   H240      1.0  0.05676  0.58696  0.75693  1.0000
  H   H241      1.0  0.20296  0.91713  0.88433  1.0000
  C   C296      1.0  0.08156  0.58280  0.00192  1.0000
  C   C297      1.0  0.08660  0.82426  0.76274  1.0000
  H   H242      1.0  0.11217  0.65557  0.88214  1.0000
  C   C298      1.0  0.11772  0.56296  0.87544  1.0000
  S   S51       1.0  0.03868  0.71142  0.52129  1.0000
  C   C299      1.0  0.10456  0.85129  0.77634  1.0000
  Fe  Fe24      1.0  0.04389  0.76672  0.50939  1.0000
  C   C300      1.0  0.07747  0.74204  0.92219  1.0000
  H   H243      1.0  0.07561  0.56079  0.95032  1.0000
  H   H244      1.0  0.12616  0.65729  0.77614  1.0000
  C   C301      1.0  0.07264  0.88816  0.51583  1.0000
  H   H245      1.0  0.13896  0.55421  0.88790  1.0000
  C   C302      1.0  0.02016  0.61568  0.90051  1.0000
  H   H246      1.0  0.17985  0.91809  0.99948  1.0000
  C   C303      1.0  0.13464  0.73123  0.85875  1.0000
  C   C304      1.0  0.06292  0.58493  0.84240  1.0000
  H   H247      1.0  0.08812  0.90029  0.57180  1.0000
  C   C305      1.0  0.02771  0.55792  0.99828  1.0000
  S   S52       1.0  0.10892  0.66700  0.55566  1.0000
  H   H248      1.0  0.06828  0.71764  0.92550  1.0000
  H   H249      1.0  0.05779  0.67367  0.70468  1.0000
  S   S53       1.0  0.13125  0.97570  0.79031  1.0000
  Fe  Fe25      1.0  0.24815  0.61200  0.51037  1.0000
  H   H250      1.0  0.10011  0.68640  0.68501  1.0000
  C   C306      1.0  0.11834  0.84237  0.53015  1.0000
  C   C307      1.0  0.09480  0.54516  0.88076  1.0000
  C   C308      1.0  0.11301  0.63802  0.76036  1.0000
  H   H251      1.0  0.05150  0.92817  0.58240  1.0000
  C   C309      1.0  0.10621  0.87677  0.96704  1.0000
  H   H252      1.0  0.08725  0.79308  0.69655  1.0000
  H   H253      1.0  0.08812  0.75402  0.97779  1.0000
  C   C310      1.0  0.30615  0.63633  0.62989  1.0000
  C   C311      1.0  0.05786  0.76013  0.71258  1.0000
  H   H254      1.0  0.31696  0.79869  0.96264  1.0000
  C   C312      1.0  0.04931  0.88301  0.83126  1.0000
  C   C313      1.0  0.18733  0.93721  0.87858  1.0000
  C   C314      1.0  0.30616  0.70174  0.55509  1.0000
  H   H255      1.0  0.13115  0.60501  0.84919  1.0000
  H   H256      1.0  0.04145  0.60647  0.90455  1.0000
  H   H257      1.0  0.06242  0.91705  0.73749  1.0000
  H   H258      1.0  0.02878  0.53821  0.94707  1.0000
  C   C315      1.0  0.12004  0.62575  0.73046  1.0000
  S   S54       1.0  0.22257  0.78973  0.99912  1.0000
  H   H259      1.0  0.13789  0.63614  0.72308  1.0000
  C   C316      1.0  0.05122  0.86410  0.73056  1.0000
  H   H260      1.0  0.14799  0.75236  0.87032  1.0000
  C   C317      1.0  0.11999  0.73176  0.82285  1.0000
  C   C318      1.0  0.03989  0.55192  0.97047  1.0000
  C   C319      1.0  0.11458  0.67627  0.86506  1.0000
  C   C320      1.0  0.00064  0.61812  0.66600  1.0000
  H   H261      1.0  0.10971  0.90579  0.77779  1.0000
  C   C321      1.0  0.15060  0.96919  0.83534  1.0000
  C   C322      1.0  0.04942  0.72619  0.71411  1.0000
  H   H262      1.0  0.10917  0.59094  0.68647  1.0000
  C   C323      1.0  0.17850  0.63260  0.53017  1.0000
  H   H263      1.0  0.27857  0.61292  0.58391  1.0000
  H   H264      1.0  0.09158  0.70516  0.78008  1.0000
  H   H265      1.0  0.17363  0.92666  0.82252  1.0000
  S   S55       1.0  0.00596  0.58243  0.69508  1.0000
  C   C324      1.0  0.07438  0.59826  0.74972  1.0000
  H   H266      1.0  0.14229  0.70391  0.90805  1.0000
  H   H267      1.0  0.04952  0.54207  0.86756  1.0000
  H   H268      1.0  0.03056  0.72001  0.72159  1.0000
  C   C325      1.0  0.09575  0.88473  0.76751  1.0000
  H   H269      1.0  0.11914  0.54146  0.51051  1.0000
  H   H270      1.0  0.04687  0.66575  0.85339  1.0000
  H   H271      1.0  0.10189  0.59350  0.00287  1.0000
  H   H272      1.0  0.12745  0.86036  0.58383  1.0000
  H   H273      1.0  0.05069  0.80244  0.80001  1.0000
  C   C326      1.0  0.05977  0.83037  0.73958  1.0000
  C   C327      1.0  0.09712  0.74051  0.69165  1.0000
  C   C328      1.0  0.01992  0.78092  0.75492  1.0000
  H   H274      1.0  0.12218  0.75319  0.80652  1.0000
  C   C329      1.0  0.01325  0.89362  0.51419  1.0000
  C   C330      1.0  0.08579  0.60343  0.83758  1.0000
  C   C331      1.0  0.03142  0.78821  0.79102  1.0000
  C   C332      1.0  0.09111  0.88554  0.55007  1.0000
  C   C333      1.0  0.06487  0.69970  0.70463  1.0000
  C   C334      1.0  0.06904  0.89109  0.74485  1.0000
  C   C335      1.0  0.08851  0.76257  0.95166  1.0000
  C   C336      1.0  0.99625  0.90801  0.53385  1.0000
  C   C337      1.0  0.05841  0.91534  0.82486  1.0000
  H   H275      1.0  0.08536  0.86598  0.95788  1.0000
  C   C338      1.0  0.99641  0.65688  0.75891  1.0000
  H   H276      1.0  0.00328  0.58519  0.85374  1.0000
  Fe  Fe26      1.0  0.04160  0.99319  0.70221  1.0000
  C   C339      1.0  0.08949  0.62510  0.76956  1.0000
  C   C340      1.0  0.06741  0.55608  0.86410  1.0000
  P   P10       1.0  0.08003  0.63984  0.80835  1.0000
  C   C341      1.0  0.10082  0.67590  0.82863  1.0000
  C   C342      1.0  0.04366  0.65318  0.79873  1.0000
  C   C343      1.0  0.02517  0.65063  0.76454  1.0000
  H   H277      1.0  0.29258  0.65832  0.62854  1.0000
  S   S56       1.0  0.28625  0.92260  0.99066  1.0000
  S   S57       1.0  0.98923  0.70923  0.58882  1.0000
  H   H278      1.0  0.06219  0.97913  0.61974  1.0000
  C   C344      1.0  0.14698  0.98973  0.86280  1.0000
  C   C345      1.0  0.31528  0.88400  0.81635  1.0000
  C   C346      1.0  0.00440  0.67055  0.82086  1.0000
  H   H279      1.0  0.99930  0.99340  0.57002  1.0000
  P   P11       1.0  0.04250  0.91668  0.50610  1.0000
  H   H280      1.0  0.06584  0.62063  0.51115  1.0000
  H   H281      1.0  0.99621  0.67747  0.84281  1.0000
  C   C347      1.0  0.98805  0.82857  0.68488  1.0000
  S   S58       1.0  0.24492  0.55478  0.50892  1.0000
  P   P12       1.0  0.99252  0.54388  0.99606  1.0000
  H   H282      1.0  0.09824  0.52266  0.89739  1.0000
  C   C348      1.0  0.31388  0.69049  0.52540  1.0000
  H   H283      1.0  0.30906  0.90933  0.80618  1.0000
  H   H284      1.0  0.17632  0.74752  0.50845  1.0000
  Fe  Fe27      1.0  0.24509  0.83966  0.99649  1.0000
  C   C349      1.0  0.99475  0.76245  0.74430  1.0000
  C   C350      1.0  0.29809  0.61074  0.60466  1.0000
  S   S59       1.0  0.29389  0.61093  0.51146  1.0000
  C   C351      1.0  0.30876  0.83553  0.85112  1.0000
  H   H285      1.0  0.13529  0.61736  0.52193  1.0000
  C   C352      1.0  0.15942  0.90610  0.99077  1.0000
  C   C353      1.0  0.31485  0.58183  0.60654  1.0000
  C   C354      1.0  0.01788  0.77721  0.81597  1.0000
  H   H286      1.0  0.99378  0.98765  0.50567  1.0000
  C   C355      1.0  0.11296  0.89656  0.99773  1.0000
  C   C356      1.0  0.99291  0.75878  0.80513  1.0000
  C   C357      1.0  0.98683  0.65165  0.91847  1.0000
  H   H287      1.0  0.98821  0.84017  0.70991  1.0000
  Fe  Fe28      1.0  0.48891  0.06307  0.21699  1.0000
  S   S60       1.0  0.44666  0.08529  0.21433  1.0000
  S   S61       1.0  0.52173  0.09263  0.19761  1.0000
  S   S62       1.0  0.58572  0.29160  0.02651  1.0000
  C   C358      1.0  0.59599  0.30971  0.34469  1.0000
  C   C359      1.0  0.61266  0.38462  0.46574  1.0000
  H   H288      1.0  0.45592  0.05171  0.12303  1.0000
  Fe  Fe29      1.0  0.45437  0.06786  0.27090  1.0000
  S   S63       1.0  0.44497  0.10211  0.31319  1.0000
  H   H289      1.0  0.53009  0.02606  0.44732  1.0000
  C   C360      1.0  0.35749  0.40489  0.44477  1.0000
  S   S64       1.0  0.54254  0.44540  0.17929  1.0000
  S   S65       1.0  0.53743  0.13952  0.45694  1.0000
  C   C361      1.0  0.46183  0.04473  0.42250  1.0000
  C   C362      1.0  0.62698  0.34884  0.42357  1.0000
  Fe  Fe30      1.0  0.53551  0.22779  0.05119  1.0000
  S   S66       1.0  0.58203  0.22781  0.07820  1.0000
  S   S67       1.0  0.50386  0.18985  0.06198  1.0000
  Fe  Fe31      1.0  0.57637  0.28499  0.07864  1.0000
  S   S68       1.0  0.59908  0.31975  0.12351  1.0000
  Fe  Fe32      1.0  0.58702  0.23472  0.02326  1.0000
  C   C363      1.0  0.50588  0.39362  0.03119  1.0000
  S   S69       1.0  0.52963  0.28470  0.05496  1.0000
  C   C364      1.0  0.52848  0.50515  0.06401  1.0000
  H   H290      1.0  0.44552  0.22555  0.08995  1.0000
  P   P13       1.0  0.53625  0.23769  0.21542  1.0000
  C   C365      1.0  0.55833  0.41303  0.15986  1.0000
  C   C366      1.0  0.58741  0.41158  0.16478  1.0000
  C   C367      1.0  0.59960  0.38328  0.15260  1.0000
  C   C368      1.0  0.58275  0.35677  0.13439  1.0000
  C   C369      1.0  0.55352  0.35918  0.12775  1.0000
  C   C370      1.0  0.54141  0.38708  0.14069  1.0000
  H   H291      1.0  0.60061  0.43168  0.17903  1.0000
  H   H292      1.0  0.62223  0.38170  0.15773  1.0000
  H   H293      1.0  0.54031  0.33889  0.11398  1.0000
  H   H294      1.0  0.51889  0.38806  0.13671  1.0000
  C   C371      1.0  0.47069  0.11213  0.35335  1.0000
  C   C372      1.0  0.49774  0.09800  0.36179  1.0000
  C   C373      1.0  0.51764  0.10650  0.39376  1.0000
  C   C374      1.0  0.51083  0.12914  0.41781  1.0000
  C   C375      1.0  0.48366  0.14300  0.40970  1.0000
  C   C376      1.0  0.46372  0.13452  0.37760  1.0000
  H   H295      1.0  0.50338  0.08048  0.34371  1.0000
  H   H296      1.0  0.53854  0.09548  0.39986  1.0000
  H   H297      1.0  0.47810  0.16044  0.42796  1.0000
  H   H298      1.0  0.44279  0.14544  0.37144  1.0000
  P   P14       1.0  0.61270  0.28054  0.41180  1.0000
  H   H299      1.0  0.35334  0.38820  0.42203  1.0000
  C   C377      1.0  0.51971  0.21243  0.30925  1.0000
  C   C378      1.0  0.50916  0.16307  0.09996  1.0000
  C   C379      1.0  0.48607  0.14595  0.10630  1.0000
  C   C380      1.0  0.48936  0.12500  0.13643  1.0000
  C   C381      1.0  0.51601  0.12005  0.16008  1.0000
  C   C382      1.0  0.53915  0.13676  0.15342  1.0000
  C   C383      1.0  0.53577  0.15807  0.12356  1.0000
  H   H300      1.0  0.46540  0.14937  0.08810  1.0000
  H   H301      1.0  0.47132  0.11246  0.14118  1.0000
  H   H302      1.0  0.55990  0.13302  0.17136  1.0000
  H   H303      1.0  0.55382  0.17022  0.11850  1.0000
  H   H304      1.0  0.64002  0.40075  0.43476  1.0000
  C   C384      1.0  0.64582  0.31724  0.22360  1.0000
  H   H305      1.0  0.45975  0.07110  0.42915  1.0000
  C   C385      1.0  0.58504  0.41795  0.03644  1.0000
  H   H306      1.0  0.51266  0.16256  0.32813  1.0000
  C   C386      1.0  0.35262  0.06177  0.20707  1.0000
  S   S70       1.0  0.49772  0.04854  0.27466  1.0000
  H   H307      1.0  0.59549  0.40692  0.06206  1.0000
  C   C387      1.0  0.37806  0.39609  0.47590  1.0000
  H   H308      1.0  0.46254  0.44451  0.08273  1.0000
  C   C388      1.0  0.59583  0.31305  0.30920  1.0000
  H   H309      1.0  0.35787  0.02257  0.27067  1.0000
  H   H310      1.0  0.62270  0.27970  0.18725  1.0000
  H   H311      1.0  0.51254  0.26499  0.40841  1.0000
  H   H312      1.0  0.53032  0.13769  0.02628  1.0000
  H   H313      1.0  0.57704  0.35130  0.20936  1.0000
  C   C389      1.0  0.54824  0.45547  0.34309  1.0000
  C   C390      1.0  0.34209  0.43506  0.44303  1.0000
  H   H314      1.0  0.52770  0.25837  0.28458  1.0000
  C   C391      1.0  0.56029  0.33717  0.21562  1.0000
  P   P15       1.0  0.49204  0.03418  0.49340  1.0000
  C   C392      1.0  0.59809  0.32576  0.45867  1.0000
  C   C393      1.0  0.54090  0.03999  0.47079  1.0000
  C   C394      1.0  0.49065  0.03828  0.10233  1.0000
  Fe  Fe33      1.0  0.43005  0.03247  0.19895  1.0000
  C   C395      1.0  0.52564  0.23112  0.28186  1.0000
  H   H315      1.0  0.62436  0.38980  0.35536  1.0000
  H   H316      1.0  0.58229  0.32578  0.35508  1.0000
  C   C396      1.0  0.46272  0.20835  0.14367  1.0000
  H   H317      1.0  0.64475  0.44183  0.39183  1.0000
  H   H318      1.0  0.52410  0.27000  0.14578  1.0000
  H   H319      1.0  0.51819  0.37918  0.01721  1.0000
  H   H320      1.0  0.51880  0.44201  0.01610  1.0000
  C   C397      1.0  0.50720  0.25249  0.14556  1.0000
  C   C398      1.0  0.57450  0.21706  0.17822  1.0000
  C   C399      1.0  0.53783  0.35459  0.22287  1.0000
  H   H321      1.0  0.61351  0.29546  0.26807  1.0000
  H   H322      1.0  0.44573  0.19076  0.14270  1.0000
  C   C400      1.0  0.61364  0.28566  0.36653  1.0000
  S   S71       1.0  0.43297  0.01731  0.25527  1.0000
  C   C401      1.0  0.56938  0.22114  0.21136  1.0000
  S   S72       1.0  0.47231  0.01090  0.19913  1.0000
  C   C402      1.0  0.46251  0.22805  0.11402  1.0000
  C   C403      1.0  0.58288  0.45321  0.03215  1.0000
  C   C404      1.0  0.59074  0.21283  0.24213  1.0000
  C   C405      1.0  0.58261  0.07011  0.50350  1.0000
  C   C406      1.0  0.58130  0.25599  0.40864  1.0000
  H   H323      1.0  0.49771  0.35004  0.23385  1.0000
  H   H324      1.0  0.38956  0.37254  0.47658  1.0000
  H   H325      1.0  0.49744  0.28723  0.23144  1.0000
  C   C407      1.0  0.49034  0.44797  0.04876  1.0000
  C   C408      1.0  0.64416  0.25953  0.43794  1.0000
  C   C409      1.0  0.64086  0.15635  0.03291  1.0000
  C   C410      1.0  0.58195  0.22049  0.40507  1.0000
  C   C411      1.0  0.55807  0.20120  0.40400  1.0000
  C   C412      1.0  0.53324  0.21722  0.40583  1.0000
  C   C413      1.0  0.53193  0.25264  0.40736  1.0000
  C   C414      1.0  0.55572  0.27203  0.40815  1.0000
  H   H326      1.0  0.62195  0.39522  0.22877  1.0000
  H   H327      1.0  0.62289  0.22763  0.46751  1.0000
  C   C415      1.0  0.36543  0.09364  0.21183  1.0000
  H   H328      1.0  0.63121  0.47562  0.33649  1.0000
  C   C416      1.0  0.56854  0.44154  0.37188  1.0000
  S   S73       1.0  0.39413  0.02808  0.14835  1.0000
  C   C417      1.0  0.51549  0.33646  0.22922  1.0000
  H   H329      1.0  0.48469  0.19469  0.19652  1.0000
  H   H330      1.0  0.50037  0.06309  0.10733  1.0000
  C   C418      1.0  0.60012  0.40373  0.30277  1.0000
  H   H331      1.0  0.58259  0.41371  0.31114  1.0000
  H   H332      1.0  0.38610  0.09671  0.20782  1.0000
  C   C419      1.0  0.51554  0.30091  0.22815  1.0000
  H   H333      1.0  0.60104  0.20756  0.40383  1.0000
  H   H334      1.0  0.55893  0.17369  0.40254  1.0000
  H   H335      1.0  0.51500  0.20215  0.40591  1.0000
  H   H336      1.0  0.55871  0.22368  0.15407  1.0000
  C   C420      1.0  0.52898  0.21446  0.25168  1.0000
  C   C421      1.0  0.51761  0.17701  0.30709  1.0000
  H   H337      1.0  0.58679  0.48353  0.13002  1.0000
  H   H338      1.0  0.53109  0.16519  0.22771  1.0000
  C   C422      1.0  0.52770  0.04751  0.49734  1.0000
  C   C423      1.0  0.63071  0.26824  0.31678  1.0000
  H   H339      1.0  0.63232  0.19177  0.26344  1.0000
  C   C424      1.0  0.62080  0.19391  0.20653  1.0000
  H   H340      1.0  0.59235  0.46949  0.05428  1.0000
  C   C425      1.0  0.47767  0.10275  0.49317  1.0000
  H   H341      1.0  0.52032  0.13266  0.27590  1.0000
  H   H342      1.0  0.57791  0.04679  0.45277  1.0000
  C   C426      1.0  0.48530  0.21034  0.17418  1.0000
  C   C427      1.0  0.48467  0.25022  0.11504  1.0000
  H   H343      1.0  0.63931  0.34563  0.40489  1.0000
  C   C428      1.0  0.53829  0.28319  0.22153  1.0000
  H   H344      1.0  0.58781  0.36013  0.49586  1.0000
  C   C429      1.0  0.61340  0.29259  0.29538  1.0000
  C   C430      1.0  0.63058  0.26443  0.35213  1.0000
  H   H345      1.0  0.48467  0.26501  0.09180  1.0000
  C   C431      1.0  0.61626  0.19905  0.23968  1.0000
  Fe  Fe34      1.0  0.56721  0.49019  0.20869  1.0000
  C   C432      1.0  0.56820  0.05148  0.47385  1.0000
  C   C433      1.0  0.64183  0.17962  0.00632  1.0000
  C   C434      1.0  0.57372  0.49727  0.10753  1.0000
  H   H346      1.0  0.53804  0.46551  0.10400  1.0000
  C   C435      1.0  0.62247  0.39327  0.25631  1.0000
  H   H347      1.0  0.64031  0.18255  0.20452  1.0000
  H   H348      1.0  0.56748  0.01072  0.37363  1.0000
  C   C436      1.0  0.59951  0.40515  0.26711  1.0000
  H   H349      1.0  0.33523  0.47983  0.47123  1.0000
  C   C437      1.0  0.45077  0.03465  0.38729  1.0000
  C   C438      1.0  0.61166  0.32160  0.43190  1.0000
  H   H350      1.0  0.60369  0.19936  0.15022  1.0000
  H   H351      1.0  0.51657  0.22542  0.33211  1.0000
  C   C439      1.0  0.62364  0.39025  0.32759  1.0000
  C   C440      1.0  0.65291  0.46812  0.34775  1.0000
  C   C441      1.0  0.48994  0.37660  0.05011  1.0000
  C   C442      1.0  0.54604  0.48695  0.09247  1.0000
  H   H352      1.0  0.57745  0.28885  0.20731  1.0000
  H   H353      1.0  0.53731  0.38218  0.22240  1.0000
  H   H354      1.0  0.58225  0.33173  0.29247  1.0000
  H   H355      1.0  0.57608  0.36945  0.01051  1.0000
  C   C443      1.0  0.50794  0.23223  0.17532  1.0000
  H   H356      1.0  0.57959  0.12213  0.02903  1.0000
  H   H357      1.0  0.64413  0.25219  0.30590  1.0000
  C   C444      1.0  0.64268  0.28614  0.20577  1.0000
  H   H358      1.0  0.61343  0.40876  0.47920  1.0000
  C   C445      1.0  0.47444  0.43070  0.06785  1.0000
  C   C446      1.0  0.52786  0.17874  0.25032  1.0000
  H   H359      1.0  0.49245  0.10664  0.47775  1.0000
  H   H360      1.0  0.62563  0.15981  0.04779  1.0000
  S   S74       1.0  0.58015  0.49582  0.26802  1.0000
  C   C447      1.0  0.56048  0.30164  0.21469  1.0000
  H   H361      1.0  0.58746  0.21629  0.26804  1.0000
  C   C448      1.0  0.52189  0.16017  0.27771  1.0000
  H   H362      1.0  0.53328  0.43918  0.32515  1.0000
  H   H363      1.0  0.58159  0.41632  0.24785  1.0000
  P   P16       1.0  0.49176  0.49385  0.04836  1.0000
  C   C449      1.0  0.60009  0.20330  0.17589  1.0000
  C   C450      1.0  0.34730  0.45651  0.47236  1.0000
  C   C451      1.0  0.62741  0.38021  0.44042  1.0000
  C   C452      1.0  0.50616  0.42916  0.03060  1.0000
  C   C453      1.0  0.58780  0.46272  0.39493  1.0000
  C   C454      1.0  0.64685  0.37877  0.31689  1.0000
  H   H364      1.0  0.62811  0.33460  0.21823  1.0000
  C   C455      1.0  0.64268  0.23395  0.46231  1.0000
  C   C456      1.0  0.54724  0.49055  0.33735  1.0000
  C   C457      1.0  0.47584  0.02108  0.44826  1.0000
  C   C458      1.0  0.46569  0.03186  0.11127  1.0000
  H   H365      1.0  0.55411  0.29943  0.40886  1.0000
  H   H366      1.0  0.44017  0.05308  0.36749  1.0000
  H   H367      1.0  0.56935  0.41434  0.37647  1.0000
  H   H368      1.0  0.58835  0.30435  0.46801  1.0000
  H   H369      1.0  0.32600  0.44180  0.41904  1.0000
  C   C459      1.0  0.64649  0.38043  0.28104  1.0000
  C   C460      1.0  0.61320  0.50683  0.48995  1.0000
  C   C461      1.0  0.57411  0.39686  0.00748  1.0000
  H   H370      1.0  0.60315  0.45135  0.41709  1.0000
  C   C462      1.0  0.47423  0.39511  0.06843  1.0000
  H   H371      1.0  0.48999  0.34905  0.05078  1.0000
  H   H372      1.0  0.46716  0.15596  0.49283  1.0000
  H   H373      1.0  0.52240  0.01787  0.08006  1.0000
  H   H374      1.0  0.35561  0.01221  0.08142  1.0000
  C   C463      1.0  0.59803  0.35738  0.47490  1.0000
  H   H375      1.0  0.46220  0.38185  0.08349  1.0000
  H   H376      1.0  0.36365  0.04042  0.19954  1.0000
  C   C464      1.0  0.50313  0.01267  0.08708  1.0000
  H   H377      1.0  0.64359  0.24480  0.36803  1.0000
  H   H378      1.0  0.53159  0.50150  0.31499  1.0000
  C   C465      1.0  0.32585  0.05740  0.21215  1.0000
  C   C466      1.0  0.32496  0.11736  0.22682  1.0000
  C   C467      1.0  0.62519  0.50350  0.46162  1.0000
  H   H379      1.0  0.36188  0.14599  0.22591  1.0000
  C   C468      1.0  0.35170  0.12140  0.22187  1.0000
  C   C469      1.0  0.46335  0.13078  0.50173  1.0000
  C   C470      1.0  0.64772  0.48062  0.46481  1.0000
  C   C471      1.0  0.58688  0.49807  0.38943  1.0000
  C   C472      1.0  0.36786  0.44783  0.50344  1.0000
  H   H380      1.0  0.42157  0.47114  0.51630  1.0000
  H   H381      1.0  0.56525  0.03854  0.74092  1.0000
  Fe  Fe35      1.0  0.52715  0.21629  0.56395  1.0000
  S   S75       1.0  0.57134  0.21572  0.59927  1.0000
  S   S76       1.0  0.49146  0.24135  0.58193  1.0000
  Fe  Fe36      1.0  0.58419  0.22526  0.54919  1.0000
  C   C473      1.0  0.64293  0.03591  0.87869  1.0000
  Fe  Fe37      1.0  0.57097  0.15988  0.58546  1.0000
  S   S77       1.0  0.58986  0.11806  0.62553  1.0000
  H   H382      1.0  0.53217  0.07378  0.54689  1.0000
  S   S78       1.0  0.52602  0.15957  0.55315  1.0000
  Fe  Fe38      1.0  0.41631  0.43273  0.70822  1.0000
  S   S79       1.0  0.45585  0.45428  0.69961  1.0000
  S   S80       1.0  0.37163  0.44977  0.68044  1.0000
  Fe  Fe39      1.0  0.44897  0.38587  0.76860  1.0000
  S   S81       1.0  0.49070  0.40423  0.76391  1.0000
  S   S82       1.0  0.44312  0.34456  0.80663  1.0000
  Fe  Fe40      1.0  0.47098  0.45642  0.75907  1.0000
  C   C474      1.0  0.56066  0.41098  0.97446  1.0000
  Fe  Fe41      1.0  0.47168  0.39985  0.70490  1.0000
  S   S83       1.0  0.49817  0.37981  0.66957  1.0000
  S   S84       1.0  0.43046  0.43829  0.76757  1.0000
  S   S85       1.0  0.43103  0.37822  0.70986  1.0000
  S   S86       1.0  0.52564  0.33120  0.96184  1.0000
  C   C475      1.0  0.50167  0.08995  0.84604  1.0000
  H   H383      1.0  0.48945  0.18577  0.82382  1.0000
  C   C476      1.0  0.46718  0.33931  0.84891  1.0000
  C   C477      1.0  0.49214  0.35783  0.85896  1.0000
  C   C478      1.0  0.51059  0.35362  0.89303  1.0000
  C   C479      1.0  0.50427  0.33103  0.91752  1.0000
  C   C480      1.0  0.47958  0.31197  0.90720  1.0000
  C   C481      1.0  0.46119  0.31596  0.87295  1.0000
  H   H384      1.0  0.49702  0.37585  0.84073  1.0000
  H   H385      1.0  0.52957  0.36851  0.90050  1.0000
  H   H386      1.0  0.47410  0.29530  0.92607  1.0000
  H   H387      1.0  0.44189  0.30155  0.86534  1.0000
  C   C482      1.0  0.36079  0.47188  0.63955  1.0000
  C   C483      1.0  0.37990  0.48257  0.62135  1.0000
  C   C484      1.0  0.38349  0.41756  0.50555  1.0000
  H   H388      1.0  0.54197  0.07205  0.96323  1.0000
  C   C485      1.0  0.35234  0.39285  0.60414  1.0000
  C   C486      1.0  0.33194  0.47834  0.62468  1.0000
  H   H389      1.0  0.40215  0.47770  0.63247  1.0000
  H   H390      1.0  0.60565  0.10207  0.80589  1.0000
  C   C487      1.0  0.46784  0.31882  0.53107  1.0000
  C   C488      1.0  0.49498  0.27827  0.60913  1.0000
  C   C489      1.0  0.51774  0.30043  0.61353  1.0000
  C   C490      1.0  0.51849  0.33105  0.63248  1.0000
  C   C491      1.0  0.49686  0.33971  0.64793  1.0000
  C   C492      1.0  0.47464  0.31691  0.64474  1.0000
  C   C493      1.0  0.47356  0.28662  0.62508  1.0000
  H   H391      1.0  0.53432  0.29453  0.60133  1.0000
  H   H392      1.0  0.53581  0.34839  0.63479  1.0000
  H   H393      1.0  0.45799  0.32299  0.65671  1.0000
  H   H394      1.0  0.45584  0.26975  0.62185  1.0000
  Fe  Fe42      1.0  0.53917  0.28824  0.00214  1.0000
  H   H395      1.0  0.48190  0.46315  0.63988  1.0000
  C   C494      1.0  0.54508  0.02642  0.65899  1.0000
  H   H396      1.0  0.57901  0.07840  0.93178  1.0000
  C   C495      1.0  0.58765  0.05796  0.66061  1.0000
  C   C496      1.0  0.57214  0.08213  0.63647  1.0000
  C   C497      1.0  0.54309  0.07760  0.62281  1.0000
  C   C498      1.0  0.52963  0.05021  0.63442  1.0000
  H   H397      1.0  0.44317  0.25028  0.94708  1.0000
  H   H398      1.0  0.61016  0.06095  0.67111  1.0000
  H   H399      1.0  0.53083  0.09535  0.60364  1.0000
  C   C499      1.0  0.46803  0.46548  0.61328  1.0000
  C   C500      1.0  0.52998  0.15894  0.94188  1.0000
  C   C501      1.0  0.36548  0.40432  0.57904  1.0000
  H   H400      1.0  0.64582  0.22894  0.76288  1.0000
  C   C502      1.0  0.45281  0.49565  0.55752  1.0000
  H   H401      1.0  0.58451  0.09848  0.74100  1.0000
  C   C503      1.0  0.48772  0.13543  0.80320  1.0000
  C   C504      1.0  0.47121  0.21919  0.92688  1.0000
  C   C505      1.0  0.60308  0.42872  0.88637  1.0000
  C   C506      1.0  0.45905  0.45796  0.86497  1.0000
  C   C507      1.0  0.42519  0.17611  0.90226  1.0000
  C   C508      1.0  0.45416  0.06579  0.52515  1.0000
  H   H402      1.0  0.58416  0.03551  0.88845  1.0000
  H   H403      1.0  0.58648  0.01185  0.69034  1.0000
  C   C509      1.0  0.51958  0.27112  0.85925  1.0000
  C   C510      1.0  0.54625  0.28085  0.87952  1.0000
  C   C511      1.0  0.56146  0.25977  0.90674  1.0000
  C   C512      1.0  0.55036  0.22858  0.91314  1.0000
  C   C513      1.0  0.52360  0.21827  0.89269  1.0000
  C   C514      1.0  0.50803  0.24039  0.86626  1.0000
  P   P17       1.0  0.50805  0.17882  0.90209  1.0000
  H   H404      1.0  0.50989  0.02270  0.95050  1.0000
  H   H405      1.0  0.63810  0.01133  0.86623  1.0000
  H   H406      1.0  0.42805  0.41955  0.86471  1.0000
  H   H407      1.0  0.44629  0.47090  0.84163  1.0000
  C   C515      1.0  0.44010  0.09396  0.53406  1.0000
  C   C516      1.0  0.58678  0.00814  0.78593  1.0000
  H   H408      1.0  0.48778  0.08240  0.78958  1.0000
  H   H409      1.0  0.49407  0.49129  0.87013  1.0000
  C   C517      1.0  0.61804  0.12565  0.72841  1.0000
  H   H410      1.0  0.59700  0.12920  0.97609  1.0000
  S   S87       1.0  0.53956  0.22851  0.51415  1.0000
  C   C518      1.0  0.55752  0.14863  0.94326  1.0000
  C   C519      1.0  0.50296  0.14866  0.86608  1.0000
  C   C520      1.0  0.50680  0.11370  0.87348  1.0000
  H   H411      1.0  0.50728  0.28833  0.83932  1.0000
  H   H412      1.0  0.55453  0.30545  0.87516  1.0000
  H   H413      1.0  0.58151  0.26804  0.92385  1.0000
  H   H414      1.0  0.56252  0.21362  0.93512  1.0000
  H   H415      1.0  0.48649  0.23477  0.85200  1.0000
  C   C521      1.0  0.58931  0.42352  0.85065  1.0000
  C   C522      1.0  0.53734  0.01345  0.80690  1.0000
  C   C523      1.0  0.43379  0.46962  0.54371  1.0000
  H   H416      1.0  0.44790  0.41792  0.61640  1.0000
  S   S88       1.0  0.54075  0.23168  0.99597  1.0000
  C   C524      1.0  0.57428  0.03005  0.67155  1.0000
  C   C525      1.0  0.56967  0.07754  0.53001  1.0000
  H   H417      1.0  0.56565  0.15216  0.92060  1.0000
  C   C526      1.0  0.56405  0.02698  0.76550  1.0000
  C   C527      1.0  0.60444  0.11115  0.75160  1.0000
  H   H418      1.0  0.52156  0.04364  0.75954  1.0000
  C   C528      1.0  0.56056  0.43049  0.83788  1.0000
  C   C529      1.0  0.44532  0.22733  0.93277  1.0000
  H   H419      1.0  0.64205  0.25684  0.84271  1.0000
  H   H420      1.0  0.64479  0.25739  0.70617  1.0000
  C   C530      1.0  0.44871  0.42928  0.87814  1.0000
  H   H421      1.0  0.35506  0.42385  0.56069  1.0000
  P   P18       1.0  0.54018  0.46386  0.92687  1.0000
  H   H422      1.0  0.40225  0.21220  0.92507  1.0000
  C   C531      1.0  0.50358  0.45196  0.91043  1.0000
  C   C532      1.0  0.56476  0.05704  0.92608  1.0000
  H   H423      1.0  0.52333  0.44774  0.84986  1.0000
  C   C533      1.0  0.56765  0.03264  0.90153  1.0000
  C   C534      1.0  0.46524  0.41282  0.90833  1.0000
  C   C535      1.0  0.49255  0.42411  0.92452  1.0000
  H   H424      1.0  0.64246  0.06095  0.83025  1.0000
  H   H425      1.0  0.50507  0.41005  0.94704  1.0000
  C   C536      1.0  0.62502  0.23416  0.88216  1.0000
  H   H426      1.0  0.45294  0.14451  0.88264  1.0000
  H   H427      1.0  0.60090  0.41431  0.83277  1.0000
  C   C537      1.0  0.42227  0.33840  0.53499  1.0000
  C   C538      1.0  0.62901  0.17281  0.88748  1.0000
  C   C539      1.0  0.49207  0.10080  0.81088  1.0000
  C   C540      1.0  0.44022  0.31190  0.53128  1.0000
  H   H428      1.0  0.49926  0.35737  0.53532  1.0000
  C   C541      1.0  0.58812  0.44088  0.90934  1.0000
  H   H429      1.0  0.51319  0.10461  0.90048  1.0000
  C   C542      1.0  0.45063  0.50308  0.94250  1.0000
  H   H430      1.0  0.45740  0.39027  0.91827  1.0000
  S   S89       1.0  0.61097  0.26982  0.53996  1.0000
  H   H431      1.0  0.40733  0.15941  0.89285  1.0000
  H   H432      1.0  0.58067  0.09241  0.55277  1.0000
  C   C543      1.0  0.53937  0.02976  0.77604  1.0000
  C   C544      1.0  0.64333  0.17186  0.86118  1.0000
  H   H433      1.0  0.55308  0.39419  0.95219  1.0000
  C   C545      1.0  0.51154  0.31508  0.74076  1.0000
  C   C546      1.0  0.48971  0.30933  0.75617  1.0000
  C   C547      1.0  0.48404  0.27640  0.76542  1.0000
  C   C548      1.0  0.50032  0.24911  0.75930  1.0000
  C   C549      1.0  0.52231  0.25468  0.74366  1.0000
  C   C550      1.0  0.52764  0.28789  0.73415  1.0000
  P   P19       1.0  0.54193  0.21891  0.73389  1.0000
  C   C551      1.0  0.57472  0.23243  0.72641  1.0000
  C   C552      1.0  0.54865  0.18948  0.77065  1.0000
  C   C553      1.0  0.55587  0.20187  0.80547  1.0000
  C   C554      1.0  0.56120  0.17930  0.83407  1.0000
  C   C555      1.0  0.55970  0.14426  0.82826  1.0000
  C   C556      1.0  0.55219  0.13175  0.79369  1.0000
  C   C557      1.0  0.54673  0.15422  0.76495  1.0000
  C   C558      1.0  0.57442  0.24838  0.69427  1.0000
  C   C559      1.0  0.59960  0.25750  0.68719  1.0000
  C   C560      1.0  0.62530  0.25056  0.71196  1.0000
  C   C561      1.0  0.62583  0.23456  0.74393  1.0000
  C   C562      1.0  0.60065  0.22546  0.75119  1.0000
  C   C563      1.0  0.52232  0.19857  0.69366  1.0000
  C   C564      1.0  0.49338  0.20465  0.67932  1.0000
  C   C565      1.0  0.47889  0.18932  0.64746  1.0000
  C   C566      1.0  0.49322  0.16820  0.62961  1.0000
  C   C567      1.0  0.52202  0.16239  0.64367  1.0000
  C   C568      1.0  0.53651  0.17728  0.67557  1.0000
  H   H434      1.0  0.51570  0.34066  0.73330  1.0000
  H   H435      1.0  0.47696  0.33037  0.76064  1.0000
  H   H436      1.0  0.46688  0.27229  0.77718  1.0000
  H   H437      1.0  0.49546  0.22365  0.76619  1.0000
  H   H438      1.0  0.54391  0.29313  0.72134  1.0000
  H   H439      1.0  0.55744  0.22899  0.81054  1.0000
  H   H440      1.0  0.56642  0.18907  0.86075  1.0000
  H   H441      1.0  0.56398  0.12682  0.85050  1.0000
  H   H442      1.0  0.55070  0.10458  0.78913  1.0000
  H   H443      1.0  0.54113  0.14390  0.73844  1.0000
  H   H444      1.0  0.55468  0.25349  0.67441  1.0000
  H   H445      1.0  0.59916  0.26960  0.66220  1.0000
  S   S90       1.0  0.61743  0.21373  0.99400  1.0000
  H   H446      1.0  0.37042  0.48751  0.74633  1.0000
  H   H447      1.0  0.60159  0.21261  0.77583  1.0000
  H   H448      1.0  0.48203  0.22189  0.69188  1.0000
  H   H449      1.0  0.45683  0.19502  0.63573  1.0000
  H   H450      1.0  0.48227  0.15747  0.60421  1.0000
  H   H451      1.0  0.53350  0.14724  0.62943  1.0000
  H   H452      1.0  0.55894  0.17269  0.68560  1.0000
  C   C569      1.0  0.43138  0.44158  0.56489  1.0000
  C   C570      1.0  0.39190  0.39124  0.57863  1.0000
  C   C571      1.0  0.40495  0.36674  0.60402  1.0000
  C   C572      1.0  0.39145  0.35484  0.62856  1.0000
  C   C573      1.0  0.36531  0.36818  0.62891  1.0000
  H   H453      1.0  0.44209  0.48649  0.92028  1.0000
  C   C574      1.0  0.44866  0.43975  0.59981  1.0000
  H   H454      1.0  0.42570  0.35696  0.60516  1.0000
  H   H455      1.0  0.40160  0.33585  0.64792  1.0000
  C   C575      1.0  0.55911  0.44761  0.89683  1.0000
  H   H456      1.0  0.51799  0.01554  0.81458  1.0000
  C   C576      1.0  0.43197  0.37210  0.53888  1.0000
  H   H457      1.0  0.64884  0.01603  0.93134  1.0000
  C   C577      1.0  0.32213  0.49461  0.59159  1.0000
  H   H458      1.0  0.50707  0.04746  0.62432  1.0000
  P   P20       1.0  0.40930  0.40592  0.54646  1.0000
  H   H459      1.0  0.48887  0.23604  0.93680  1.0000
  C   C578      1.0  0.52001  0.15380  0.97173  1.0000
  C   C579      1.0  0.61658  0.11300  0.78821  1.0000
  H   H460      1.0  0.33239  0.40383  0.60501  1.0000
  C   C580      1.0  0.37010  0.49914  0.58837  1.0000
  C   C581      1.0  0.57532  0.13547  0.97460  1.0000
  H   H461      1.0  0.50470  0.06309  0.85216  1.0000
  C   C582      1.0  0.64275  0.12869  0.80181  1.0000
  C   C583      1.0  0.45110  0.16782  0.89644  1.0000
  H   H462      1.0  0.35536  0.36000  0.64887  1.0000
  C   C584      1.0  0.47427  0.18944  0.90859  1.0000
  H   H463      1.0  0.46800  0.40440  0.54160  1.0000
  H   H464      1.0  0.61055  0.20464  0.91975  1.0000
  C   C585      1.0  0.54404  0.05335  0.94386  1.0000
  C   C586      1.0  0.64916  0.03847  0.91545  1.0000
  C   C587      1.0  0.48619  0.46954  0.88132  1.0000
  H   H465      1.0  0.59928  0.44511  0.93684  1.0000
  C   C588      1.0  0.34115  0.50511  0.57322  1.0000
  C   C589      1.0  0.49315  0.15927  0.83062  1.0000
  H   H466      1.0  0.62470  0.14992  0.90017  1.0000
  S   S91       1.0  0.49595  0.50024  0.78994  1.0000
  H   H467      1.0  0.56767  0.49483  0.99686  1.0000
  C   C590      1.0  0.64390  0.14171  0.74168  1.0000
  C   C591      1.0  0.55712  0.44632  0.97023  1.0000
  H   H468      1.0  0.40103  0.33254  0.53563  1.0000
  H   H469      1.0  0.54986  0.42695  0.81008  1.0000
  S   S92       1.0  0.58809  0.16961  0.53884  1.0000
  C   C592      1.0  0.54548  0.44242  0.86079  1.0000
  H   H470      1.0  0.43395  0.14832  0.52937  1.0000
  C   C593      1.0  0.62043  0.20393  0.89834  1.0000
  C   C594      1.0  0.42230  0.20585  0.92042  1.0000
  H   H471      1.0  0.60862  0.12432  0.70008  1.0000
  Fe  Fe43      1.0  0.54266  0.17192  0.50670  1.0000
  H   H472      1.0  0.48016  0.14386  0.77592  1.0000
  H   H473      1.0  0.53007  0.01429  0.56301  1.0000
  C   C595      1.0  0.64745  0.27341  0.54308  1.0000
  H   H474      1.0  0.46585  0.46193  0.97845  1.0000
  C   C596      1.0  0.47761  0.35224  0.53462  1.0000
  C   C597      1.0  0.45977  0.37883  0.53839  1.0000
  H   H475      1.0  0.62542  0.42345  0.89626  1.0000
  H   H476      1.0  0.61868  0.25824  0.89101  1.0000
  H   H477      1.0  0.48192  0.29813  0.52907  1.0000
  C   C598      1.0  0.56883  0.46745  0.99932  1.0000
  H   H478      1.0  0.43306  0.28579  0.52950  1.0000
  H   H479      1.0  0.64214  0.32306  0.51897  1.0000
  H   H480      1.0  0.37140  0.46475  0.52588  1.0000
  C   C599      1.0  0.47005  0.49347  0.59221  1.0000
  C   C600      1.0  0.63826  0.23335  0.85506  1.0000
  C   C601      1.0  0.54220  0.06675  0.52670  1.0000
  H   H481      1.0  0.42568  0.09061  0.55013  1.0000
  C   C602      1.0  0.44470  0.12645  0.52236  1.0000
  C   C603      1.0  0.64518  0.06439  0.85827  1.0000
  C   C604      1.0  0.64753  0.20238  0.84475  1.0000
  C   C605      1.0  0.46416  0.48927  0.97572  1.0000
  C   C606      1.0  0.52598  0.02545  0.93674  1.0000
  H   H482      1.0  0.45029  0.04096  0.53461  1.0000
  H   H483      1.0  0.49895  0.16142  0.97180  1.0000
  H   H484      1.0  0.38504  0.50708  0.57442  1.0000
  H   H485      1.0  0.61478  0.49095  0.54303  1.0000
  C   C607      1.0  0.62395  0.48808  0.52112  1.0000
  C   C608      1.0  0.65279  0.09608  0.87449  1.0000
  C   C609      1.0  0.64658  0.46571  0.52413  1.0000
  C   C610      1.0  0.56554  0.13151  0.00448  1.0000
  C   C611      1.0  0.53780  0.14025  0.00290  1.0000
  H   H486      1.0  0.60354  0.07958  0.50557  1.0000
  C   C612      1.0  0.47310  0.07001  0.50460  1.0000
  S   S93       1.0  0.49632  0.95056  0.28552  1.0000
  C   C613      1.0  0.59042  0.56270  0.42721  1.0000
  H   H487      1.0  0.42624  0.81158  0.12620  1.0000
  H   H488      1.0  0.60379  0.99545  0.42922  1.0000
  Fe  Fe44      1.0  0.58815  0.56065  0.19608  1.0000
  S   S94       1.0  0.54644  0.54166  0.19951  1.0000
  S   S95       1.0  0.59340  0.59717  0.15326  1.0000
  Fe  Fe45      1.0  0.56323  0.54949  0.25827  1.0000
  S   S96       1.0  0.53216  0.57099  0.28615  1.0000
  C   C614      1.0  0.49517  0.90255  0.47443  1.0000
  S   S97       1.0  0.60395  0.57207  0.25450  1.0000
  C   C615      1.0  0.43571  0.81216  0.18285  1.0000
  Fe  Fe46      1.0  0.44874  0.71854  0.41248  1.0000
  S   S98       1.0  0.49316  0.72118  0.44787  1.0000
  S   S99       1.0  0.42465  0.67365  0.42664  1.0000
  Fe  Fe47      1.0  0.45886  0.77919  0.36695  1.0000
  S   S100      1.0  0.50342  0.78527  0.39964  1.0000
  S   S101      1.0  0.43903  0.81429  0.32005  1.0000
  Fe  Fe48      1.0  0.50556  0.72789  0.39714  1.0000
  S   S102      1.0  0.54339  0.70176  0.38544  1.0000
  Fe  Fe49      1.0  0.48670  0.77781  0.44707  1.0000
  S   S103      1.0  0.46173  0.72212  0.36182  1.0000
  S   S104      1.0  0.44150  0.77490  0.41412  1.0000
  H   H489      1.0  0.34409  0.61041  0.44368  1.0000
  C   C616      1.0  0.38887  0.67031  0.42678  1.0000
  C   C617      1.0  0.37925  0.63896  0.43599  1.0000
  C   C618      1.0  0.35115  0.63478  0.43671  1.0000
  C   C619      1.0  0.33203  0.66173  0.42702  1.0000
  C   C620      1.0  0.34154  0.69314  0.41768  1.0000
  C   C621      1.0  0.36990  0.69755  0.41785  1.0000
  H   H490      1.0  0.39351  0.61752  0.44196  1.0000
  H   H491      1.0  0.39177  0.92163  0.28657  1.0000
  H   H492      1.0  0.37697  0.72177  0.41056  1.0000
  C   C622      1.0  0.53586  0.60815  0.31265  1.0000
  C   C623      1.0  0.56199  0.62327  0.32754  1.0000
  C   C624      1.0  0.56392  0.65225  0.34923  1.0000
  C   C625      1.0  0.53985  0.66624  0.35653  1.0000
  C   C626      1.0  0.51375  0.65109  0.34154  1.0000
  C   C627      1.0  0.51181  0.62222  0.31980  1.0000
  H   H493      1.0  0.58073  0.61236  0.32279  1.0000
  H   H494      1.0  0.58424  0.66361  0.36086  1.0000
  H   H495      1.0  0.49509  0.66129  0.34710  1.0000
  H   H496      1.0  0.49152  0.61060  0.30863  1.0000
  C   C628      1.0  0.52170  0.62649  0.05487  1.0000
  C   C629      1.0  0.51635  0.60554  0.08131  1.0000
  C   C630      1.0  0.53791  0.59700  0.11189  1.0000
  C   C631      1.0  0.56516  0.60925  0.11637  1.0000
  C   C632      1.0  0.57037  0.63092  0.09037  1.0000
  C   C633      1.0  0.54876  0.63951  0.05972  1.0000
  H   H497      1.0  0.49549  0.59545  0.07800  1.0000
  H   H498      1.0  0.53358  0.58040  0.13162  1.0000
  H   H499      1.0  0.59137  0.64060  0.09367  1.0000
  H   H500      1.0  0.55317  0.65568  0.03963  1.0000
  C   C634      1.0  0.53215  0.67847  0.20747  1.0000
  C   C635      1.0  0.47943  0.91374  0.29587  1.0000
  C   C636      1.0  0.49572  0.88926  0.31879  1.0000
  C   C637      1.0  0.48356  0.85903  0.32681  1.0000
  C   C638      1.0  0.45498  0.85263  0.31160  1.0000
  C   C639      1.0  0.43873  0.87690  0.28834  1.0000
  C   C640      1.0  0.45073  0.90762  0.28101  1.0000
  H   H501      1.0  0.51797  0.89359  0.33024  1.0000
  H   H502      1.0  0.49647  0.84029  0.34412  1.0000
  H   H503      1.0  0.41673  0.87185  0.27602  1.0000
  H   H504      1.0  0.43791  0.92628  0.26343  1.0000
  C   C641      1.0  0.33739  0.96339  0.08676  1.0000
  C   C642      1.0  0.33631  0.93645  0.10953  1.0000
  C   C643      1.0  0.35384  0.93717  0.14439  1.0000
  C   C644      1.0  0.37216  0.96464  0.15655  1.0000
  C   C645      1.0  0.47934  0.98755  0.43789  1.0000
  H   H505      1.0  0.38542  0.96496  0.18352  1.0000
  H   H506      1.0  0.34725  0.84708  0.07705  1.0000
  C   C646      1.0  0.63817  0.54062  0.40207  1.0000
  H   H507      1.0  0.33894  0.82522  0.13373  1.0000
  C   C647      1.0  0.46638  0.89534  0.46606  1.0000
  C   C648      1.0  0.58431  0.52551  0.09394  1.0000
  C   C649      1.0  0.56741  0.54281  0.06459  1.0000
  C   C650      1.0  0.54653  0.67850  0.18119  1.0000
  H   H508      1.0  0.57553  0.56500  0.05440  1.0000
  H   H509      1.0  0.43922  0.81035  0.23884  1.0000
  C   C651      1.0  0.58950  0.66121  0.22454  1.0000
  H   H510      1.0  0.44558  0.99349  0.34997  1.0000
  H   H511      1.0  0.52624  0.82392  0.07971  1.0000
  C   C652      1.0  0.35641  0.92861  0.24061  1.0000
  C   C653      1.0  0.54605  0.58763  0.43044  1.0000
  C   C654      1.0  0.56219  0.55906  0.42741  1.0000
  C   C655      1.0  0.39392  0.71361  0.11328  1.0000
  H   H512      1.0  0.47002  0.75040  0.29537  1.0000
  C   C656      1.0  0.49088  0.98043  0.08122  1.0000
  H   H513      1.0  0.44455  0.86987  0.04213  1.0000
  Fe  Fe50      1.0  0.62004  0.51785  0.26068  1.0000
  H   H514      1.0  0.56500  0.53900  0.35557  1.0000
  H   H515      1.0  0.39287  0.98188  0.30484  1.0000
  H   H516      1.0  0.61146  0.65375  0.23085  1.0000
  H   H517      1.0  0.46969  0.75228  0.15882  1.0000
  S   S105      1.0  0.60814  0.50863  0.20185  1.0000
  C   C657      1.0  0.53955  0.53282  0.04972  1.0000
  H   H518      1.0  0.40898  0.77940  0.05387  1.0000
  C   C658      1.0  0.39989  0.82506  0.02335  1.0000
  C   C659      1.0  0.33679  0.98579  0.23119  1.0000
  C   C660      1.0  0.47328  0.51186  0.07801  1.0000
  H   H519      1.0  0.52405  0.58492  0.42947  1.0000
  H   H520      1.0  0.55243  0.53426  0.42447  1.0000
  H   H521      1.0  0.49125  0.96939  0.45687  1.0000
  H   H522      1.0  0.49510  0.80283  0.28824  1.0000
  C   C661      1.0  0.60240  0.59528  0.43097  1.0000
  C   C662      1.0  0.37929  0.73699  0.08762  1.0000
  C   C663      1.0  0.38383  0.78023  0.17400  1.0000
  C   C664      1.0  0.46785  0.97742  0.40277  1.0000
  C   C665      1.0  0.36212  0.84043  0.06250  1.0000
  H   H523      1.0  0.58677  0.65524  0.27790  1.0000
  C   C666      1.0  0.47474  0.65499  0.20593  1.0000
  H   H524      1.0  0.44209  0.60430  0.49403  1.0000
  C   C667      1.0  0.44397  0.51650  0.06626  1.0000
  H   H525      1.0  0.36391  0.76756  0.17111  1.0000
  C   C668      1.0  0.57506  0.66987  0.18980  1.0000
  H   H526      1.0  0.45155  0.97970  0.49312  1.0000
  C   C669      1.0  0.40026  0.76200  0.48834  1.0000
  H   H527      1.0  0.48452  0.54463  0.16108  1.0000
  C   C670      1.0  0.42647  0.80405  0.21242  1.0000
  H   H528      1.0  0.62402  0.59895  0.43074  1.0000
  H   H529      1.0  0.45572  0.82483  0.18642  1.0000
  H   H530      1.0  0.45450  0.90141  0.48456  1.0000
  P   P21       1.0  0.49540  0.69006  0.19745  1.0000
  H   H531      1.0  0.47011  0.95135  0.39506  1.0000
  H   H532      1.0  0.52674  0.54757  0.02799  1.0000
  C   C671      1.0  0.49433  0.72592  0.22579  1.0000
  C   C672      1.0  0.44153  0.60082  0.21741  1.0000
  C   C673      1.0  0.59783  0.83579  0.42441  1.0000
  H   H533      1.0  0.50063  0.96109  0.06895  1.0000
  C   C674      1.0  0.44580  0.65968  0.20153  1.0000
  H   H534      1.0  0.64924  0.56570  0.32392  1.0000
  H   H535      1.0  0.35323  0.91633  0.16210  1.0000
  C   C675      1.0  0.51190  0.84477  0.08020  1.0000
  C   C676      1.0  0.50908  0.78344  0.24462  1.0000
  H   H536      1.0  0.42892  0.58005  0.22268  1.0000
  C   C677      1.0  0.37725  0.80968  0.06874  1.0000
  C   C678      1.0  0.53878  0.97186  0.37990  1.0000
  C   C679      1.0  0.55803  0.61995  0.43372  1.0000
  C   C680      1.0  0.48444  0.84427  0.05798  1.0000
  C   C681      1.0  0.40189  0.68185  0.10306  1.0000
  C   C682      1.0  0.39545  0.67329  0.06721  1.0000
  C   C683      1.0  0.50223  0.89877  0.10424  1.0000
  C   C684      1.0  0.47491  0.89902  0.08113  1.0000
  C   C685      1.0  0.46593  0.87110  0.05873  1.0000
  P   P22       1.0  0.45033  0.93205  0.08462  1.0000
  C   C686      1.0  0.43880  0.92003  0.12265  1.0000
  C   C687      1.0  0.46636  0.97347  0.09137  1.0000
  H   H537      1.0  0.40217  0.64901  0.05922  1.0000
  H   H538      1.0  0.59539  0.94859  0.46684  1.0000
  C   C688      1.0  0.39687  0.80271  0.04967  1.0000
  H   H539      1.0  0.59198  0.88974  0.42389  1.0000
  H   H540      1.0  0.35617  0.90230  0.23237  1.0000
  C   C689      1.0  0.45448  0.92981  0.15665  1.0000
  C   C690      1.0  0.44645  0.91932  0.18642  1.0000
  C   C691      1.0  0.42285  0.89870  0.18247  1.0000
  C   C692      1.0  0.40751  0.88823  0.14873  1.0000
  C   C693      1.0  0.41564  0.89854  0.11897  1.0000
  C   C694      1.0  0.42170  0.93650  0.04475  1.0000
  C   C695      1.0  0.39483  0.94626  0.04669  1.0000
  H   H541      1.0  0.51026  0.51849  0.12263  1.0000
  H   H542      1.0  0.61325  0.83690  0.40950  1.0000
  C   C696      1.0  0.63228  0.54879  0.36596  1.0000
  C   C697      1.0  0.33387  0.78220  0.09801  1.0000
  C   C698      1.0  0.58982  0.80428  0.43487  1.0000
  H   H543      1.0  0.35184  0.95676  0.01749  1.0000
  H   H544      1.0  0.54533  0.64223  0.43512  1.0000
  H   H545      1.0  0.50914  0.91913  0.12317  1.0000
  C   C699      1.0  0.56980  0.80275  0.45386  1.0000
  C   C700      1.0  0.33654  0.95163  0.22080  1.0000
  H   H546      1.0  0.36094  0.74530  0.03140  1.0000
  C   C701      1.0  0.50900  0.75567  0.22239  1.0000
  H   H547      1.0  0.45858  0.85513  0.38750  1.0000
  C   C702      1.0  0.55750  0.83263  0.46199  1.0000
  H   H548      1.0  0.47300  0.94547  0.16029  1.0000
  H   H549      1.0  0.45858  0.92734  0.21253  1.0000
  H   H550      1.0  0.41645  0.89087  0.20551  1.0000
  H   H551      1.0  0.38907  0.87246  0.14557  1.0000
  H   H552      1.0  0.40378  0.88990  0.09316  1.0000
  H   H553      1.0  0.39095  0.95107  0.07204  1.0000
  H   H554      1.0  0.43502  0.79272  0.48394  1.0000
  H   H555      1.0  0.32685  0.71409  0.41002  1.0000
  C   C703      1.0  0.36510  0.86262  0.03606  1.0000
  H   H556      1.0  0.38525  0.77442  0.46642  1.0000
  C   C704      1.0  0.37282  0.99191  0.13396  1.0000
  S   S106      1.0  0.49398  0.63409  0.01590  1.0000
  C   C705      1.0  0.48126  0.70016  0.15104  1.0000
  C   C706      1.0  0.48060  0.67490  0.12558  1.0000
  C   C707      1.0  0.47014  0.68236  0.08952  1.0000
  C   C708      1.0  0.45999  0.71494  0.07857  1.0000
  C   C709      1.0  0.46007  0.74004  0.10377  1.0000
  C   C710      1.0  0.47035  0.73263  0.13988  1.0000
  H   H557      1.0  0.40713  0.63670  0.20494  1.0000
  H   H558      1.0  0.43614  0.68435  0.19404  1.0000
  H   H559      1.0  0.52062  0.75722  0.20276  1.0000
  C   C711      1.0  0.37707  0.97340  0.28146  1.0000
  H   H560      1.0  0.48872  0.64958  0.13358  1.0000
  H   H561      1.0  0.47015  0.66294  0.06995  1.0000
  H   H562      1.0  0.45198  0.72056  0.05052  1.0000
  H   H563      1.0  0.45227  0.76527  0.09535  1.0000
  H   H564      1.0  0.53606  0.68504  0.15404  1.0000
  C   C712      1.0  0.58620  0.62375  0.43418  1.0000
  C   C713      1.0  0.37232  0.72778  0.05170  1.0000
  P   P23       1.0  0.54791  0.90256  0.46073  1.0000
  C   C714      1.0  0.51081  0.89337  0.45094  1.0000
  C   C715      1.0  0.55399  0.93677  0.43284  1.0000
  C   C716      1.0  0.53398  0.94506  0.40087  1.0000
  C   C717      1.0  0.42931  0.63274  0.20750  1.0000
  H   H565      1.0  0.50931  0.86791  0.40176  1.0000
  H   H566      1.0  0.60545  0.53436  0.10650  1.0000
  C   C718      1.0  0.57931  0.95504  0.44277  1.0000
  C   C719      1.0  0.49742  0.87612  0.41965  1.0000
  C   C720      1.0  0.46869  0.86896  0.41142  1.0000
  C   C721      1.0  0.45316  0.87862  0.43458  1.0000
  C   C722      1.0  0.47017  0.59577  0.22101  1.0000
  H   H567      1.0  0.43424  0.99507  0.11306  1.0000
  C   C723      1.0  0.45353  0.99961  0.10574  1.0000
  C   C724      1.0  0.39265  0.78903  0.14409  1.0000
  H   H568      1.0  0.54187  0.87203  0.12118  1.0000
  C   C725      1.0  0.58566  0.86578  0.43271  1.0000
  C   C726      1.0  0.52074  0.87193  0.10345  1.0000
  H   H569      1.0  0.34762  0.67515  0.50427  1.0000
  H   H570      1.0  0.59514  0.64902  0.43594  1.0000
  H   H571      1.0  0.52317  0.97815  0.35529  1.0000
  H   H572      1.0  0.51476  0.93086  0.39162  1.0000
  H   H573      1.0  0.61133  0.54624  0.34840  1.0000
  C   C727      1.0  0.40065  0.78790  0.20800  1.0000
  H   H574      1.0  0.50893  0.61798  0.21840  1.0000
  C   C728      1.0  0.37656  0.93946  0.27100  1.0000
  C   C729      1.0  0.42837  0.77205  0.49792  1.0000
  C   C730      1.0  0.56530  0.86442  0.45154  1.0000
  H   H575      1.0  0.56332  0.77831  0.46164  1.0000
  H   H576      1.0  0.54161  0.83087  0.47606  1.0000
  H   H577      1.0  0.47978  0.57113  0.22906  1.0000
  H   H578      1.0  0.53640  0.67061  0.26333  1.0000
  H   H579      1.0  0.52050  0.80631  0.24206  1.0000
  H   H580      1.0  0.59886  0.78098  0.42797  1.0000
  C   C731      1.0  0.48676  0.62267  0.21521  1.0000
  C   C732      1.0  0.35725  0.99646  0.26177  1.0000
  C   C733      1.0  0.48062  0.72396  0.25267  1.0000
  C   C734      1.0  0.57551  0.66178  0.25094  1.0000
  C   C735      1.0  0.48067  0.75185  0.27473  1.0000
  C   C736      1.0  0.38067  0.69626  0.04155  1.0000
  H   H581      1.0  0.43109  0.87211  0.42861  1.0000
  C   C737      1.0  0.54696  0.67046  0.24252  1.0000
  H   H582      1.0  0.39370  0.78151  0.23111  1.0000
  C   C738      1.0  0.38389  0.85491  0.01644  1.0000
  C   C739      1.0  0.49488  0.78152  0.27074  1.0000
  H   H583      1.0  0.39953  0.71992  0.14112  1.0000
  C   C740      1.0  0.41890  0.80467  0.14878  1.0000
  H   H584      1.0  0.58595  0.66920  0.16934  1.0000
  H   H585      1.0  0.47042  0.70087  0.25739  1.0000
  H   H586      1.0  0.55314  0.96839  0.49722  1.0000
  H   H587      1.0  0.41354  0.66407  0.12285  1.0000
  P   P24       1.0  0.37089  0.77921  0.10016  1.0000
  C   C741      1.0  0.56642  0.51179  0.36037  1.0000
  H   H588      1.0  0.32047  0.74182  0.05950  1.0000
  C   C742      1.0  0.58418  0.98158  0.42150  1.0000
  P   P25       1.0  0.61046  0.52597  0.42036  1.0000
  H   H589      1.0  0.47743  0.82290  0.04040  1.0000
  C   C743      1.0  0.32429  0.80787  0.11681  1.0000
  C   C744      1.0  0.56381  0.99017  0.39021  1.0000
  C   C745      1.0  0.45378  0.00105  0.37740  1.0000
  H   H590      1.0  0.35213  0.88535  0.03017  1.0000
  C   C746      1.0  0.35538  0.99112  0.09903  1.0000
  C   C747      1.0  0.42650  0.93250  0.01137  1.0000
  H   H591      1.0  0.47829  0.56310  0.02240  1.0000
  H   H592      1.0  0.44736  0.92658  0.00919  1.0000
  C   C748      1.0  0.37269  0.94989  0.01581  1.0000
  H   H593      1.0  0.37598  0.68990  0.01365  1.0000
  C   C749      1.0  0.42947  0.53139  0.08843  1.0000
  H   H594      1.0  0.43292  0.55327  0.13974  1.0000
  C   C750      1.0  0.44409  0.54165  0.12255  1.0000
  Fe  Fe51      1.0  0.47626  0.99865  0.25639  1.0000
  H   H595      1.0  0.40690  0.53504  0.07910  1.0000
  H   H596      1.0  0.59563  0.52391  0.48814  1.0000
  S   S107      1.0  0.49137  0.81528  0.49284  1.0000
  H   H597      1.0  0.50514  0.91466  0.49941  1.0000
  H   H598      1.0  0.36969  0.72839  0.49834  1.0000
  C   C751      1.0  0.47317  0.53681  0.13457  1.0000
  C   C752      1.0  0.48775  0.52190  0.11251  1.0000
  C   C753      1.0  0.47496  0.51078  0.00478  1.0000
  H   H599      1.0  0.32372  0.96338  0.06004  1.0000
  H   H600      1.0  0.32123  0.94260  0.19738  1.0000
  H   H601      1.0  0.43233  0.50879  0.03986  1.0000
  H   H602      1.0  0.41251  0.55601  0.50317  1.0000
  H   H603      1.0  0.41381  0.81857  0.00731  1.0000
  Fe  Fe52      1.0  0.45490  0.65965  0.88785  1.0000
  S   S108      1.0  0.50043  0.66551  0.91739  1.0000
  S   S109      1.0  0.43407  0.62149  0.84552  1.0000
  Fe  Fe53      1.0  0.43546  0.71562  0.93184  1.0000
  S   S110      1.0  0.47977  0.72554  0.96427  1.0000
  S   S111      1.0  0.39606  0.73054  0.94785  1.0000
  Fe  Fe54      1.0  0.49049  0.72199  0.91172  1.0000
  S   S112      1.0  0.52049  0.75982  0.89697  1.0000
  Fe  Fe55      1.0  0.48605  0.66866  0.96723  1.0000
  S   S113      1.0  0.44563  0.71561  0.87927  1.0000
  S   S114      1.0  0.44112  0.65922  0.93722  1.0000
  C   C754      1.0  0.50902  0.93763  0.82294  1.0000
  C   C755      1.0  0.58195  0.89926  0.56855  1.0000
  Fe  Fe56      1.0  0.54725  0.94509  0.70152  1.0000
  S   S115      1.0  0.59033  0.92623  0.70163  1.0000
  C   C756      1.0  0.37729  0.94432  0.98277  1.0000
  Fe  Fe57      1.0  0.53422  0.88088  0.74025  1.0000
  S   S116      1.0  0.57644  0.85863  0.74282  1.0000
  S   S117      1.0  0.50032  0.85110  0.75724  1.0000
  Fe  Fe58      1.0  0.59393  0.91115  0.75822  1.0000
  Fe  Fe59      1.0  0.56852  0.87581  0.68623  1.0000
  S   S118      1.0  0.57617  0.83787  0.64597  1.0000
  S   S119      1.0  0.55160  0.93242  0.75879  1.0000
  S   S120      1.0  0.52538  0.89563  0.68274  1.0000
  C   C757      1.0  0.51506  0.82018  0.53554  1.0000
  C   C758      1.0  0.53842  0.79891  0.54837  1.0000
  C   C759      1.0  0.55680  0.80442  0.58238  1.0000
  C   C760      1.0  0.55191  0.83101  0.60393  1.0000
  C   C761      1.0  0.52844  0.85211  0.59110  1.0000
  C   C762      1.0  0.51020  0.84675  0.55708  1.0000
  H   H604      1.0  0.54246  0.77847  0.53202  1.0000
  H   H605      1.0  0.57501  0.78812  0.59199  1.0000
  H   H606      1.0  0.52464  0.87292  0.60714  1.0000
  H   H607      1.0  0.49228  0.86346  0.54729  1.0000
  C   C763      1.0  0.52690  0.56351  0.94777  1.0000
  H   H608      1.0  0.58006  0.65522  0.78308  1.0000
  P   P26       1.0  0.38050  0.59953  0.69421  1.0000
  C   C764      1.0  0.51443  0.78463  0.85762  1.0000
  C   C765      1.0  0.53482  0.80836  0.85456  1.0000
  C   C766      1.0  0.53123  0.82812  0.82364  1.0000
  C   C767      1.0  0.50680  0.82497  0.79565  1.0000
  C   C768      1.0  0.48625  0.80142  0.79876  1.0000
  C   C769      1.0  0.49006  0.78127  0.82949  1.0000
  H   H609      1.0  0.55363  0.81141  0.87624  1.0000
  H   H610      1.0  0.54715  0.84627  0.82177  1.0000
  H   H611      1.0  0.46741  0.79853  0.77714  1.0000
  H   H612      1.0  0.47431  0.76292  0.83129  1.0000
  C   C770      1.0  0.37696  0.76912  0.94509  1.0000
  C   C771      1.0  0.35212  0.76916  0.95585  1.0000
  C   C772      1.0  0.33602  0.79902  0.95421  1.0000
  C   C773      1.0  0.34440  0.82907  0.94116  1.0000
  C   C774      1.0  0.36924  0.82910  0.93036  1.0000
  C   C775      1.0  0.38567  0.79935  0.93268  1.0000
  H   H613      1.0  0.34514  0.74586  0.96530  1.0000
  H   H614      1.0  0.58966  0.72884  0.70567  1.0000
  H   H615      1.0  0.40497  0.79973  0.92486  1.0000
  C   C776      1.0  0.47856  0.53277  0.80691  1.0000
  C   C777      1.0  0.44921  0.53452  0.79830  1.0000
  C   C778      1.0  0.43595  0.56145  0.81105  1.0000
  C   C779      1.0  0.45184  0.58662  0.83287  1.0000
  C   C780      1.0  0.48122  0.58442  0.84229  1.0000
  C   C781      1.0  0.49450  0.55771  0.82910  1.0000
  S   S121      1.0  0.63069  0.91499  0.80857  1.0000
  H   H616      1.0  0.41323  0.56290  0.80373  1.0000
  H   H617      1.0  0.49370  0.60368  0.85903  1.0000
  H   H618      1.0  0.33659  0.65274  0.67688  1.0000
  H   H619      1.0  0.37584  0.85241  0.92059  1.0000
  H   H620      1.0  0.54264  0.91685  0.90847  1.0000
  C   C782      1.0  0.57258  0.95830  0.55213  1.0000
  C   C783      1.0  0.58461  0.99117  0.81638  1.0000
  C   C784      1.0  0.50705  0.89060  0.87567  1.0000
  C   C785      1.0  0.34221  0.68500  0.52734  1.0000
  C   C786      1.0  0.42374  0.63994  0.52283  1.0000
  H   H621      1.0  0.49737  0.61318  0.74906  1.0000
  H   H622      1.0  0.53273  0.64879  0.73219  1.0000
  H   H623      1.0  0.36393  0.67130  0.81321  1.0000
  C   C787      1.0  0.44802  0.75504  0.52504  1.0000
  C   C788      1.0  0.35538  0.70439  0.58816  1.0000
  C   C789      1.0  0.55794  0.56324  0.90973  1.0000
  H   H624      1.0  0.38522  0.87146  0.99498  1.0000
  C   C790      1.0  0.46787  0.95117  0.54109  1.0000
  C   C791      1.0  0.48757  0.88870  0.84242  1.0000
  H   H625      1.0  0.51514  0.57752  0.96282  1.0000
  C   C792      1.0  0.40570  0.64303  0.75018  1.0000
  C   C793      1.0  0.47107  0.54605  0.00018  1.0000
  C   C794      1.0  0.52606  0.52796  0.94675  1.0000
  C   C795      1.0  0.57138  0.88971  0.53311  1.0000
  H   H626      1.0  0.35001  0.88117  0.79374  1.0000
  H   H627      1.0  0.45557  0.58705  0.96352  1.0000
  H   H628      1.0  0.34058  0.82917  0.74529  1.0000
  C   C796      1.0  0.34868  0.60445  0.65849  1.0000
  H   H629      1.0  0.35322  0.61168  0.75068  1.0000
  H   H630      1.0  0.42438  0.67671  0.79330  1.0000
  C   C797      1.0  0.62878  0.93795  0.93771  1.0000
  C   C798      1.0  0.33835  0.86779  0.80916  1.0000
  C   C799      1.0  0.33976  0.57825  0.63377  1.0000
  H   H631      1.0  0.51513  0.97907  0.90780  1.0000
  H   H632      1.0  0.61045  0.81690  0.80582  1.0000
  H   H633      1.0  0.47068  0.53260  0.65726  1.0000
  C   C800      1.0  0.40356  0.64521  0.54140  1.0000
  C   C801      1.0  0.51284  0.99658  0.55593  1.0000
  P   P27       1.0  0.39989  0.68621  0.56028  1.0000
  C   C802      1.0  0.42203  0.68788  0.60542  1.0000
  C   C803      1.0  0.41095  0.71908  0.53480  1.0000
  C   C804      1.0  0.43943  0.72850  0.54325  1.0000
  C   C805      1.0  0.52904  0.00072  0.91248  1.0000
  H   H634      1.0  0.42965  0.89031  0.91324  1.0000
  C   C806      1.0  0.39153  0.73564  0.50665  1.0000
  H   H635      1.0  0.57324  0.98487  0.55956  1.0000
  C   C807      1.0  0.43008  0.71946  0.62168  1.0000
  C   C808      1.0  0.44833  0.72099  0.65590  1.0000
  C   C809      1.0  0.45816  0.69103  0.67445  1.0000
  C   C810      1.0  0.44990  0.65950  0.65873  1.0000
  C   C811      1.0  0.43203  0.65790  0.62427  1.0000
  C   C812      1.0  0.36325  0.69244  0.55856  1.0000
  H   H636      1.0  0.33977  0.57316  0.79287  1.0000
  H   H637      1.0  0.40764  0.62120  0.76753  1.0000
  H   H638      1.0  0.35987  0.94634  0.95897  1.0000
  H   H639      1.0  0.34949  0.84928  0.68980  1.0000
  C   C813      1.0  0.45387  0.54649  0.66385  1.0000
  C   C814      1.0  0.37118  0.57173  0.72571  1.0000
  C   C815      1.0  0.52732  0.91623  0.88276  1.0000
  H   H640      1.0  0.37144  0.62102  0.56108  1.0000
  H   H641      1.0  0.45509  0.71535  0.56384  1.0000
  C   C816      1.0  0.32690  0.70872  0.58646  1.0000
  S   S122      1.0  0.32447  0.86701  0.93801  1.0000
  C   C817      1.0  0.33126  0.63315  0.65692  1.0000
  C   C818      1.0  0.44792  0.53829  0.93790  1.0000
  H   H642      1.0  0.42262  0.74293  0.60764  1.0000
  H   H643      1.0  0.45497  0.74543  0.66803  1.0000
  H   H644      1.0  0.47204  0.69231  0.70107  1.0000
  H   H645      1.0  0.45741  0.63625  0.67320  1.0000
  H   H646      1.0  0.42631  0.63329  0.61235  1.0000
  H   H647      1.0  0.37106  0.71029  0.61254  1.0000
  H   H648      1.0  0.60084  0.98020  0.93395  1.0000
  C   C819      1.0  0.59004  0.66369  0.76327  1.0000
  H   H649      1.0  0.51722  0.55644  0.83596  1.0000
  C   C820      1.0  0.36125  0.71697  0.78186  1.0000
  H   H650      1.0  0.51003  0.95432  0.80151  1.0000
  H   H651      1.0  0.50706  0.87145  0.89551  1.0000
  C   C821      1.0  0.59946  0.79438  0.81068  1.0000
  C   C822      1.0  0.60029  0.78531  0.84532  1.0000
  C   C823      1.0  0.58650  0.75604  0.85166  1.0000
  C   C824      1.0  0.57166  0.73600  0.82336  1.0000
  C   C825      1.0  0.56985  0.74561  0.78835  1.0000
  C   C826      1.0  0.58452  0.77446  0.78230  1.0000
  P   P28       1.0  0.55262  0.71857  0.75173  1.0000
  C   C827      1.0  0.58080  0.69342  0.74358  1.0000
  C   C828      1.0  0.52583  0.69271  0.76210  1.0000
  C   C829      1.0  0.52089  0.65936  0.74914  1.0000
  C   C830      1.0  0.50068  0.63921  0.75830  1.0000
  C   C831      1.0  0.48506  0.65238  0.77999  1.0000
  C   C832      1.0  0.48920  0.68590  0.79198  1.0000
  C   C833      1.0  0.50918  0.70617  0.78262  1.0000
  H   H652      1.0  0.38450  0.66635  0.66331  1.0000
  C   C834      1.0  0.53487  0.74315  0.71309  1.0000
  C   C835      1.0  0.52527  0.77624  0.71659  1.0000
  C   C836      1.0  0.51284  0.79576  0.68651  1.0000
  C   C837      1.0  0.50961  0.78228  0.65277  1.0000
  C   C838      1.0  0.51810  0.74887  0.64905  1.0000
  C   C839      1.0  0.53041  0.72920  0.67909  1.0000
  H   H653      1.0  0.64234  0.94576  0.96313  1.0000
  C   C840      1.0  0.48857  0.91218  0.81610  1.0000
  H   H654      1.0  0.35473  0.70367  0.75684  1.0000
  H   H655      1.0  0.56170  0.71308  0.82908  1.0000
  H   H656      1.0  0.58455  0.78154  0.75565  1.0000
  H   H657      1.0  0.47430  0.90966  0.78979  1.0000
  H   H658      1.0  0.47244  0.86820  0.83659  1.0000
  H   H659      1.0  0.46980  0.63655  0.78764  1.0000
  H   H660      1.0  0.47722  0.69604  0.80904  1.0000
  H   H661      1.0  0.51210  0.73213  0.79205  1.0000
  C   C841      1.0  0.40943  0.58019  0.68147  1.0000
  H   H662      1.0  0.52783  0.78735  0.74248  1.0000
  H   H663      1.0  0.50629  0.82167  0.68945  1.0000
  H   H664      1.0  0.50091  0.79791  0.62952  1.0000
  H   H665      1.0  0.51571  0.73858  0.62282  1.0000
  H   H666      1.0  0.53710  0.70346  0.67574  1.0000
  H   H667      1.0  0.52866  0.96796  0.60425  1.0000
  C   C842      1.0  0.37519  0.53642  0.72412  1.0000
  C   C843      1.0  0.46877  0.97710  0.51696  1.0000
  C   C844      1.0  0.42725  0.60773  0.50957  1.0000
  C   C845      1.0  0.61772  0.89827  0.88893  1.0000
  H   H668      1.0  0.62295  0.87581  0.87602  1.0000
  H   H669      1.0  0.58957  0.88002  0.58878  1.0000
  H   H670      1.0  0.59080  0.94070  0.60562  1.0000
  H   H671      1.0  0.62911  0.69529  0.69612  1.0000
  H   H672      1.0  0.58699  0.74908  0.87853  1.0000
  C   C846      1.0  0.41056  0.58063  0.51460  1.0000
  H   H673      1.0  0.61963  0.62191  0.77309  1.0000
  C   C847      1.0  0.43013  0.86677  0.89917  1.0000
  C   C848      1.0  0.45339  0.84501  0.90973  1.0000
  C   C849      1.0  0.45399  0.81474  0.89145  1.0000
  C   C850      1.0  0.43123  0.80595  0.86291  1.0000
  C   C851      1.0  0.40735  0.82699  0.85294  1.0000
  C   C852      1.0  0.40725  0.85793  0.87073  1.0000
  P   P29       1.0  0.37798  0.81539  0.81607  1.0000
  C   C853      1.0  0.38445  0.83008  0.77541  1.0000
  C   C854      1.0  0.37345  0.76965  0.81485  1.0000
  C   C855      1.0  0.36486  0.75229  0.78245  1.0000
  C   C856      1.0  0.54137  0.50978  0.92747  1.0000
  C   C857      1.0  0.36627  0.69871  0.81355  1.0000
  C   C858      1.0  0.37444  0.71582  0.84582  1.0000
  C   C859      1.0  0.37812  0.75105  0.84649  1.0000
  C   C860      1.0  0.36196  0.83448  0.74480  1.0000
  C   C861      1.0  0.63491  0.90818  0.92190  1.0000
  C   C862      1.0  0.39438  0.85256  0.71207  1.0000
  C   C863      1.0  0.41688  0.84804  0.74233  1.0000
  C   C864      1.0  0.41198  0.83681  0.77388  1.0000
  H   H674      1.0  0.54351  0.60864  0.93011  1.0000
  C   C865      1.0  0.35764  0.58474  0.75000  1.0000
  C   C866      1.0  0.51206  0.97035  0.57968  1.0000
  H   H675      1.0  0.36086  0.76577  0.75758  1.0000
  C   C867      1.0  0.39068  0.58560  0.53340  1.0000
  C   C868      1.0  0.56153  0.94884  0.51673  1.0000
  C   C869      1.0  0.58263  0.93350  0.57807  1.0000
  H   H676      1.0  0.60209  0.97561  0.83094  1.0000
  H   H677      1.0  0.47209  0.79796  0.89951  1.0000
  H   H678      1.0  0.43219  0.78269  0.84866  1.0000
  H   H679      1.0  0.38934  0.87500  0.86321  1.0000
  C   C870      1.0  0.59538  0.70501  0.71980  1.0000
  H   H680      1.0  0.43631  0.66073  0.51758  1.0000
  C   C871      1.0  0.38720  0.61769  0.54688  1.0000
  H   H681      1.0  0.37825  0.70176  0.87052  1.0000
  H   H682      1.0  0.38462  0.76364  0.87184  1.0000
  C   C872      1.0  0.54288  0.58111  0.92931  1.0000
  H   H683      1.0  0.33813  0.79465  0.85596  1.0000
  H   H684      1.0  0.39827  0.86138  0.68770  1.0000
  H   H685      1.0  0.43820  0.85326  0.74136  1.0000
  H   H686      1.0  0.42980  0.83347  0.79687  1.0000
  H   H687      1.0  0.35182  0.55490  0.63562  1.0000
  H   H688      1.0  0.61161  0.80097  0.86723  1.0000
  H   H689      1.0  0.51367  0.51459  0.96116  1.0000
  C   C873      1.0  0.48967  0.94758  0.57224  1.0000
  C   C874      1.0  0.61797  0.68621  0.71455  1.0000
  C   C875      1.0  0.43299  0.56887  0.70809  1.0000
  C   C876      1.0  0.33173  0.81918  0.84392  1.0000
  C   C877      1.0  0.59438  0.91805  0.87174  1.0000
  C   C878      1.0  0.45795  0.55972  0.96684  1.0000
  C   C879      1.0  0.58790  0.94784  0.88753  1.0000
  C   C880      1.0  0.60528  0.95766  0.92075  1.0000
  P   P30       1.0  0.55631  0.97130  0.86584  1.0000
  C   C881      1.0  0.52841  0.94012  0.85651  1.0000
  H   H690      1.0  0.47258  0.54200  0.72018  1.0000
  H   H691      1.0  0.37747  0.56474  0.53685  1.0000
  C   C882      1.0  0.39275  0.66849  0.69176  1.0000
  C   C883      1.0  0.39360  0.63995  0.71357  1.0000
  C   C884      1.0  0.34670  0.83511  0.82275  1.0000
  H   H692      1.0  0.32079  0.71750  0.60938  1.0000
  C   C885      1.0  0.40428  0.93608  0.98051  1.0000
  S   S123      1.0  0.52684  0.99392  0.67478  1.0000
  C   C886      1.0  0.45500  0.55185  0.69934  1.0000
  H   H693      1.0  0.43784  0.54901  0.91200  1.0000
  C   C887      1.0  0.61263  0.64492  0.75792  1.0000
  C   C888      1.0  0.43090  0.55858  0.63709  1.0000
  H   H694      1.0  0.42184  0.72725  0.75467  1.0000
  C   C889      1.0  0.34978  0.56296  0.77376  1.0000
  H   H695      1.0  0.40161  0.72195  0.68964  1.0000
  H   H696      1.0  0.57007  0.57698  0.89512  1.0000
  H   H697      1.0  0.58154  0.91016  0.84592  1.0000
  C   C890      1.0  0.40881  0.57563  0.64582  1.0000
  H   H698      1.0  0.43399  0.57242  0.73572  1.0000
  H   H699      1.0  0.42990  0.55415  0.60955  1.0000
  H   H700      1.0  0.39132  0.58479  0.62466  1.0000
  C   C891      1.0  0.41406  0.70295  0.74313  1.0000
  H   H701      1.0  0.47099  0.85154  0.93202  1.0000
  C   C892      1.0  0.40260  0.69996  0.70656  1.0000
  H   H702      1.0  0.56888  0.51442  0.89319  1.0000
  H   H703      1.0  0.57083  0.86297  0.52667  1.0000
  H   H704      1.0  0.40783  0.93227  0.95480  1.0000
  C   C893      1.0  0.41555  0.67449  0.76489  1.0000
  H   H705      1.0  0.38423  0.52535  0.70446  1.0000
  H   H706      1.0  0.45466  0.51712  0.54102  1.0000
  H   H707      1.0  0.48909  0.92750  0.59097  1.0000
  S   S124      1.0  0.32979  0.52418  0.53064  1.0000
  H   H708      1.0  0.64876  0.97619  0.77752  1.0000
  C   C894      1.0  0.62650  0.65608  0.73344  1.0000
  C   C895      1.0  0.56162  0.91451  0.50675  1.0000
  C   C896      1.0  0.49150  0.99982  0.52399  1.0000
  C   C897      1.0  0.55967  0.99323  0.82677  1.0000
  H   H709      1.0  0.46997  0.76234  0.53164  1.0000
  C   C898      1.0  0.36694  0.84575  0.71329  1.0000
  H   H710      1.0  0.45020  0.93393  0.53583  1.0000
  C   C899      1.0  0.55019  0.00396  0.89507  1.0000
  C   C900      1.0  0.35468  0.52798  0.77275  1.0000
  C   C901      1.0  0.55723  0.52768  0.90876  1.0000
  H   H711      1.0  0.60570  0.00552  0.77735  1.0000
  C   C902      1.0  0.36719  0.51472  0.74778  1.0000
  H   H712      1.0  0.64415  0.64167  0.72950  1.0000
  H   H713      1.0  0.34847  0.51104  0.79100  1.0000
  H   H714      1.0  0.43667  0.51554  0.78119  1.0000
  H   H715      1.0  0.48533  0.51315  0.60257  1.0000
  S   S125      1.0  0.95166  0.17121  0.43820  1.0000
  S   S126      1.0  0.96310  0.23042  0.38549  1.0000
  Fe  Fe60      1.0  0.95550  0.22787  0.43952  1.0000
  S   S127      1.0  0.93037  0.26042  0.46801  1.0000
  H   H716      1.0  0.88026  0.12781  0.03443  1.0000
  S   S128      1.0  0.94054  0.13985  0.34106  1.0000
  S   S129      1.0  0.78335  0.39578  0.46098  1.0000
  S   S130      1.0  0.73939  0.33247  0.45601  1.0000
  Fe  Fe61      1.0  0.78493  0.33874  0.45777  1.0000
  C   C903      1.0  0.97808  0.13708  0.10596  1.0000
  Fe  Fe62      1.0  0.73875  0.38910  0.46392  1.0000
  S   S131      1.0  0.69730  0.41579  0.43506  1.0000
  S   S132      1.0  0.80260  0.30931  0.41884  1.0000
  H   H717      1.0  0.81385  0.15272  0.08085  1.0000
  H   H718      1.0  0.79001  0.06333  0.36868  1.0000
  H   H719      1.0  0.92169  0.01004  0.17630  1.0000
  H   H720      1.0  0.88946  0.10397  0.45935  1.0000
  H   H721      1.0  0.89729  0.30091  0.50150  1.0000
  C   C904      1.0  0.65842  0.46196  0.49593  1.0000
  C   C905      1.0  0.91361  0.24893  0.12540  1.0000
  C   C906      1.0  0.67563  0.45657  0.21127  1.0000
  C   C907      1.0  0.95230  0.21192  0.17785  1.0000
  C   C908      1.0  0.95078  0.04590  0.30203  1.0000
  C   C909      1.0  0.89499  0.27424  0.45293  1.0000
  C   C910      1.0  0.88394  0.29393  0.47577  1.0000
  C   C911      1.0  0.85580  0.30512  0.46542  1.0000
  C   C912      1.0  0.83846  0.29695  0.43194  1.0000
  C   C913      1.0  0.84959  0.27763  0.40883  1.0000
  C   C914      1.0  0.87775  0.26614  0.41935  1.0000
  C   C915      1.0  0.96832  0.37093  0.19131  1.0000
  H   H722      1.0  0.84765  0.32036  0.48327  1.0000
  C   C916      1.0  0.68084  0.44573  0.17983  1.0000
  H   H723      1.0  0.88619  0.25137  0.40144  1.0000
  H   H724      1.0  0.71738  0.47555  0.33379  1.0000
  C   C917      1.0  0.92277  0.03819  0.41879  1.0000
  C   C918      1.0  0.93891  0.07577  0.31193  1.0000
  C   C919      1.0  0.95613  0.10185  0.33057  1.0000
  H   H725      1.0  0.94769  0.23496  0.24546  1.0000
  C   C920      1.0  0.87323  0.04754  0.38902  1.0000
  C   C921      1.0  0.92427  0.02735  0.00780  1.0000
  H   H726      1.0  0.91628  0.07865  0.30513  1.0000
  H   H727      1.0  0.95957  0.02112  0.10366  1.0000
  H   H728      1.0  0.88222  0.01625  0.01012  1.0000
  C   C922      1.0  0.95572  0.19533  0.06734  1.0000
  C   C923      1.0  0.68883  0.43904  0.39457  1.0000
  C   C924      1.0  0.70917  0.44846  0.37775  1.0000
  C   C925      1.0  0.70142  0.46795  0.34631  1.0000
  C   C926      1.0  0.67329  0.47796  0.33120  1.0000
  H   H729      1.0  0.73092  0.44124  0.38928  1.0000
  H   H730      1.0  0.89201  0.18860  0.35517  1.0000
  C   C927      1.0  0.66562  0.26409  0.21034  1.0000
  H   H731      1.0  0.84445  0.13706  0.14031  1.0000
  H   H732      1.0  0.89876  0.26322  0.10485  1.0000
  C   C928      1.0  0.88009  0.12410  0.12120  1.0000
  C   C929      1.0  0.94877  0.14015  0.09182  1.0000
  H   H733      1.0  0.67215  0.48332  0.21551  1.0000
  H   H734      1.0  0.96730  0.08599  0.05786  1.0000
  H   H735      1.0  0.83216  0.14835  0.02859  1.0000
  C   C930      1.0  0.97286  0.31226  0.21187  1.0000
  H   H736      1.0  0.82978  0.03566  0.47676  1.0000
  C   C931      1.0  0.97644  0.33728  0.18792  1.0000
  H   H737      1.0  0.68133  0.46411  0.15944  1.0000
  H   H738      1.0  0.97723  0.09097  0.22327  1.0000
  C   C932      1.0  0.87300  0.13014  0.05796  1.0000
  C   C933      1.0  0.71374  0.34308  0.32854  1.0000
  C   C934      1.0  0.88922  0.18338  0.49403  1.0000
  H   H739      1.0  0.68941  0.40278  0.15035  1.0000
  C   C935      1.0  0.87897  0.08103  0.38155  1.0000
  C   C936      1.0  0.68483  0.38752  0.20116  1.0000
  H   H740      1.0  0.95826  0.20418  0.30252  1.0000
  H   H741      1.0  0.93784  0.29284  0.14649  1.0000
  H   H742      1.0  0.94721  0.21784  0.05198  1.0000
  C   C937      1.0  0.75632  0.37138  0.36128  1.0000
  H   H743      1.0  0.96647  0.04366  0.01178  1.0000
  C   C938      1.0  0.96072  0.32136  0.23892  1.0000
  C   C939      1.0  0.69494  0.30402  0.25088  1.0000
  C   C940      1.0  0.89646  0.12597  0.47583  1.0000
  C   C941      1.0  0.68546  0.41122  0.17478  1.0000
  C   C942      1.0  0.83535  0.14435  0.08402  1.0000
  C   C943      1.0  0.70798  0.36957  0.30348  1.0000
  C   C944      1.0  0.82531  0.05446  0.45572  1.0000
  C   C945      1.0  0.90100  0.05552  0.04684  1.0000
  Fe  Fe63      1.0  0.96382  0.17292  0.38729  1.0000
  H   H744      1.0  0.67058  0.44157  0.26164  1.0000
  H   H745      1.0  0.92737  0.16822  0.15653  1.0000
  C   C946      1.0  0.95256  0.35504  0.24216  1.0000
  C   C947      1.0  0.92981  0.19537  0.15437  1.0000
  C   C948      1.0  0.75061  0.39801  0.33677  1.0000
  H   H746      1.0  0.80672  0.13533  0.48913  1.0000
  H   H747      1.0  0.71567  0.31103  0.26695  1.0000
  C   C949      1.0  0.67927  0.12323  0.02064  1.0000
  H   H748      1.0  0.83636  0.27140  0.38279  1.0000
  C   C950      1.0  0.65931  0.12809  0.03975  1.0000
  H   H749      1.0  0.95639  0.03479  0.22816  1.0000
  H   H750      1.0  0.90902  0.04015  0.11916  1.0000
  C   C951      1.0  0.67482  0.43291  0.23751  1.0000
  C   C952      1.0  0.69171  0.27294  0.23300  1.0000
  C   C953      1.0  0.98614  0.37741  0.01843  1.0000
  C   C954      1.0  0.95650  0.37984  0.21852  1.0000
  H   H751      1.0  0.88254  0.05785  0.05654  1.0000
  C   C955      1.0  0.95561  0.09729  0.16770  1.0000
  C   C956      1.0  0.79817  0.23240  0.47253  1.0000
  H   H752      1.0  0.67597  0.44458  0.49805  1.0000
  H   H753      1.0  0.98122  0.37045  0.04273  1.0000
  P   P31       1.0  0.95068  0.01058  0.44325  1.0000
  C   C957      1.0  0.81980  0.17867  0.46347  1.0000
  C   C958      1.0  0.81686  0.21399  0.45847  1.0000
  P   P32       1.0  0.84351  0.15479  0.44444  1.0000
  H   H754      1.0  0.65725  0.47727  0.44333  1.0000
  C   C959      1.0  0.83017  0.11199  0.43536  1.0000
  C   C960      1.0  0.97515  0.21553  0.29374  1.0000
  H   H755      1.0  0.66521  0.36984  0.33690  1.0000
  C   C961      1.0  0.80883  0.04576  0.42194  1.0000
  C   C962      1.0  0.80287  0.07006  0.39488  1.0000
  C   C963      1.0  0.81348  0.10303  0.40150  1.0000
  H   H756      1.0  0.91095  0.11909  0.38725  1.0000
  S   S133      1.0  0.70133  0.08663  0.02897  1.0000
  C   C964      1.0  0.69505  0.25293  0.45443  1.0000
  C   C965      1.0  0.91040  0.21386  0.12825  1.0000
  P   P33       1.0  0.92578  0.10546  0.09597  1.0000
  C   C966      1.0  0.84535  0.17442  0.40346  1.0000
  C   C967      1.0  0.87081  0.17457  0.39420  1.0000
  C   C968      1.0  0.87219  0.18867  0.36206  1.0000
  C   C969      1.0  0.84822  0.20332  0.33915  1.0000
  C   C970      1.0  0.82279  0.20356  0.34823  1.0000
  C   C971      1.0  0.82129  0.18904  0.38018  1.0000
  H   H757      1.0  0.79588  0.25963  0.46832  1.0000
  C   C972      1.0  0.94848  0.07119  0.04770  1.0000
  H   H758      1.0  0.74245  0.32345  0.37643  1.0000
  C   C973      1.0  0.95094  0.04819  0.20299  1.0000
  H   H759      1.0  0.82893  0.22739  0.44363  1.0000
  H   H760      1.0  0.93729  0.02600  0.28784  1.0000
  H   H761      1.0  0.85202  0.03787  0.37969  1.0000
  H   H762      1.0  0.94388  0.36208  0.26365  1.0000
  C   C974      1.0  0.67938  0.39826  0.23273  1.0000
  H   H763      1.0  0.80852  0.12133  0.38009  1.0000
  C   C975      1.0  0.87857  0.15421  0.47448  1.0000
  S   S134      1.0  0.78028  0.08894  0.02172  1.0000
  C   C976      1.0  0.93160  0.03411  0.17367  1.0000
  H   H764      1.0  0.89286  0.11708  0.14736  1.0000
  C   C977      1.0  0.93780  0.16945  0.07213  1.0000
  H   H765      1.0  0.68833  0.36094  0.19657  1.0000
  H   H766      1.0  0.84946  0.21473  0.31451  1.0000
  H   H767      1.0  0.80431  0.21534  0.33064  1.0000
  H   H768      1.0  0.80140  0.18938  0.38673  1.0000
  C   C978      1.0  0.89055  0.12131  0.09144  1.0000
  C   C979      1.0  0.96932  0.23282  0.26136  1.0000
  C   C980      1.0  0.95515  0.24736  0.17596  1.0000
  H   H769      1.0  0.93830  0.10531  0.49761  1.0000
  H   H770      1.0  0.84822  0.09390  0.48897  1.0000
  C   C981      1.0  0.69325  0.22640  0.47735  1.0000
  H   H771      1.0  0.77504  0.37201  0.38352  1.0000
  C   C982      1.0  0.92456  0.05128  0.14122  1.0000
  C   C983      1.0  0.90074  0.03165  0.02046  1.0000
  H   H772      1.0  0.71548  0.26117  0.45265  1.0000
  H   H773      1.0  0.86232  0.09747  0.36639  1.0000
  C   C984      1.0  0.84563  0.14178  0.05443  1.0000
  H   H774      1.0  0.72254  0.41837  0.28969  1.0000
  H   H775      1.0  0.87654  0.20621  0.49177  1.0000
  C   C985      1.0  0.67190  0.32628  0.24667  1.0000
  H   H776      1.0  0.88977  0.16406  0.41179  1.0000
  C   C986      1.0  0.93586  0.26567  0.14916  1.0000
  C   C987      1.0  0.92829  0.07206  0.41176  1.0000
  C   C988      1.0  0.90642  0.09326  0.39321  1.0000
  C   C989      1.0  0.80455  0.16235  0.48410  1.0000
  C   C990      1.0  0.92482  0.07577  0.06052  1.0000
  H   H777      1.0  0.96731  0.19710  0.19770  1.0000
  C   C991      1.0  0.73788  0.34396  0.35721  1.0000
  C   C992      1.0  0.85259  0.13554  0.11742  1.0000
  C   C993      1.0  0.78271  0.21590  0.49239  1.0000
  H   H778      1.0  0.97168  0.39022  0.17323  1.0000
  C   C994      1.0  0.95351  0.01325  0.49003  1.0000
  C   C995      1.0  0.89497  0.02628  0.40792  1.0000
  C   C996      1.0  0.83581  0.08746  0.46249  1.0000
  H   H779      1.0  0.89293  0.20103  0.11006  1.0000
  C   C997      1.0  0.92418  0.12656  0.49738  1.0000
  H   H780      1.0  0.65818  0.10990  0.05998  1.0000
  P   P34       1.0  0.67675  0.36808  0.26639  1.0000
  H   H781      1.0  0.69953  0.32180  0.32599  1.0000
  H   H782      1.0  0.96428  0.12229  0.16660  1.0000
  H   H783      1.0  0.70967  0.25616  0.23588  1.0000
  C   C998      1.0  0.93693  0.08272  0.13769  1.0000
  C   C999      1.0  0.72654  0.39720  0.30799  1.0000
  C   C1000     1.0  0.67063  0.26958  0.43490  1.0000
  H   H784      1.0  0.94942  0.08219  0.41998  1.0000
  H   H785      1.0  0.91550  0.17255  0.06006  1.0000
  H   H786      1.0  0.76474  0.41950  0.34034  1.0000
  H   H787      1.0  0.95086  0.40606  0.22166  1.0000
  C   C1001     1.0  0.96280  0.07985  0.20008  1.0000
  H   H788      1.0  0.95802  0.30278  0.25800  1.0000
  H   H789      1.0  0.67247  0.29053  0.41777  1.0000
  C   C1002     1.0  0.98473  0.19218  0.08187  1.0000
  C   C1003     1.0  0.94816  0.04707  0.02147  1.0000
  C   C1004     1.0  0.93261  0.02945  0.50227  1.0000
  H   H790      1.0  0.91400  0.04002  0.48391  1.0000
  H   H791      1.0  0.80058  0.02021  0.41673  1.0000
  C   C1005     1.0  0.98005  0.04219  0.31003  1.0000
  C   C1006     1.0  0.66071  0.44898  0.37929  1.0000
  C   C1007     1.0  0.98535  0.09784  0.33900  1.0000
  P   P35       1.0  0.98356  0.26886  0.20744  1.0000
  H   H792      1.0  0.66581  0.19758  0.50040  1.0000
  C   C1008     1.0  0.66708  0.21696  0.48129  1.0000
  S   S135      1.0  0.66463  0.50320  0.29211  1.0000
  C   C1009     1.0  0.98357  0.02455  0.43624  1.0000
  H   H793      1.0  0.66338  0.24063  0.19544  1.0000
  H   H794      1.0  0.98567  0.33089  0.16676  1.0000
  H   H795      1.0  0.71225  0.21435  0.49338  1.0000
  C   C1010     1.0  0.78606  0.18091  0.49840  1.0000
  S   S136      1.0  0.82997  0.00808  0.02779  1.0000
  H   H796      1.0  0.76842  0.23041  0.50349  1.0000
  H   H797      1.0  0.97058  0.10092  0.69398  1.0000
  S   S137      1.0  0.83739  0.41306  0.55244  1.0000
  C   C1011     1.0  0.91767  0.37266  0.59349  1.0000
  H   H798      1.0  0.95500  0.29637  0.75095  1.0000
  H   H799      1.0  0.97549  0.01788  0.81517  1.0000
  H   H800      1.0  0.69643  0.14419  0.98058  1.0000
  H   H801      1.0  0.69176  0.32924  0.51864  1.0000
  C   C1012     1.0  0.87451  0.26436  0.61902  1.0000
  S   S138      1.0  0.93725  0.27314  0.93858  1.0000
  Fe  Fe64      1.0  0.93730  0.22114  0.91558  1.0000
  S   S139      1.0  0.90247  0.18187  0.90091  1.0000
  C   C1013     1.0  0.97278  0.38055  0.95458  1.0000
  S   S140      1.0  0.93895  0.33788  0.86630  1.0000
  S   S141      1.0  0.78873  0.05811  0.94752  1.0000
  S   S142      1.0  0.73122  0.09930  0.94650  1.0000
  Fe  Fe65      1.0  0.74221  0.04699  0.93091  1.0000
  Fe  Fe66      1.0  0.77774  0.10820  0.96707  1.0000
  S   S143      1.0  0.79765  0.15943  0.96251  1.0000
  C   C1014     1.0  0.87461  0.17539  0.92040  1.0000
  C   C1015     1.0  0.85402  0.36178  0.67958  1.0000
  C   C1016     1.0  0.83605  0.13935  0.92672  1.0000
  C   C1017     1.0  0.82816  0.16404  0.94774  1.0000
  C   C1018     1.0  0.84398  0.19403  0.95572  1.0000
  C   C1019     1.0  0.86737  0.19953  0.94251  1.0000
  C   C1020     1.0  0.89486  0.26241  0.60019  1.0000
  C   C1021     1.0  0.65751  0.06959  0.93187  1.0000
  H   H802      1.0  0.87924  0.22284  0.94853  1.0000
  C   C1022     1.0  0.83943  0.46304  0.64473  1.0000
  C   C1023     1.0  0.70480  0.28135  0.54461  1.0000
  S   S144      1.0  0.80003  0.33075  0.51626  1.0000
  C   C1024     1.0  0.95403  0.24987  0.60056  1.0000
  H   H803      1.0  0.93988  0.35607  0.76394  1.0000
  H   H804      1.0  0.91326  0.11970  0.93823  1.0000
  C   C1025     1.0  0.88407  0.47211  0.63239  1.0000
  S   S145      1.0  0.74324  0.02277  0.98332  1.0000
  C   C1026     1.0  0.94116  0.39687  0.83042  1.0000
  H   H805      1.0  0.79562  0.35531  0.59034  1.0000
  H   H806      1.0  0.91848  0.39711  0.82507  1.0000
  C   C1027     1.0  0.84764  0.43804  0.59170  1.0000
  C   C1028     1.0  0.90843  0.09623  0.85885  1.0000
  C   C1029     1.0  0.87244  0.12184  0.81037  1.0000
  C   C1030     1.0  0.83001  0.44354  0.61357  1.0000
  C   C1031     1.0  0.85574  0.38291  0.77401  1.0000
  H   H807      1.0  0.89432  0.40785  0.66821  1.0000
  H   H808      1.0  0.80909  0.43292  0.60643  1.0000
  C   C1032     1.0  0.81182  0.35667  0.61529  1.0000
  C   C1033     1.0  0.93761  0.21882  0.71385  1.0000
  C   C1034     1.0  0.95327  0.12766  0.97545  1.0000
  H   H809      1.0  0.96908  0.13132  0.74849  1.0000
  C   C1035     1.0  0.95244  0.48844  0.89076  1.0000
  H   H810      1.0  0.86349  0.29482  0.69303  1.0000
  C   C1036     1.0  0.66191  0.17486  0.98743  1.0000
  C   C1037     1.0  0.68073  0.14710  0.99482  1.0000
  H   H811      1.0  0.88795  0.43727  0.73000  1.0000
  P   P36       1.0  0.65781  0.13280  0.84908  1.0000
  C   C1038     1.0  0.87422  0.29257  0.72086  1.0000
  S   S146      1.0  0.95420  0.23945  0.87118  1.0000
  C   C1039     1.0  0.93287  0.22767  0.67819  1.0000
  H   H812      1.0  0.90607  0.33927  0.79368  1.0000
  H   H813      1.0  0.68376  0.02078  0.80398  1.0000
  H   H814      1.0  0.71089  0.23271  0.57113  1.0000
  C   C1040     1.0  0.94535  0.28594  0.69506  1.0000
  H   H815      1.0  0.65875  0.20234  0.82468  1.0000
  H   H816      1.0  0.89180  0.07161  0.95014  1.0000
  C   C1041     1.0  0.80500  0.36745  0.64576  1.0000
  C   C1042     1.0  0.65967  0.09810  0.91154  1.0000
  H   H817      1.0  0.84904  0.04690  0.95912  1.0000
  C   C1043     1.0  0.96282  0.33152  0.62965  1.0000
  Fe  Fe67      1.0  0.97543  0.49848  0.77389  1.0000
  C   C1044     1.0  0.96420  0.38698  0.73889  1.0000
  H   H818      1.0  0.65439  0.15278  0.72349  1.0000
  C   C1045     1.0  0.83742  0.25668  0.56474  1.0000
  Fe  Fe68      1.0  0.95790  0.29067  0.89736  1.0000
  C   C1046     1.0  0.89135  0.14694  0.80681  1.0000
  C   C1047     1.0  0.95901  0.26395  0.56994  1.0000
  P   P37       1.0  0.93113  0.27218  0.62216  1.0000
  H   H819      1.0  0.90116  0.25674  0.54800  1.0000
  Fe  Fe69      1.0  0.98126  0.26105  0.97165  1.0000
  H   H820      1.0  0.88839  0.44894  0.58442  1.0000
  H   H821      1.0  0.98299  0.42243  0.71047  1.0000
  H   H822      1.0  0.67629  0.15592  0.78790  1.0000
  H   H823      1.0  0.94748  0.41360  0.60289  1.0000
  C   C1048     1.0  0.69579  0.25233  0.55941  1.0000
  C   C1049     1.0  0.88613  0.25727  0.56345  1.0000
  C   C1050     1.0  0.66717  0.24818  0.55834  1.0000
  C   C1051     1.0  0.95524  0.47137  0.92278  1.0000
  C   C1052     1.0  0.91701  0.18391  0.51536  1.0000
  C   C1053     1.0  0.85597  0.03945  0.93629  1.0000
  C   C1054     1.0  0.98443  0.20204  0.59608  1.0000
  C   C1055     1.0  0.93441  0.15548  0.51722  1.0000
  H   H824      1.0  0.97983  0.25814  0.52883  1.0000
  H   H825      1.0  0.92396  0.00870  0.98746  1.0000
  H   H826      1.0  0.77428  0.16821  0.51418  1.0000
  C   C1056     1.0  0.87472  0.45243  0.60139  1.0000
  C   C1057     1.0  0.94436  0.38674  0.60677  1.0000
  S   S147      1.0  0.97993  0.20718  0.95115  1.0000
  C   C1058     1.0  0.96628  0.01245  0.83668  1.0000
  C   C1059     1.0  0.98626  0.37054  0.85759  1.0000
  C   C1060     1.0  0.94947  0.27709  0.73062  1.0000
  H   H827      1.0  0.90470  0.48355  0.63904  1.0000
  H   H828      1.0  0.83792  0.21330  0.97185  1.0000
  C   C1061     1.0  0.93764  0.26107  0.66852  1.0000
  H   H829      1.0  0.66038  0.22553  0.56920  1.0000
  C   C1062     1.0  0.87646  0.26044  0.73681  1.0000
  C   C1063     1.0  0.82601  0.37010  0.67781  1.0000
  C   C1064     1.0  0.96696  0.48791  0.95499  1.0000
  C   C1065     1.0  0.83964  0.34848  0.61679  1.0000
  C   C1066     1.0  0.90018  0.28535  0.79326  1.0000
  C   C1067     1.0  0.74009  0.11577  0.85249  1.0000
  C   C1068     1.0  0.75419  0.14210  0.87386  1.0000
  C   C1069     1.0  0.73905  0.16587  0.88774  1.0000
  C   C1070     1.0  0.70981  0.16331  0.88041  1.0000
  C   C1071     1.0  0.69542  0.13736  0.85822  1.0000
  C   C1072     1.0  0.71080  0.11343  0.84463  1.0000
  H   H830      1.0  0.82029  0.37876  0.70102  1.0000
  H   H831      1.0  0.88460  0.16689  0.78728  1.0000
  C   C1073     1.0  0.91348  0.33809  0.59821  1.0000
  H   H832      1.0  0.78346  0.37428  0.64433  1.0000
  H   H833      1.0  0.83694  0.39806  0.81506  1.0000
  H   H834      1.0  0.94904  0.28761  0.55877  1.0000
  H   H835      1.0  0.91987  0.04550  0.54804  1.0000
  H   H836      1.0  0.82400  0.11621  0.92030  1.0000
  H   H837      1.0  0.75187  0.09648  0.84291  1.0000
  H   H838      1.0  0.77694  0.14358  0.88064  1.0000
  H   H839      1.0  0.75021  0.18553  0.90534  1.0000
  H   H840      1.0  0.69882  0.18111  0.89288  1.0000
  H   H841      1.0  0.70028  0.09233  0.82878  1.0000
  C   C1074     1.0  0.86066  0.35071  0.64886  1.0000
  H   H842      1.0  0.88208  0.34409  0.64966  1.0000
  C   C1075     1.0  0.89811  0.31742  0.77737  1.0000
  H   H843      1.0  0.88057  0.26935  0.64712  1.0000
  H   H844      1.0  0.83019  0.26371  0.61576  1.0000
  P   P38       1.0  0.91992  0.06369  0.89237  1.0000
  H   H845      1.0  0.94983  0.23670  0.76777  1.0000
  H   H846      1.0  0.82559  0.46717  0.66139  1.0000
  S   S148      1.0  0.87704  0.50244  0.69350  1.0000
  H   H847      1.0  0.94181  0.44228  0.79986  1.0000
  C   C1076     1.0  0.85485  0.44078  0.79484  1.0000
  C   C1077     1.0  0.84812  0.40644  0.79646  1.0000
  C   C1078     1.0  0.93598  0.31723  0.61662  1.0000
  H   H848      1.0  0.94593  0.14941  0.98743  1.0000
  H   H849      1.0  0.86568  0.07779  0.83862  1.0000
  C   C1079     1.0  0.93930  0.37158  0.74105  1.0000
  H   H850      1.0  0.86782  0.23839  0.72117  1.0000
  C   C1080     1.0  0.96393  0.40927  0.71114  1.0000
  H   H851      1.0  0.94805  0.44536  0.92250  1.0000
  H   H852      1.0  0.84883  0.45909  0.81203  1.0000
  C   C1081     1.0  0.93874  0.41605  0.68538  1.0000
  C   C1082     1.0  0.87704  0.42813  0.74855  1.0000
  H   H853      1.0  0.94832  0.12235  0.87281  1.0000
  C   C1083     1.0  0.91387  0.37809  0.71514  1.0000
  H   H854      1.0  0.93317  0.16680  0.82706  1.0000
  C   C1084     1.0  0.98191  0.14108  0.73235  1.0000
  C   C1085     1.0  0.91876  0.14678  0.82910  1.0000
  Fe  Fe70      1.0  0.75431  0.32893  0.51513  1.0000
  Fe  Fe71      1.0  0.73440  0.07615  0.99951  1.0000
  C   C1086     1.0  0.91381  0.40067  0.68738  1.0000
  H   H855      1.0  0.93826  0.43442  0.66465  1.0000
  C   C1087     1.0  0.87063  0.39354  0.75019  1.0000
  C   C1088     1.0  0.93466  0.11065  0.94750  1.0000
  C   C1089     1.0  0.92724  0.12163  0.85513  1.0000
  C   C1090     1.0  0.95437  0.42273  0.81632  1.0000
  Fe  Fe72      1.0  0.78926  0.03781  0.00160  1.0000
  C   C1091     1.0  0.98148  0.11771  0.98669  1.0000
  H   H856      1.0  0.87396  0.47832  0.76882  1.0000
  C   C1092     1.0  0.86914  0.45161  0.77073  1.0000
  C   C1093     1.0  0.84592  0.26134  0.60134  1.0000
  H   H857      1.0  0.66318  0.19299  0.96722  1.0000
  H   H858      1.0  0.95623  0.15627  0.53278  1.0000
  H   H859      1.0  0.86420  0.12660  0.89541  1.0000
  H   H860      1.0  0.98054  0.31583  0.64340  1.0000
  P   P39       1.0  0.88094  0.36341  0.72133  1.0000
  H   H861      1.0  0.81519  0.25553  0.55098  1.0000
  C   C1094     1.0  0.94380  0.08314  0.93081  1.0000
  C   C1095     1.0  0.65683  0.30289  0.52965  1.0000
  C   C1096     1.0  0.88950  0.04422  0.90146  1.0000
  H   H862      1.0  0.84998  0.35653  0.77533  1.0000
  H   H863      1.0  0.94727  0.06160  0.83410  1.0000
  C   C1097     1.0  0.87364  0.02055  0.87735  1.0000
  C   C1098     1.0  0.88937  0.25686  0.77305  1.0000
  C   C1099     1.0  0.88507  0.32139  0.74106  1.0000
  H   H864      1.0  0.92527  0.20846  0.65816  1.0000
  C   C1100     1.0  0.85886  0.14530  0.91264  1.0000
  C   C1101     1.0  0.95986  0.01959  0.56300  1.0000
  H   H865      1.0  0.84485  0.34117  0.59278  1.0000
  C   C1102     1.0  0.95696  0.37048  0.85074  1.0000
  H   H866      1.0  0.90975  0.28279  0.82149  1.0000
  H   H867      1.0  0.98344  0.38330  0.75990  1.0000
  H   H868      1.0  0.89077  0.23216  0.78571  1.0000
  C   C1103     1.0  0.98361  0.42269  0.82272  1.0000
  C   C1104     1.0  0.96707  0.21874  0.61359  1.0000
  H   H869      1.0  0.85095  0.25199  0.51735  1.0000
  S   S149      1.0  0.74057  0.28507  0.54447  1.0000
  C   C1105     1.0  0.86648  0.47750  0.65431  1.0000
  H   H870      1.0  0.85103  0.12233  0.79352  1.0000
  H   H871      1.0  0.90013  0.38848  0.57917  1.0000
  C   C1106     1.0  0.85752  0.25457  0.54585  1.0000
  S   S150      1.0  0.75160  0.38533  0.52395  1.0000
  S   S151      1.0  0.72058  0.03098  0.87370  1.0000
  C   C1107     1.0  0.84011  0.01642  0.91190  1.0000
  C   C1108     1.0  0.97231  0.07336  0.94221  1.0000
  Fe  Fe73      1.0  0.79653  0.38767  0.52043  1.0000
  C   C1109     1.0  0.94622  0.24346  0.74009  1.0000
  H   H872      1.0  0.94772  0.31231  0.68863  1.0000
  H   H873      1.0  0.89262  0.32802  0.58701  1.0000
  H   H874      1.0  0.97389  0.10861  0.82242  1.0000
  C   C1110     1.0  0.88091  0.09652  0.83618  1.0000
  C   C1111     1.0  0.96693  0.36621  0.62489  1.0000
  H   H875      1.0  0.93444  0.19286  0.72115  1.0000
  H   H876      1.0  0.96433  0.20718  0.63726  1.0000
  H   H877      1.0  0.95739  0.37632  0.92940  1.0000
  H   H878      1.0  0.94336  0.47564  0.86581  1.0000
  C   C1112     1.0  0.68514  0.30665  0.52981  1.0000
  C   C1113     1.0  0.95025  0.03736  0.84762  1.0000
  C   C1114     1.0  0.93880  0.03096  0.87597  1.0000
  C   C1115     1.0  0.88044  0.05345  0.93105  1.0000
  C   C1116     1.0  0.65625  0.14325  0.77821  1.0000
  H   H879      1.0  0.66777  0.12147  0.92489  1.0000
  H   H880      1.0  0.96255  0.02220  0.59121  1.0000
  C   C1117     1.0  0.96610  0.37286  0.98597  1.0000
  H   H881      1.0  0.98052  0.05323  0.92913  1.0000
  C   C1118     1.0  0.97649  0.24727  0.55273  1.0000
  H   H882      1.0  0.66355  0.07131  0.96050  1.0000
  S   S152      1.0  0.96187  0.50354  0.71452  1.0000
  C   C1119     1.0  0.93585  0.03264  0.53865  1.0000
  H   H883      1.0  0.92542  0.20693  0.52924  1.0000
  C   C1120     1.0  0.98281  0.12383  0.70167  1.0000
  H   H884      1.0  0.87995  0.01334  0.85404  1.0000
  H   H885      1.0  0.65499  0.45125  0.54829  1.0000
  H   H886      1.0  0.94564  0.36250  0.98507  1.0000
  H   H887      1.0  0.98184  0.16025  0.86063  1.0000
  H   H888      1.0  0.96813  0.47436  0.97929  1.0000
  H   H889      1.0  0.93219  0.97794  0.06339  1.0000
  H   H890      1.0  0.95399  0.78125  0.11861  1.0000
  S   S153      1.0  0.93661  0.87594  0.22634  1.0000
  H   H891      1.0  0.80357  0.99698  0.08554  1.0000
  C   C1121     1.0  0.97275  0.83803  0.36415  1.0000
  S   S154      1.0  0.93206  0.94161  0.27582  1.0000
  C   C1122     1.0  0.95569  0.93530  0.09183  1.0000
  Fe  Fe74      1.0  0.95195  0.88945  0.28433  1.0000
  S   S155      1.0  0.94566  0.85494  0.32839  1.0000
  Fe  Fe75      1.0  0.92082  0.93031  0.21724  1.0000
  S   S156      1.0  0.87679  0.94667  0.18436  1.0000
  H   H892      1.0  0.93806  0.88638  0.45512  1.0000
  S   S157      1.0  0.96126  0.95079  0.21017  1.0000
  C   C1123     1.0  0.97768  0.92568  0.12129  1.0000
  C   C1124     1.0  0.86473  0.96548  0.14148  1.0000
  C   C1125     1.0  0.82553  0.98974  0.09481  1.0000
  C   C1126     1.0  0.84293  0.99343  0.07240  1.0000
  C   C1127     1.0  0.95848  0.66157  0.11851  1.0000
  C   C1128     1.0  0.96471  0.99450  0.10842  1.0000
  C   C1129     1.0  0.88232  0.96997  0.11940  1.0000
  H   H893      1.0  0.97622  0.61152  0.13076  1.0000
  C   C1130     1.0  0.94991  0.83790  0.04482  1.0000
  Fe  Fe76      1.0  0.97326  0.95915  0.26918  1.0000
  H   H894      1.0  0.90419  0.96243  0.12855  1.0000
  H   H895      1.0  0.89218  0.88024  0.15942  1.0000
  H   H896      1.0  0.92994  0.90129  0.13559  1.0000
  H   H897      1.0  0.94346  0.81383  0.38807  1.0000
  C   C1131     1.0  0.94924  0.96992  0.08559  1.0000
  C   C1132     1.0  0.93673  0.90757  0.43709  1.0000
  H   H898      1.0  0.92348  0.87639  0.39034  1.0000
  H   H899      1.0  0.70844  0.55828  0.42649  1.0000
  C   C1133     1.0  0.97462  0.70416  0.16398  1.0000
  C   C1134     1.0  0.83635  0.97570  0.12902  1.0000
  C   C1135     1.0  0.88671  0.86787  0.06000  1.0000
  H   H900      1.0  0.69788  0.57065  0.36221  1.0000
  C   C1136     1.0  0.95989  0.87060  0.05558  1.0000
  C   C1137     1.0  0.87142  0.98375  0.08514  1.0000
  H   H901      1.0  0.96033  0.78788  0.02983  1.0000
  C   C1138     1.0  0.86556  0.85557  0.07404  1.0000
  P   P40       1.0  0.93605  0.90319  0.06254  1.0000
  H   H902      1.0  0.92838  0.83101  0.04258  1.0000
  H   H903      1.0  0.97383  0.59878  0.28331  1.0000
  H   H904      1.0  0.85097  0.85124  0.12076  1.0000
  C   C1139     1.0  0.91014  0.88476  0.08175  1.0000
  C   C1140     1.0  0.94255  0.96777  0.42686  1.0000
  C   C1141     1.0  0.94381  0.94036  0.45024  1.0000
  C   C1142     1.0  0.86761  0.86001  0.10990  1.0000
  C   C1143     1.0  0.89125  0.93580  0.01421  1.0000
  C   C1144     1.0  0.68119  0.56307  0.37356  1.0000
  C   C1145     1.0  0.93356  0.96187  0.39018  1.0000
  H   H905      1.0  0.98274  0.89907  0.12684  1.0000
  H   H906      1.0  0.95895  0.83006  0.16010  1.0000
  H   H907      1.0  0.97445  0.73043  0.17204  1.0000
  H   H908      1.0  0.82254  0.97244  0.14585  1.0000
  C   C1146     1.0  0.97434  0.79290  0.12907  1.0000
  C   C1147     1.0  0.97708  0.82067  0.15256  1.0000
  H   H909      1.0  0.84732  0.84313  0.05704  1.0000
  H   H910      1.0  0.94530  0.71405  0.11322  1.0000
  C   C1148     1.0  0.65371  0.56015  0.35192  1.0000
  C   C1149     1.0  0.97557  0.63725  0.14026  1.0000
  H   H911      1.0  0.98054  0.55814  0.06421  1.0000
  C   C1150     1.0  0.92846  0.90187  0.40062  1.0000
  C   C1151     1.0  0.89098  0.87628  0.13179  1.0000
  H   H912      1.0  0.89012  0.00040  0.41353  1.0000
  C   C1152     1.0  0.68712  0.55588  0.40967  1.0000
  Fe  Fe77      1.0  0.97782  0.89710  0.22249  1.0000
  H   H913      1.0  0.97900  0.70214  0.27776  1.0000
  H   H914      1.0  0.95024  0.94403  0.47856  1.0000
  C   C1153     1.0  0.91230  0.88843  0.11795  1.0000
  H   H915      1.0  0.94608  0.65482  0.09213  1.0000
  C   C1154     1.0  0.95789  0.69491  0.13047  1.0000
  C   C1155     1.0  0.92677  0.92902  0.37720  1.0000
  H   H916      1.0  0.92044  0.92439  0.34889  1.0000
  H   H917      1.0  0.88448  0.86477  0.03199  1.0000
  H   H918      1.0  0.97160  0.64626  0.24139  1.0000
  H   H919      1.0  0.93187  0.98264  0.37150  1.0000
  H   H920      1.0  0.88517  0.98680  0.06839  1.0000
  H   H921      1.0  0.95983  0.75362  0.29834  1.0000
  C   C1156     1.0  0.97288  0.75577  0.28034  1.0000
  H   H922      1.0  0.88078  0.93615  0.03506  1.0000
  C   C1157     1.0  0.96791  0.81337  0.03720  1.0000
  C   C1158     1.0  0.96542  0.81837  0.39020  1.0000
  C   C1159     1.0  0.97887  0.78791  0.26928  1.0000
  C   C1160     1.0  0.91834  0.92174  0.02011  1.0000
  H   H923      1.0  0.98034  0.78837  0.43807  1.0000
  H   H924      1.0  0.97918  0.81803  0.49381  1.0000
  H   H925      1.0  0.98105  0.99368  0.38967  1.0000
  H   H926      1.0  0.97059  0.81054  0.27876  1.0000
  C   C1161     1.0  0.66564  0.54528  0.42402  1.0000
  H   H927      1.0  0.67069  0.54059  0.45220  1.0000
  H   H928      1.0  0.98579  0.91659  0.38029  1.0000
  C   C1162     1.0  0.98378  0.72659  0.26843  1.0000
  C   C1163     1.0  0.98628  0.80407  0.41873  1.0000
  Fe  Fe78      1.0  0.95096  0.56753  0.78562  1.0000
  H   H929      1.0  0.95795  0.53591  0.86607  1.0000
  S   S158      1.0  0.94408  0.60365  0.82795  1.0000
  C   C1164     1.0  0.93126  0.92170  0.99246  1.0000
  H   H930      1.0  0.98251  0.75007  0.82447  1.0000
  Fe  Fe79      1.0  0.92085  0.52255  0.72190  1.0000
  H   H931      1.0  0.93533  0.99408  0.91539  1.0000
  H   H932      1.0  0.96888  0.66660  0.99514  1.0000
  C   C1165     1.0  0.94356  0.99922  0.89308  1.0000
  H   H933      1.0  0.94414  0.64964  0.88481  1.0000
  S   S159      1.0  0.93400  0.57787  0.72699  1.0000
  C   C1166     1.0  0.98133  0.75147  0.76931  1.0000
  H   H934      1.0  0.94971  0.85402  0.65670  1.0000
  C   C1167     1.0  0.97125  0.61624  0.86546  1.0000
  H   H935      1.0  0.95215  0.91113  0.99632  1.0000
  H   H936      1.0  0.96122  0.90074  0.55565  1.0000
  C   C1168     1.0  0.96536  0.63993  0.88929  1.0000
  C   C1169     1.0  0.69059  0.97177  0.87705  1.0000
  S   S160      1.0  0.93387  0.51438  0.78108  1.0000
  C   C1170     1.0  0.96498  0.82073  0.62257  1.0000
  H   H937      1.0  0.70243  0.97010  0.90461  1.0000
  C   C1171     1.0  0.88989  0.94822  0.95345  1.0000
  H   H938      1.0  0.83637  0.98946  0.86325  1.0000
  C   C1172     1.0  0.96605  0.83625  0.65485  1.0000
  C   C1173     1.0  0.95948  0.97426  0.88192  1.0000
  C   C1174     1.0  0.97225  0.66461  0.63321  1.0000
  C   C1175     1.0  0.67101  0.94630  0.86179  1.0000
  H   H939      1.0  0.96349  0.66956  0.78309  1.0000
  H   H940      1.0  0.87872  0.95779  0.92758  1.0000
  H   H941      1.0  0.96330  0.94989  0.89530  1.0000
  C   C1176     1.0  0.65997  0.97507  0.80532  1.0000
  H   H942      1.0  0.92003  0.65653  0.99777  1.0000
  H   H943      1.0  0.95251  0.67843  0.62567  1.0000
  C   C1177     1.0  0.91698  0.93472  0.95919  1.0000
  H   H944      1.0  0.92677  0.93385  0.93772  1.0000
  C   C1178     1.0  0.87711  0.94898  0.98101  1.0000
  C   C1179     1.0  0.69536  0.99881  0.85635  1.0000
  H   H945      1.0  0.95815  0.62907  0.66686  1.0000
  H   H946      1.0  0.98217  0.67050  0.93606  1.0000
  H   H947      1.0  0.94774  0.82619  0.59939  1.0000
  C   C1180     1.0  0.97090  0.98093  0.85378  1.0000
  C   C1181     1.0  0.97263  0.53884  0.92298  1.0000
  C   C1182     1.0  0.97748  0.00010  0.51468  1.0000
  C   C1183     1.0  0.96978  0.57987  0.99634  1.0000
  C   C1184     1.0  0.65533  0.94788  0.82599  1.0000
  C   C1185     1.0  0.92412  0.60189  0.99796  1.0000
  H   H948      1.0  0.96199  0.73710  0.76086  1.0000
  C   C1186     1.0  0.94199  0.57433  0.99736  1.0000
  Fe  Fe80      1.0  0.97597  0.55832  0.72324  1.0000
  C   C1187     1.0  0.97539  0.63662  0.65659  1.0000
  H   H949      1.0  0.90267  0.59747  0.99865  1.0000
  C   C1188     1.0  0.68000  0.00020  0.82037  1.0000
  C   C1189     1.0  0.97371  0.88978  0.53966  1.0000
  H   H950      1.0  0.95023  0.84305  0.52994  1.0000
  C   C1190     1.0  0.96753  0.85736  0.52527  1.0000
  H   H951      1.0  0.66831  0.92497  0.87779  1.0000
  C   C1191     1.0  0.96083  0.52230  0.89089  1.0000
  H   H952      1.0  0.98357  0.96185  0.84535  1.0000
  H   H953      1.0  0.85610  0.95960  0.97676  1.0000
  H   H954      1.0  0.65333  0.89315  0.93481  1.0000
  H   H955      1.0  0.98481  0.78501  0.59546  1.0000
  H   H956      1.0  0.97872  0.56525  0.92262  1.0000
  H   H957      1.0  0.93419  0.54867  0.99768  1.0000
  C   C1192     1.0  0.96137  0.64083  0.99590  1.0000
  C   C1193     1.0  0.93385  0.63514  0.99740  1.0000
  H   H958      1.0  0.98210  0.65328  0.73277  1.0000
  C   C1194     1.0  0.98063  0.00327  0.55101  1.0000
  C   C1195     1.0  0.97922  0.61335  0.99503  1.0000
  C   C1196     1.0  0.97661  0.52151  0.95528  1.0000
  C   C1197     1.0  0.98595  0.66626  0.78716  1.0000
  H   H959      1.0  0.98555  0.75626  0.71664  1.0000
  H   H960      1.0  0.82088  0.00604  0.91582  1.0000
  C   C1198     1.0  0.98599  0.79772  0.62027  1.0000
  C   C1199     1.0  0.84890  0.00705  0.88236  1.0000
  C   C1200     1.0  0.98385  0.84323  0.50495  1.0000
