data_image0
_chemical_formula_structural       FeS2FeS2C2FeS3HCSHCPHCHC2HC7H4SCHCH2CH2C2H2C2HC3H2C3HC2H2C2H6C9HCH5C2HCHCHC4HPC8FeH2C2HSFeS2CSHFeSFeS3HCHCHSC7H5C2H2C2H3C2FePCH2C3H5C2H2CHC3HCHCHC2H2C2H3PH2CH2CH2CH2C2H2C8HC6HC3HCHC3PC4HC3FeC5HCHCPCHC2HC3H2C3H2CHC2H4CH2CHCFeCHCH3CFeSFe2CSFeSH2CSCHC6H2CHCH2C6HCH3CH3C3SH2CH2PSC3PC2HCS2C2HC4H3CHC2H7CHC2H3C2PH2C3FeC3HCHCHCHSCSH3C3HCHCFeHCSCHC5H3CH3C3H2CHCH2CH2CHC2FeHC2H2CHFeS2HSC2H2FeS2FeCFeCSHC7HCHC2H3CHCHCHCHC2HC4SHCHSC3H2FeCFeHS2CHSCH2CHC3HCSCH3SC2HCH2CHCHPC3H4C8PH2CHCH2SH5C2H4SCH2C8H8C3H2CHC2FeHC2H2SH3PSCHC2H2C2H2CHC2FeC3SC7FeC2HSCHC5H4CHCHSC2H3C2H2CFeSHC2H2C3HC2PHCHFeHC2H3SHC2HCSC2H5C3HCSFeH2C4SHC3SH2C2HCHCH2CHCH2FeC5HCPH3SH2C3HCHC2HCHSHC2H2C2HCPCFeCH2C2SC3H3SC2H4CH2C2H2C3HCHCHCHFeH2CH3C2H2C3H3CHC2HC5H2C4SFeS2FeS2FeSFeS3HFeSHCHCHC6H4C2H2C7H4C2HC6PC3HC4HC9H2CH3CH4C2HCH4CHC4PC7HCH2C3H3CHCH2CH6CH3C5SC3HCHCH2C2HC3HC4H3CH4C6H4C2HPH8C4HC2SCHC2HC2H4CHCPHC2H2C4HCH3C3HPC2HC2HCSCHFeS2FeS2FeS2FeSFeS3C6H4CHC6H5CHCHC2H4C6PC16H13C2HC3HC3HCH4CH2PH2C4H2C2SCH4C2HCHCH2CHC8HCHC5H2CHC4HCH2CHC2HCHCH3CH2CHCH5C3H2CHC3H3CSHC2H4C3H2CH3FeHSHSFeS2CHCFeS2FeS2FeHFeS3FeS2FeS2FeSFeS3C11H4CH3C6H4C2HC4H2CHC6H4C2HC5HCHCH3C3HC2H4FeC4H2PCH3CHC8PC4H3C9HCH6C4H9C2HC2HC6PC4HCHC7H2C2HCHCPH5CH2C3H3C2H2CHPC5HCHCHC3HC3H4C3HSH2C5HCH2CSC2H2C2HCPCH4CH2CHC2SC3HC2HC2H2CH2C3H2C3HC2H2CHC3H4CHC3H2CSC3H4CH2CH2C2HCHCSHCH3C2HFeS2FeS2FeS2FeSFeS3FeS2FeS2FeSFeS3C6H4C6H5CSHCHC3H4C5HC7H5C2PC5PC8H3CHCHPHC2H3FeHC3H2CH2C3HC7HCHC2HCH3C2H3C4HC2HC3HC3HCHFeCH3CH4C2HC3HPC3HC2HC5H9CH3CSC6H5SH2C3HCHC2H5CH2C5SHCHCH2CPCHC2SH4CH3CHC2HC2SH2C5H2C4HCH3C7PC18HCH9C2H2CH3CH2C3FeH2CH2C3FeCSCHCHC3HC4H4CH3FeH3CHC4H4SC3H2CSH4C4HC2H4C2H2PCH2C2H4CHC2HC3HC2HFeSC2H2FeCHCFeSH3CH2C3HCHCHC2SC3PC2HCSHC2H3CSC2HC2HCSHC2FeSHC2HCH3SCH2C2H2SCHFeCH2
_chemical_formula_sum              "Fe72 S144 C1080 H864 P36"
_cell_length_a       56.1365
_cell_length_b       56.0871
_cell_length_c       34.9032
_cell_angle_alpha    89.2854
_cell_angle_beta     90.7835
_cell_angle_gamma    120.136

_space_group_name_H-M_alt    "P 1"
_space_group_IT_number       1

loop_
  _space_group_symop_operation_xyz
  'x, y, z'

loop_
  _atom_site_type_symbol
  _atom_site_label
  _atom_site_symmetry_multiplicity
  _atom_site_fract_x
  _atom_site_fract_y
  _atom_site_fract_z
  _atom_site_occupancy
  Fe  Fe1       1.0  0.41408  0.10479  0.36185  1.0000
  S   S1        1.0  0.44081  0.14616  0.33417  1.0000
  S   S2        1.0  0.41901  0.11390  0.42651  1.0000
  Fe  Fe2       1.0  0.39882  0.07627  0.28100  1.0000
  S   S3        1.0  0.42441  0.11664  0.25009  1.0000
  S   S4        1.0  0.37891  0.03360  0.25116  1.0000
  C   C1        1.0  0.36217  0.99332  0.19507  1.0000
  C   C2        1.0  0.45283  0.03249  0.13767  1.0000
  Fe  Fe3       1.0  0.40686  0.13439  0.29166  1.0000
  S   S5        1.0  0.38923  0.16249  0.27807  1.0000
  S   S6        1.0  0.43172  0.08428  0.32588  1.0000
  S   S7        1.0  0.37886  0.09338  0.32019  1.0000
  H   H1        1.0  0.40515  0.05921  0.39844  1.0000
  C   C3        1.0  0.45574  0.04723  0.10351  1.0000
  S   S8        1.0  0.44534  0.29292  0.30015  1.0000
  H   H2        1.0  0.36681  0.13683  0.47380  1.0000
  C   C4        1.0  0.37013  0.03740  0.17207  1.0000
  P   P1        1.0  0.45132  0.01794  0.47212  1.0000
  H   H3        1.0  0.33861  0.14755  0.40160  1.0000
  C   C5        1.0  0.46911  0.01153  0.23553  1.0000
  H   H4        1.0  0.33248  0.28422  0.42099  1.0000
  C   C6        1.0  0.40948  0.09739  0.47217  1.0000
  C   C7        1.0  0.35368  0.98199  0.15788  1.0000
  H   H5        1.0  0.37703  0.05796  0.45260  1.0000
  C   C8        1.0  0.40751  0.18937  0.39022  1.0000
  C   C9        1.0  0.40498  0.19862  0.28606  1.0000
  C   C10       1.0  0.38971  0.21185  0.27848  1.0000
  C   C11       1.0  0.40159  0.24058  0.28310  1.0000
  C   C12       1.0  0.42896  0.25648  0.29539  1.0000
  C   C13       1.0  0.44408  0.24320  0.30379  1.0000
  C   C14       1.0  0.43223  0.21446  0.29903  1.0000
  H   H6        1.0  0.36865  0.19982  0.26841  1.0000
  H   H7        1.0  0.38970  0.25047  0.27653  1.0000
  H   H8        1.0  0.39817  0.00014  0.05626  1.0000
  H   H9        1.0  0.44427  0.20463  0.30479  1.0000
  S   S9        1.0  0.34052  0.98468  0.08005  1.0000
  C   C15       1.0  0.37020  0.02105  0.20271  1.0000
  H   H10       1.0  0.43884  0.07071  0.16517  1.0000
  C   C16       1.0  0.44513  0.28035  0.47424  1.0000
  H   H11       1.0  0.34230  0.27477  0.99890  1.0000
  H   H12       1.0  0.12031  0.28749  0.01329  1.0000
  C   C17       1.0  0.43630  0.03544  0.07401  1.0000
  H   H13       1.0  0.42465  0.18972  0.37588  1.0000
  H   H14       1.0  0.10884  0.28370  0.16818  1.0000
  C   C18       1.0  0.36135  0.02599  0.13499  1.0000
  C   C19       1.0  0.40485  0.04034  0.40641  1.0000
  H   H15       1.0  0.34892  0.24791  0.32476  1.0000
  H   H16       1.0  0.46526  0.25528  0.31331  1.0000
  C   C20       1.0  0.12704  0.26250  0.14087  1.0000
  C   C21       1.0  0.44167  0.00408  0.29211  1.0000
  H   H17       1.0  0.36081  0.03882  0.11199  1.0000
  C   C22       1.0  0.46595  0.19312  0.45030  1.0000
  C   C23       1.0  0.34150  0.27273  0.40941  1.0000
  C   C24       1.0  0.41388  0.00886  0.07835  1.0000
  H   H18       1.0  0.45642  0.17149  0.45790  1.0000
  H   H19       1.0  0.43135  0.23086  0.41007  1.0000
  C   C25       1.0  0.43381  0.02245  0.27768  1.0000
  C   C26       1.0  0.14902  0.30673  0.08850  1.0000
  C   C27       1.0  0.46205  0.03075  0.22136  1.0000
  H   H20       1.0  0.37672  0.23520  0.36562  1.0000
  C   C28       1.0  0.38147  0.16588  0.38763  1.0000
  C   C29       1.0  0.35721  0.26549  0.43306  1.0000
  H   H21       1.0  0.35963  0.27135  0.46277  1.0000
  H   H22       1.0  0.43807  0.04713  0.04822  1.0000
  C   C30       1.0  0.12157  0.28405  0.14485  1.0000
  C   C31       1.0  0.13250  0.30611  0.11881  1.0000
  H   H23       1.0  0.46552  0.98441  0.28216  1.0000
  H   H24       1.0  0.42288  0.27898  0.38236  1.0000
  H   H25       1.0  0.16712  0.28502  0.06157  1.0000
  H   H26       1.0  0.36997  0.01496  0.37020  1.0000
  H   H27       1.0  0.11862  0.24548  0.16115  1.0000
  H   H28       1.0  0.14775  0.24628  0.10774  1.0000
  C   C32       1.0  0.44390  0.03573  0.24248  1.0000
  C   C33       1.0  0.15434  0.28492  0.08464  1.0000
  C   C34       1.0  0.38440  0.99096  0.40105  1.0000
  C   C35       1.0  0.38490  0.01534  0.39066  1.0000
  C   C36       1.0  0.38869  0.06991  0.47707  1.0000
  C   C37       1.0  0.46940  0.21283  0.47761  1.0000
  C   C38       1.0  0.43042  0.00562  0.14157  1.0000
  C   C39       1.0  0.46254  0.11421  0.17490  1.0000
  C   C40       1.0  0.42433  0.04114  0.43252  1.0000
  H   H29       1.0  0.37872  0.14820  0.37155  1.0000
  C   C41       1.0  0.42390  0.01675  0.44323  1.0000
  H   H30       1.0  0.41991  0.02659  0.29379  1.0000
  H   H31       1.0  0.43985  0.06085  0.44378  1.0000
  H   H32       1.0  0.43411  0.99422  0.31967  1.0000
  H   H33       1.0  0.34451  0.18869  0.43543  1.0000
  H   H34       1.0  0.32704  0.27287  0.35203  1.0000
  C   C42       1.0  0.36665  0.24524  0.37859  1.0000
  C   C43       1.0  0.35287  0.99815  0.12744  1.0000
  H   H35       1.0  0.42730  0.99403  0.16781  1.0000
  C   C44       1.0  0.35892  0.16557  0.40454  1.0000
  H   H36       1.0  0.43756  0.04999  0.23215  1.0000
  C   C45       1.0  0.45902  0.08778  0.17261  1.0000
  H   H37       1.0  0.37607  0.05867  0.17713  1.0000
  C   C46       1.0  0.13819  0.29760  0.99498  1.0000
  C   C47       1.0  0.33847  0.26639  0.37046  1.0000
  C   C48       1.0  0.37002  0.25171  0.41787  1.0000
  C   C49       1.0  0.41110  0.99387  0.11185  1.0000
  H   H38       1.0  0.41347  0.17676  0.46996  1.0000
  P   P2        1.0  0.39190  0.24358  0.44722  1.0000
  C   C50       1.0  0.42690  0.27174  0.44272  1.0000
  C   C51       1.0  0.38860  0.21251  0.42690  1.0000
  C   C52       1.0  0.41116  0.21263  0.40973  1.0000
  C   C53       1.0  0.14342  0.26294  0.11077  1.0000
  C   C54       1.0  0.35090  0.25249  0.35511  1.0000
  C   C55       1.0  0.36240  0.18884  0.42386  1.0000
  C   C56       1.0  0.43620  0.28532  0.40741  1.0000
  C   C57       1.0  0.45929  0.99856  0.27098  1.0000
  Fe  Fe4       1.0  0.45612  0.12496  0.29615  1.0000
  H   H39       1.0  0.46687  0.11124  0.42217  1.0000
  H   H40       1.0  0.44526  0.11733  0.16923  1.0000
  C   C58       1.0  0.46302  0.30740  0.40385  1.0000
  C   C59       1.0  0.40394  0.99165  0.42704  1.0000
  H   H41       1.0  0.45769  0.99978  0.03414  1.0000
  S   S10       1.0  0.38141  0.30830  0.28742  1.0000
  Fe  Fe5       1.0  0.42259  0.13600  0.68710  1.0000
  S   S11       1.0  0.38166  0.09665  0.68240  1.0000
  S   S12       1.0  0.43688  0.18115  0.67378  1.0000
  C   C60       1.0  0.36970  0.12982  0.53407  1.0000
  S   S13       1.0  0.41512  0.06314  0.70042  1.0000
  H   H42       1.0  0.35215  0.10291  0.80018  1.0000
  Fe  Fe6       1.0  0.40510  0.08117  0.64839  1.0000
  S   S14       1.0  0.38906  0.05725  0.59249  1.0000
  Fe  Fe7       1.0  0.39502  0.08158  0.73490  1.0000
  S   S15       1.0  0.37025  0.06241  0.78992  1.0000
  S   S16       1.0  0.44509  0.12100  0.65056  1.0000
  S   S17       1.0  0.43390  0.12260  0.74205  1.0000
  H   H43       1.0  0.41956  0.21820  0.55566  1.0000
  C   C61       1.0  0.45405  0.30062  0.84644  1.0000
  H   H44       1.0  0.31470  0.30871  0.74953  1.0000
  C   C62       1.0  0.36609  0.21745  0.86237  1.0000
  H   H45       1.0  0.41960  0.16233  0.86823  1.0000
  S   S18       1.0  0.37803  0.25241  0.68850  1.0000
  C   C63       1.0  0.44043  0.04406  0.82709  1.0000
  C   C64       1.0  0.39409  0.23251  0.68162  1.0000
  C   C65       1.0  0.37856  0.20368  0.68569  1.0000
  C   C66       1.0  0.39109  0.18743  0.68231  1.0000
  C   C67       1.0  0.41937  0.20000  0.67546  1.0000
  C   C68       1.0  0.43474  0.22875  0.67076  1.0000
  C   C69       1.0  0.42216  0.24492  0.67359  1.0000
  H   H46       1.0  0.35678  0.19389  0.69162  1.0000
  H   H47       1.0  0.37898  0.16527  0.68550  1.0000
  H   H48       1.0  0.45661  0.23864  0.66532  1.0000
  H   H49       1.0  0.43435  0.26707  0.67048  1.0000
  H   H50       1.0  0.45229  0.08382  0.56563  1.0000
  C   C70       1.0  0.42993  0.01129  0.61572  1.0000
  C   C71       1.0  0.46788  0.04730  0.50341  1.0000
  H   H51       1.0  0.36664  0.03659  0.51748  1.0000
  H   H52       1.0  0.41994  0.21261  0.87448  1.0000
  C   C72       1.0  0.39653  0.07344  0.54662  1.0000
  C   C73       1.0  0.41680  0.10108  0.54176  1.0000
  H   H53       1.0  0.32950  0.28566  0.86082  1.0000
  H   H54       1.0  0.42770  0.11339  0.56643  1.0000
  H   H55       1.0  0.42518  0.01657  0.58779  1.0000
  C   C74       1.0  0.34515  0.19421  0.79067  1.0000
  C   C75       1.0  0.36593  0.03360  0.81803  1.0000
  Fe  Fe8       1.0  0.40047  0.29870  0.67765  1.0000
  P   P3        1.0  0.45038  0.20692  0.81195  1.0000
  C   C76       1.0  0.44796  0.01244  0.77202  1.0000
  H   H56       1.0  0.38295  0.27718  0.57364  1.0000
  H   H57       1.0  0.41042  0.00573  0.70862  1.0000
  C   C77       1.0  0.37867  0.29355  0.91586  1.0000
  C   C78       1.0  0.32443  0.30007  0.76752  1.0000
  C   C79       1.0  0.45990  0.21827  0.86069  1.0000
  H   H58       1.0  0.41866  0.26302  0.86429  1.0000
  H   H59       1.0  0.38026  0.01646  0.77542  1.0000
  H   H60       1.0  0.43868  0.27001  0.50164  1.0000
  H   H61       1.0  0.37740  0.11687  0.86193  1.0000
  H   H62       1.0  0.40523  0.21717  0.79101  1.0000
  C   C80       1.0  0.42426  0.25756  0.76604  1.0000
  C   C81       1.0  0.45046  0.00429  0.61986  1.0000
  H   H63       1.0  0.43932  0.13406  0.50159  1.0000
  H   H64       1.0  0.45994  0.04592  0.93860  1.0000
  C   C82       1.0  0.35047  0.00687  0.87815  1.0000
  H   H65       1.0  0.40492  0.25709  0.76143  1.0000
  C   C83       1.0  0.37157  0.29519  0.95361  1.0000
  C   C84       1.0  0.38254  0.05793  0.51405  1.0000
  C   C85       1.0  0.41326  0.16098  0.56471  1.0000
  H   H66       1.0  0.42706  0.00878  0.86437  1.0000
  C   C86       1.0  0.38222  0.23922  0.49732  1.0000
  H   H67       1.0  0.36315  0.17848  0.87660  1.0000
  C   C87       1.0  0.42369  0.17477  0.52970  1.0000
  H   H68       1.0  0.42606  0.25926  0.58998  1.0000
  C   C88       1.0  0.37968  0.14114  0.77161  1.0000
  C   C89       1.0  0.44055  0.00287  0.95344  1.0000
  H   H69       1.0  0.35589  0.19074  0.56869  1.0000
  H   H70       1.0  0.31258  0.23312  0.96039  1.0000
  C   C90       1.0  0.42452  0.23487  0.78261  1.0000
  C   C91       1.0  0.37203  0.01400  0.80396  1.0000
  H   H71       1.0  0.35018  0.04468  0.86649  1.0000
  H   H72       1.0  0.39857  0.98447  0.51073  1.0000
  H   H73       1.0  0.41149  0.18002  0.75001  1.0000
  P   P4        1.0  0.45133  0.99155  0.73593  1.0000
  H   H74       1.0  0.39916  0.01649  0.64430  1.0000
  H   H75       1.0  0.37887  0.12756  0.59371  1.0000
  C   C92       1.0  0.44951  0.23525  0.78815  1.0000
  H   H76       1.0  0.36284  0.23137  0.60546  1.0000
  H   H77       1.0  0.34466  0.15801  0.81294  1.0000
  C   C93       1.0  0.34947  0.17889  0.81888  1.0000
  H   H78       1.0  0.36927  0.13449  0.74414  1.0000
  H   H79       1.0  0.33722  0.18531  0.76271  1.0000
  C   C94       1.0  0.44379  0.25768  0.58203  1.0000
  H   H80       1.0  0.42585  0.16712  0.59041  1.0000
  H   H81       1.0  0.34725  0.23209  0.77574  1.0000
  C   C95       1.0  0.46313  0.23203  0.55316  1.0000
  C   C96       1.0  0.38642  0.13858  0.56682  1.0000
  H   H82       1.0  0.34631  0.29535  0.72089  1.0000
  H   H83       1.0  0.34922  0.11190  0.53549  1.0000
  C   C97       1.0  0.36212  0.26988  0.89401  1.0000
  C   C98       1.0  0.45680  0.99792  0.65610  1.0000
  C   C99       1.0  0.37005  0.12334  0.80317  1.0000
  C   C100      1.0  0.35107  0.22107  0.79828  1.0000
  C   C101      1.0  0.44785  0.22865  0.92244  1.0000
  C   C102      1.0  0.45419  0.03946  0.76336  1.0000
  C   C103      1.0  0.45222  0.05661  0.52245  1.0000
  C   C104      1.0  0.40346  0.16696  0.77501  1.0000
  H   H84       1.0  0.37417  0.22604  0.89036  1.0000
  C   C105      1.0  0.38666  0.26219  0.51878  1.0000
  C   C106      1.0  0.33115  0.24987  0.94802  1.0000
  C   C107      1.0  0.35513  0.02981  0.85527  1.0000
  C   C108      1.0  0.38430  0.13131  0.83808  1.0000
  C   C109      1.0  0.43515  0.01755  0.83640  1.0000
  C   C110      1.0  0.35994  0.19049  0.85472  1.0000
  H   H85       1.0  0.43030  0.04739  0.51692  1.0000
  C   C111      1.0  0.40691  0.29102  0.83855  1.0000
  C   C112      1.0  0.41759  0.17539  0.81008  1.0000
  C   C113      1.0  0.40814  0.15715  0.84152  1.0000
  H   H86       1.0  0.44848  0.29812  0.74140  1.0000
  C   C114      1.0  0.36422  0.21063  0.55456  1.0000
  H   H87       1.0  0.43639  0.05585  0.84775  1.0000
  C   C115      1.0  0.35609  0.28283  0.77471  1.0000
  C   C116      1.0  0.35140  0.27963  0.81436  1.0000
  C   C117      1.0  0.36818  0.23351  0.57534  1.0000
  P   P5        1.0  0.37027  0.26815  0.84458  1.0000
  C   C118      1.0  0.36171  0.23306  0.83422  1.0000
  C   C119      1.0  0.42195  0.00550  0.68412  1.0000
  C   C120      1.0  0.45025  0.05512  0.79076  1.0000
  C   C121      1.0  0.44884  0.28073  0.75473  1.0000
  H   H88       1.0  0.43279  0.22902  0.94115  1.0000
  C   C122      1.0  0.44060  0.21922  0.88482  1.0000
  C   C123      1.0  0.44020  0.23435  0.56278  1.0000
  C   C124      1.0  0.44341  0.99967  0.68879  1.0000
  Fe  Fe9       1.0  0.45315  0.10470  0.70502  1.0000
  C   C125      1.0  0.33317  0.28707  0.83033  1.0000
  C   C126      1.0  0.42572  0.28298  0.85120  1.0000
  C   C127      1.0  0.31986  0.29732  0.80696  1.0000
  C   C128      1.0  0.37123  0.21343  0.51574  1.0000
  C   C129      1.0  0.46459  0.07732  0.55003  1.0000
  H   H89       1.0  0.32459  0.23012  0.89349  1.0000
  C   C130      1.0  0.41537  0.01142  0.64773  1.0000
  H   H90       1.0  0.39596  0.28251  0.50575  1.0000
  C   C131      1.0  0.34244  0.29272  0.75141  1.0000
  P   P6        1.0  0.45905  0.20259  0.52696  1.0000
  C   C132      1.0  0.33813  0.24818  0.91022  1.0000
  H   H91       1.0  0.37068  0.27818  0.76174  1.0000
  C   C133      1.0  0.43919  0.00188  0.80914  1.0000
  C   C134      1.0  0.46167  0.02754  0.93825  1.0000
  H   H92       1.0  0.34207  0.00430  0.90660  1.0000
  C   C135      1.0  0.37947  0.25930  0.55745  1.0000
  C   C136      1.0  0.34788  0.27335  0.96972  1.0000
  C   C137      1.0  0.37961  0.14386  0.49936  1.0000
  H   H93       1.0  0.42238  0.00204  0.96527  1.0000
  H   H94       1.0  0.46841  0.29405  0.85547  1.0000
  C   C138      1.0  0.42339  0.11281  0.50480  1.0000
  C   C139      1.0  0.40637  0.16642  0.49722  1.0000
  C   C140      1.0  0.36691  0.99083  0.82658  1.0000
  H   H95       1.0  0.46172  0.04839  0.73531  1.0000
  H   H96       1.0  0.39679  0.31095  0.90369  1.0000
  C   C141      1.0  0.15979  0.30012  0.93424  1.0000
  H   H97       1.0  0.36836  0.19547  0.50063  1.0000
  C   C142      1.0  0.35614  0.98706  0.86384  1.0000
  C   C143      1.0  0.13700  0.28712  0.95838  1.0000
  H   H98       1.0  0.30651  0.30385  0.81953  1.0000
  H   H99       1.0  0.11835  0.26904  0.94861  1.0000
  H   H100      1.0  0.45431  0.07568  0.78348  1.0000
  H   H101      1.0  0.15885  0.29220  0.90577  1.0000
  C   C144      1.0  0.43872  0.98844  0.50359  1.0000
  H   H102      1.0  0.38423  0.31357  0.97031  1.0000
  H   H103      1.0  0.46178  0.00422  0.59504  1.0000
  C   C145      1.0  0.47019  0.27876  0.59190  1.0000
  H   H104      1.0  0.43489  0.98137  0.81693  1.0000
  C   C146      1.0  0.33424  0.48143  0.08567  1.0000
  Fe  Fe10      1.0  0.42612  0.31996  0.28861  1.0000
  C   C147      1.0  0.06653  0.50738  0.09443  1.0000
  H   H105      1.0  0.03909  0.60237  0.10767  1.0000
  C   C148      1.0  0.23888  0.40505  0.06159  1.0000
  H   H106      1.0  0.06977  0.52791  0.09006  1.0000
  H   H107      1.0  0.04706  0.58164  0.05051  1.0000
  H   H108      1.0  0.40053  0.47048  0.24422  1.0000
  C   C149      1.0  0.38546  0.48458  0.09725  1.0000
  Fe  Fe11      1.0  0.31709  0.40729  0.01730  1.0000
  S   S19       1.0  0.32127  0.39723  0.08068  1.0000
  Fe  Fe12      1.0  0.08322  0.63223  0.99816  1.0000
  Fe  Fe13      1.0  0.02715  0.38780  0.01229  1.0000
  C   C150      1.0  0.45340  0.53806  0.07293  1.0000
  S   S20       1.0  0.06622  0.42880  0.01814  1.0000
  Fe  Fe14      1.0  0.44524  0.38191  0.28295  1.0000
  S   S21       1.0  0.40205  0.37417  0.28347  1.0000
  H   H109      1.0  0.99400  0.61510  0.36620  1.0000
  H   H110      1.0  0.46966  0.31746  0.37629  1.0000
  C   C151      1.0  0.97391  0.34451  0.13232  1.0000
  S   S22       1.0  0.43698  0.34982  0.23921  1.0000
  C   C152      1.0  0.41145  0.33733  0.43577  1.0000
  H   H111      1.0  0.42019  0.33396  0.41046  1.0000
  C   C153      1.0  0.33870  0.38280  0.10708  1.0000
  C   C154      1.0  0.34027  0.38497  0.14736  1.0000
  C   C155      1.0  0.35251  0.37271  0.16978  1.0000
  C   C156      1.0  0.36316  0.35775  0.15227  1.0000
  C   C157      1.0  0.36204  0.35602  0.11193  1.0000
  C   C158      1.0  0.35012  0.36859  0.08947  1.0000
  H   H112      1.0  0.33153  0.39584  0.16146  1.0000
  H   H113      1.0  0.35302  0.37419  0.20068  1.0000
  C   C159      1.0  0.35751  0.50148  0.06656  1.0000
  H   H114      1.0  0.34898  0.36651  0.05864  1.0000
  C   C160      1.0  0.99078  0.62177  0.11808  1.0000
  H   H115      1.0  0.40474  0.42847  0.24638  1.0000
  H   H116      1.0  0.45710  0.52144  0.16616  1.0000
  C   C161      1.0  0.40501  0.42816  0.02479  1.0000
  C   C162      1.0  0.43033  0.43940  0.00630  1.0000
  C   C163      1.0  0.44349  0.40841  0.44509  1.0000
  C   C164      1.0  0.11472  0.38126  0.05645  1.0000
  C   C165      1.0  0.08896  0.50327  0.09022  1.0000
  C   C166      1.0  0.97370  0.44234  0.22192  1.0000
  H   H117      1.0  0.10889  0.52045  0.08238  1.0000
  C   C167      1.0  0.01553  0.53717  0.14193  1.0000
  H   H118      1.0  0.20399  0.35189  0.99247  1.0000
  H   H119      1.0  0.98676  0.50976  0.24837  1.0000
  H   H120      1.0  0.45507  0.57149  0.33152  1.0000
  C   C168      1.0  0.98324  0.59475  0.37917  1.0000
  H   H121      1.0  0.05705  0.43433  0.10878  1.0000
  H   H122      1.0  0.44321  0.52937  0.04594  1.0000
  H   H123      1.0  0.25621  0.36180  0.10673  1.0000
  C   C169      1.0  0.45661  0.41631  0.09939  1.0000
  C   C170      1.0  0.42289  0.33775  0.47212  1.0000
  C   C171      1.0  0.03806  0.56915  0.07596  1.0000
  S   S23       1.0  0.10207  0.60484  0.00627  1.0000
  H   H124      1.0  0.44028  0.33454  0.47424  1.0000
  H   H125      1.0  0.40017  0.51836  0.05606  1.0000
  C   C172      1.0  0.43507  0.40923  0.40750  1.0000
  H   H126      1.0  0.00916  0.45573  0.04293  1.0000
  H   H127      1.0  0.09524  0.35959  0.00461  1.0000
  P   P7        1.0  0.16345  0.33504  0.05457  1.0000
  S   S24       1.0  0.30338  0.43870  0.00844  1.0000
  C   C173      1.0  0.40132  0.44260  0.05430  1.0000
  C   C174      1.0  0.42317  0.46819  0.06615  1.0000
  C   C175      1.0  0.44611  0.52178  0.10638  1.0000
  P   P8        1.0  0.41824  0.48612  0.10519  1.0000
  C   C176      1.0  0.41564  0.46856  0.15022  1.0000
  C   C177      1.0  0.14409  0.35288  0.05517  1.0000
  H   H128      1.0  0.16398  0.37574  0.10673  1.0000
  C   C178      1.0  0.45234  0.46467  0.01827  1.0000
  S   S25       1.0  0.00233  0.62345  0.06989  1.0000
  S   S26       1.0  0.37676  0.33968  0.17906  1.0000
  C   C179      1.0  0.98713  0.47379  0.06948  1.0000
  C   C180      1.0  0.40923  0.47767  0.18381  1.0000
  H   H129      1.0  0.13819  0.40075  0.10733  1.0000
  C   C181      1.0  0.40792  0.43982  0.21973  1.0000
  C   C182      1.0  0.41353  0.43020  0.18633  1.0000
  C   C183      1.0  0.41748  0.44448  0.15169  1.0000
  C   C184      1.0  0.03737  0.45883  0.10938  1.0000
  H   H130      1.0  0.12085  0.33466  0.00293  1.0000
  H   H131      1.0  0.42930  0.40390  0.46844  1.0000
  H   H132      1.0  0.24813  0.42605  0.05098  1.0000
  C   C185      1.0  0.13421  0.38591  0.08504  1.0000
  H   H133      1.0  0.09104  0.51227  0.00334  1.0000
  C   C186      1.0  0.25503  0.39610  0.08066  1.0000
  C   C187      1.0  0.04048  0.48511  0.10379  1.0000
  H   H134      1.0  0.00641  0.52520  0.16751  1.0000
  H   H135      1.0  0.38136  0.43378  0.06780  1.0000
  H   H136      1.0  0.31443  0.47988  0.08054  1.0000
  H   H137      1.0  0.01162  0.47290  0.24819  1.0000
  H   H138      1.0  0.44657  0.41523  0.34811  1.0000
  H   H139      1.0  0.40650  0.49548  0.18296  1.0000
  H   H140      1.0  0.03418  0.53255  0.05105  1.0000
  C   C188      1.0  0.09554  0.55293  0.00512  1.0000
  H   H141      1.0  0.20687  0.32901  0.09516  1.0000
  C   C189      1.0  0.03381  0.58090  0.10831  1.0000
  C   C190      1.0  0.40566  0.46351  0.21847  1.0000
  H   H142      1.0  0.41399  0.41110  0.18723  1.0000
  H   H143      1.0  0.42124  0.43620  0.12618  1.0000
  H   H144      1.0  0.12793  0.32249  0.12253  1.0000
  C   C191      1.0  0.38877  0.34123  0.43229  1.0000
  C   C192      1.0  0.03092  0.54141  0.07645  1.0000
  P   P9        1.0  0.01087  0.48940  0.10906  1.0000
  H   H145      1.0  0.36229  0.44833  0.13324  1.0000
  H   H146      1.0  0.27682  0.41019  0.08521  1.0000
  C   C193      1.0  0.99138  0.45843  0.04172  1.0000
  C   C194      1.0  0.08356  0.56916  0.99628  1.0000
  C   C195      1.0  0.98342  0.57262  0.36156  1.0000
  Fe  Fe15      1.0  0.39501  0.34303  0.33009  1.0000
  C   C196      1.0  0.99964  0.46616  0.22190  1.0000
  C   C197      1.0  0.37724  0.34469  0.46590  1.0000
  C   C198      1.0  0.02245  0.56490  0.14124  1.0000
  H   H147      1.0  0.01745  0.44124  0.11639  1.0000
  C   C199      1.0  0.45315  0.41462  0.37727  1.0000
  H   H148      1.0  0.41431  0.40512  0.40169  1.0000
  C   C200      1.0  0.46130  0.53343  0.14019  1.0000
  H   H149      1.0  0.99434  0.57591  0.33494  1.0000
  C   C201      1.0  0.21094  0.38664  0.05482  1.0000
  H   H150      1.0  0.01877  0.57399  0.16608  1.0000
  S   S27       1.0  0.43899  0.35357  0.33235  1.0000
  C   C202      1.0  0.33631  0.46261  0.11000  1.0000
  S   S28       1.0  0.37444  0.34214  0.38674  1.0000
  H   H151      1.0  0.31809  0.44626  0.12361  1.0000
  H   H152      1.0  0.35952  0.34744  0.46364  1.0000
  H   H153      1.0  0.19896  0.39371  0.03890  1.0000
  C   C203      1.0  0.44894  0.47881  0.04851  1.0000
  C   C204      1.0  0.10985  0.36252  0.02726  1.0000
  C   C205      1.0  0.08561  0.47702  0.09547  1.0000
  H   H154      1.0  0.22660  0.44560  0.99058  1.0000
  C   C206      1.0  0.98098  0.36192  0.09985  1.0000
  H   H155      1.0  0.18769  0.45422  0.00029  1.0000
  C   C207      1.0  0.21531  0.35022  0.08616  1.0000
  Fe  Fe16      1.0  0.39314  0.34113  0.24067  1.0000
  H   H156      1.0  0.38789  0.40849  0.01573  1.0000
  C   C208      1.0  0.02006  0.52529  0.10962  1.0000
  S   S29       1.0  0.00607  0.36318  0.06721  1.0000
  C   C209      1.0  0.01051  0.48073  0.18773  1.0000
  H   H157      1.0  0.45326  0.39756  0.19296  1.0000
  C   C210      1.0  0.38297  0.50305  0.07219  1.0000
  C   C211      1.0  0.36167  0.46399  0.11552  1.0000
  C   C212      1.0  0.99768  0.63738  0.18447  1.0000
  C   C213      1.0  0.99523  0.47190  0.15343  1.0000
  C   C214      1.0  0.05983  0.45483  0.10518  1.0000
  H   H158      1.0  0.03107  0.49859  0.18783  1.0000
  H   H159      1.0  0.35572  0.51537  0.04637  1.0000
  H   H160      1.0  0.10289  0.47377  0.09160  1.0000
  C   C215      1.0  0.24330  0.36872  0.09287  1.0000
  H   H161      1.0  0.44563  0.40864  0.07250  1.0000
  H   H162      1.0  0.37002  0.34440  0.09796  1.0000
  H   H163      1.0  0.42904  0.37942  0.13109  1.0000
  C   C216      1.0  0.44722  0.39983  0.13230  1.0000
  C   C217      1.0  0.19885  0.35913  0.06730  1.0000
  C   C218      1.0  0.14883  0.37178  0.08447  1.0000
  H   H164      1.0  0.10377  0.39262  0.05631  1.0000
  H   H165      1.0  0.98079  0.56296  0.07153  1.0000
  C   C219      1.0  0.46087  0.40995  0.16719  1.0000
  H   H166      1.0  0.46631  0.50121  0.23555  1.0000
  C   C220      1.0  0.97824  0.54312  0.24937  1.0000
  H   H167      1.0  0.97350  0.44635  0.46034  1.0000
  H   H168      1.0  0.98393  0.33252  0.13705  1.0000
  C   C221      1.0  0.97285  0.44674  0.01113  1.0000
  H   H169      1.0  0.98296  0.53381  0.48382  1.0000
  H   H170      1.0  0.99395  0.55478  0.27063  1.0000
  C   C222      1.0  0.12453  0.34845  0.02644  1.0000
  H   H171      1.0  0.97108  0.43260  0.39256  1.0000
  C   C223      1.0  0.97417  0.51777  0.23681  1.0000
  C   C224      1.0  0.00830  0.63803  0.14769  1.0000
  Fe  Fe17      1.0  0.04126  0.64538  0.03188  1.0000
  H   H172      1.0  0.11577  0.56242  0.01834  1.0000
  C   C225      1.0  0.16220  0.32124  0.00762  1.0000
  C   C226      1.0  0.08160  0.52457  0.99671  1.0000
  H   H173      1.0  0.46634  0.49813  0.05755  1.0000
  H   H174      1.0  0.97282  0.39077  0.06967  1.0000
  C   C227      1.0  0.46978  0.41235  0.45243  1.0000
  H   H175      1.0  0.47040  0.61958  0.31135  1.0000
  Fe  Fe18      1.0  0.32353  0.40315  0.92969  1.0000
  S   S30       1.0  0.34347  0.38389  0.89215  1.0000
  S   S31       1.0  0.30989  0.43412  0.91573  1.0000
  H   H176      1.0  0.16014  0.45477  0.70980  1.0000
  S   S32       1.0  0.43965  0.32273  0.64509  1.0000
  C   C228      1.0  0.43969  0.42544  0.74030  1.0000
  C   C229      1.0  0.02503  0.57359  0.74280  1.0000
  H   H177      1.0  0.99886  0.47875  0.70206  1.0000
  H   H178      1.0  0.40473  0.48522  0.96508  1.0000
  Fe  Fe19      1.0  0.02856  0.39145  0.92337  1.0000
  S   S33       1.0  0.01255  0.38138  0.86091  1.0000
  S   S34       1.0  0.06818  0.43239  0.92496  1.0000
  Fe  Fe20      1.0  0.39387  0.34920  0.69019  1.0000
  C   C230      1.0  0.11653  0.42854  0.84665  1.0000
  Fe  Fe21      1.0  0.45117  0.35581  0.68877  1.0000
  C   C231      1.0  0.16995  0.50477  0.79228  1.0000
  S   S35       1.0  0.43233  0.37703  0.65614  1.0000
  H   H179      1.0  0.12081  0.63138  0.91013  1.0000
  C   C232      1.0  0.45779  0.45428  0.86610  1.0000
  C   C233      1.0  0.35097  0.38030  0.84333  1.0000
  C   C234      1.0  0.36731  0.36828  0.83593  1.0000
  C   C235      1.0  0.37320  0.36421  0.79801  1.0000
  C   C236      1.0  0.36237  0.37157  0.76662  1.0000
  C   C237      1.0  0.34636  0.38393  0.77400  1.0000
  C   C238      1.0  0.34087  0.38845  0.81193  1.0000
  H   H180      1.0  0.23324  0.50720  0.92112  1.0000
  C   C239      1.0  0.98169  0.54114  0.93855  1.0000
  H   H181      1.0  0.32831  0.39772  0.81683  1.0000
  C   C240      1.0  0.18114  0.44295  0.86335  1.0000
  C   C241      1.0  0.10339  0.61397  0.89651  1.0000
  H   H182      1.0  0.99291  0.43726  0.66849  1.0000
  H   H183      1.0  0.13326  0.38018  0.93953  1.0000
  H   H184      1.0  0.17220  0.37179  0.92931  1.0000
  C   C242      1.0  0.07647  0.56482  0.88515  1.0000
  H   H185      1.0  0.98866  0.54488  0.55292  1.0000
  C   C243      1.0  0.44979  0.44019  0.77433  1.0000
  H   H186      1.0  0.45748  0.58765  0.96950  1.0000
  C   C244      1.0  0.05694  0.56843  0.86416  1.0000
  H   H187      1.0  0.44481  0.52429  0.83161  1.0000
  C   C245      1.0  0.15652  0.47627  0.79943  1.0000
  H   H188      1.0  0.20882  0.42749  0.87512  1.0000
  C   C246      1.0  0.21871  0.48934  0.90484  1.0000
  C   C247      1.0  0.43755  0.43976  0.57042  1.0000
  H   H189      1.0  0.16697  0.42490  0.84712  1.0000
  C   C248      1.0  0.46514  0.42085  0.92008  1.0000
  C   C249      1.0  0.15341  0.45834  0.76959  1.0000
  C   C250      1.0  0.03316  0.56446  0.77521  1.0000
  C   C251      1.0  0.98021  0.36706  0.79537  1.0000
  S   S36       1.0  0.12997  0.42575  0.97767  1.0000
  H   H190      1.0  0.03977  0.46188  0.88357  1.0000
  C   C252      1.0  0.46649  0.41952  0.57918  1.0000
  H   H191      1.0  0.18272  0.50509  0.69712  1.0000
  S   S37       1.0  0.35270  0.42899  0.97708  1.0000
  C   C253      1.0  0.00535  0.62531  0.85484  1.0000
  C   C254      1.0  0.20499  0.44446  0.87871  1.0000
  C   C255      1.0  0.13408  0.48329  0.87242  1.0000
  H   H192      1.0  0.42843  0.40050  0.54714  1.0000
  H   H193      1.0  0.40310  0.32447  0.81316  1.0000
  Fe  Fe22      1.0  0.04820  0.44325  0.97158  1.0000
  C   C256      1.0  0.43973  0.45706  0.78724  1.0000
  Fe  Fe23      1.0  0.41804  0.34206  0.61374  1.0000
  H   H194      1.0  0.39971  0.43926  0.86954  1.0000
  S   S38       1.0  0.28806  0.37953  0.97112  1.0000
  S   S39       1.0  0.23025  0.40120  0.94965  1.0000
  C   C257      1.0  0.06112  0.59521  0.85936  1.0000
  H   H195      1.0  0.18949  0.53711  0.75005  1.0000
  S   S40       1.0  0.42912  0.34488  0.55006  1.0000
  C   C258      1.0  0.44349  0.40899  0.89352  1.0000
  H   H196      1.0  0.24192  0.46838  0.91200  1.0000
  H   H197      1.0  0.09690  0.43549  0.79733  1.0000
  C   C259      1.0  0.99795  0.56822  0.73931  1.0000
  H   H198      1.0  0.46425  0.55411  0.71351  1.0000
  C   C260      1.0  0.08426  0.61782  0.87538  1.0000
  C   C261      1.0  0.09559  0.42093  0.81901  1.0000
  C   C262      1.0  0.18510  0.33386  0.98343  1.0000
  H   H199      1.0  0.41927  0.43884  0.55817  1.0000
  C   C263      1.0  0.44274  0.41823  0.56395  1.0000
  S   S41       1.0  0.04518  0.37258  0.96684  1.0000
  C   C264      1.0  0.11993  0.49441  0.85248  1.0000
  H   H200      1.0  0.11398  0.58455  0.91871  1.0000
  H   H201      1.0  0.37521  0.36175  0.85978  1.0000
  H   H202      1.0  0.08754  0.36939  0.89991  1.0000
  S   S42       1.0  0.41382  0.33001  0.72478  1.0000
  C   C265      1.0  0.10920  0.50844  0.87217  1.0000
  C   C266      1.0  0.98285  0.45841  0.71087  1.0000
  H   H203      1.0  0.14519  0.47515  0.92881  1.0000
  C   C267      1.0  0.11341  0.40979  0.87579  1.0000
  H   H204      1.0  0.38543  0.35463  0.79301  1.0000
  H   H205      1.0  0.12649  0.50024  0.96318  1.0000
  C   C268      1.0  0.41706  0.55105  0.96715  1.0000
  H   H206      1.0  0.97999  0.60258  0.90262  1.0000
  C   C269      1.0  0.00020  0.52909  0.88430  1.0000
  H   H207      1.0  0.40626  0.56250  0.96716  1.0000
  P   P10       1.0  0.02537  0.53916  0.84672  1.0000
  C   C270      1.0  0.03055  0.51044  0.83654  1.0000
  C   C271      1.0  0.01420  0.54980  0.80436  1.0000
  C   C272      1.0  0.17576  0.38983  0.94497  1.0000
  H   H208      1.0  0.43274  0.42857  0.98254  1.0000
  H   H209      1.0  0.41210  0.41636  0.69219  1.0000
  H   H210      1.0  0.17355  0.51904  0.81526  1.0000
  H   H211      1.0  0.37988  0.34823  0.52784  1.0000
  C   C273      1.0  0.03370  0.49557  0.86689  1.0000
  C   C274      1.0  0.03725  0.47309  0.85977  1.0000
  C   C275      1.0  0.03708  0.46478  0.82221  1.0000
  C   C276      1.0  0.03358  0.47916  0.79170  1.0000
  C   C277      1.0  0.03035  0.50193  0.79875  1.0000
  C   C278      1.0  0.09956  0.58752  0.90121  1.0000
  C   C279      1.0  0.97902  0.55371  0.76819  1.0000
  C   C280      1.0  0.17917  0.51509  0.75542  1.0000
  P   P11       1.0  0.14566  0.46309  0.84726  1.0000
  H   H212      1.0  0.97886  0.48555  0.87054  1.0000
  H   H213      1.0  0.11679  0.49187  0.82180  1.0000
  C   C281      1.0  0.40188  0.52207  0.96605  1.0000
  H   H214      1.0  0.41118  0.47163  0.77502  1.0000
  C   C282      1.0  0.41192  0.34203  0.50561  1.0000
  H   H215      1.0  0.46518  0.43816  0.79078  1.0000
  H   H216      1.0  0.09829  0.51697  0.85672  1.0000
  S   S43       1.0  0.36533  0.50509  0.96477  1.0000
  H   H217      1.0  0.03927  0.44692  0.81698  1.0000
  H   H218      1.0  0.03316  0.47247  0.76259  1.0000
  H   H219      1.0  0.02743  0.51253  0.77469  1.0000
  H   H220      1.0  0.07368  0.54461  0.89054  1.0000
  H   H221      1.0  0.36630  0.49208  0.88525  1.0000
  C   C283      1.0  0.06956  0.37585  0.84875  1.0000
  C   C284      1.0  0.07233  0.39454  0.81987  1.0000
  H   H222      1.0  0.03980  0.58524  0.72064  1.0000
  H   H223      1.0  0.46794  0.40796  0.94091  1.0000
  H   H224      1.0  0.05099  0.35581  0.85017  1.0000
  H   H225      1.0  0.05580  0.38882  0.79917  1.0000
  S   S44       1.0  0.36710  0.36481  0.71788  1.0000
  C   C285      1.0  0.17567  0.46449  0.86913  1.0000
  H   H226      1.0  0.98261  0.55670  0.95761  1.0000
  H   H227      1.0  0.99952  0.37924  0.78063  1.0000
  C   C286      1.0  0.09007  0.38351  0.87678  1.0000
  C   C287      1.0  0.38088  0.46343  0.87903  1.0000
  C   C288      1.0  0.38283  0.48915  0.87519  1.0000
  C   C289      1.0  0.40615  0.51108  0.85857  1.0000
  C   C290      1.0  0.42742  0.50723  0.84552  1.0000
  C   C291      1.0  0.42590  0.48155  0.85033  1.0000
  C   C292      1.0  0.40221  0.45960  0.86667  1.0000
  C   C293      1.0  0.18409  0.43608  0.98489  1.0000
  H   H228      1.0  0.01534  0.57074  0.90481  1.0000
  H   H229      1.0  0.45585  0.51033  0.96693  1.0000
  H   H230      1.0  0.99167  0.57568  0.71455  1.0000
  H   H231      1.0  0.19163  0.50520  0.89324  1.0000
  H   H232      1.0  0.03320  0.50124  0.89623  1.0000
  H   H233      1.0  0.14413  0.43638  0.77482  1.0000
  H   H234      1.0  0.12872  0.41572  0.89826  1.0000
  H   H235      1.0  0.33783  0.38978  0.75016  1.0000
  C   C294      1.0  0.19491  0.48795  0.88938  1.0000
  C   C295      1.0  0.98057  0.60590  0.87199  1.0000
  C   C296      1.0  0.46381  0.32643  0.82905  1.0000
  H   H236      1.0  0.05434  0.56917  0.77787  1.0000
  H   H237      1.0  0.40767  0.53107  0.85595  1.0000
  C   C297      1.0  0.16264  0.46871  0.73275  1.0000
  H   H238      1.0  0.36283  0.44627  0.89155  1.0000
  C   C298      1.0  0.22372  0.46759  0.89953  1.0000
  C   C299      1.0  0.13600  0.48513  0.91254  1.0000
  Fe  Fe24      1.0  0.33748  0.45833  0.96531  1.0000
  H   H239      1.0  0.04605  0.59871  0.84450  1.0000
  C   C300      1.0  0.17542  0.49706  0.72563  1.0000
  C   C301      1.0  0.44511  0.52181  0.96696  1.0000
  H   H240      1.0  0.45203  0.47928  0.59623  1.0000
  H   H241      1.0  0.42280  0.41596  0.84644  1.0000
  S   S45       1.0  0.03766  0.47732  0.96577  1.0000
  H   H242      1.0  0.44669  0.41161  0.73112  1.0000
  H   H243      1.0  0.98192  0.61771  0.76170  1.0000
  H   H244      1.0  0.97216  0.53386  0.82302  1.0000
  P   P12       1.0  0.45228  0.47552  0.83174  1.0000
  S   S46       1.0  0.03844  0.61594  0.98598  1.0000
  C   C302      1.0  0.43985  0.42558  0.86661  1.0000
  H   H245      1.0  0.39372  0.44551  0.71495  1.0000
  C   C303      1.0  0.44530  0.33482  0.81713  1.0000
  C   C304      1.0  0.97993  0.50128  0.88935  1.0000
  H   H246      1.0  0.08686  0.63827  0.87240  1.0000
  H   H247      1.0  0.45289  0.35476  0.80331  1.0000
  C   C305      1.0  0.15737  0.41798  0.97046  1.0000
  C   C306      1.0  0.98029  0.36475  0.83566  1.0000
  H   H248      1.0  0.02329  0.51904  0.95772  1.0000
  H   H249      1.0  0.20155  0.33383  0.92820  1.0000
  C   C307      1.0  0.98133  0.61419  0.79230  1.0000
  H   H250      1.0  0.42933  0.38693  0.89381  1.0000
  C   C308      1.0  0.04350  0.52845  0.97092  1.0000
  C   C309      1.0  0.15348  0.39462  0.95065  1.0000
  Fe  Fe25      1.0  0.27622  0.41251  0.96014  1.0000
  C   C310      1.0  0.41699  0.31736  0.82227  1.0000
  C   C311      1.0  0.98704  0.54452  0.80066  1.0000
  C   C312      1.0  0.41964  0.45915  0.76543  1.0000
  S   S47       1.0  0.00820  0.40306  0.96848  1.0000
  C   C313      1.0  0.20256  0.40810  0.95903  1.0000
  C   C314      1.0  0.41608  0.50750  0.96600  1.0000
  C   C315      1.0  0.00552  0.62903  0.81479  1.0000
  C   C316      1.0  0.11191  0.51089  0.91198  1.0000
  C   C317      1.0  0.97948  0.43509  0.69191  1.0000
  C   C318      1.0  0.40984  0.44459  0.73117  1.0000
  C   C319      1.0  0.38871  0.34509  0.50239  1.0000
  Fe  Fe26      1.0  0.08375  0.41456  0.97099  1.0000
  C   C320      1.0  0.12521  0.49916  0.93217  1.0000
  C   C321      1.0  0.45596  0.46245  0.59252  1.0000
  H   H251      1.0  0.43377  0.50393  0.70324  1.0000
  S   S48       1.0  0.03639  0.64616  0.88178  1.0000
  C   C322      1.0  0.42010  0.42802  0.71841  1.0000
  H   H252      1.0  0.99060  0.41982  0.87385  1.0000
  C   C323      1.0  0.00044  0.54905  0.90851  1.0000
  C   C324      1.0  0.44610  0.56537  0.96835  1.0000
  C   C325      1.0  0.05742  0.55676  0.97921  1.0000
  C   C326      1.0  0.46026  0.55078  0.96834  1.0000
  C   C327      1.0  0.20636  0.43120  0.97943  1.0000
  H   H253      1.0  0.10317  0.52135  0.92724  1.0000
  H   H254      1.0  0.02449  0.64386  0.80103  1.0000
  H   H255      1.0  0.97213  0.62696  0.97128  1.0000
  H   H256      1.0  0.04809  0.56904  0.97197  1.0000
  C   C328      1.0  0.18383  0.32345  0.94683  1.0000
  H   H257      1.0  0.97498  0.43157  0.81395  1.0000
  C   C329      1.0  0.05562  0.51232  0.97924  1.0000
  H   H258      1.0  0.45089  0.47739  0.66886  1.0000
  S   S49       1.0  0.37789  0.31605  0.64446  1.0000
  C   C330      1.0  0.46404  0.49948  0.67167  1.0000
  C   C331      1.0  0.45441  0.51438  0.69168  1.0000
  H   H259      1.0  0.47061  0.40290  0.57393  1.0000
  H   H260      1.0  0.97666  0.43530  0.98961  1.0000
  H   H261      1.0  0.45688  0.93077  0.03608  1.0000
  C   C332      1.0  0.43690  0.88796  0.11117  1.0000
  C   C333      1.0  0.41012  0.92710  0.13555  1.0000
  H   H262      1.0  0.11178  0.73833  0.08817  1.0000
  H   H263      1.0  0.07315  0.69329  0.10971  1.0000
  C   C334      1.0  0.44810  0.91779  0.01130  1.0000
  Fe  Fe27      1.0  0.33281  0.94867  0.03981  1.0000
  S   S50       1.0  0.32719  0.90685  0.05486  1.0000
  H   H264      1.0  0.02452  0.76023  0.09544  1.0000
  C   C335      1.0  0.43443  0.86584  0.08984  1.0000
  C   C336      1.0  0.01067  0.76054  0.07376  1.0000
  H   H265      1.0  0.45549  0.85119  0.05430  1.0000
  H   H266      1.0  0.39331  0.97347  0.11509  1.0000
  C   C337      1.0  0.98299  0.66234  0.00643  1.0000
  C   C338      1.0  0.46240  0.91255  0.11388  1.0000
  C   C339      1.0  0.38600  0.92459  0.15053  1.0000
  H   H267      1.0  0.40989  0.92083  0.10636  1.0000
  C   C340      1.0  0.41656  0.74730  0.14895  1.0000
  C   C341      1.0  0.43432  0.93784  0.15779  1.0000
  P   P13       1.0  0.00109  0.70874  0.05258  1.0000
  H   H268      1.0  0.36903  0.97160  0.38856  1.0000
  C   C342      1.0  0.46401  0.90930  0.99100  1.0000
  H   H269      1.0  0.36758  0.91656  0.13275  1.0000
  Fe  Fe28      1.0  0.36114  0.91749  0.01225  1.0000
  H   H270      1.0  0.42985  0.74888  0.05394  1.0000
  C   C343      1.0  0.40960  0.94339  0.21060  1.0000
  C   C344      1.0  0.45405  0.80371  0.01759  1.0000
  H   H271      1.0  0.41874  0.88571  0.12475  1.0000
  H   H272      1.0  0.45895  0.97461  0.43712  1.0000
  H   H273      1.0  0.34709  0.96055  0.15298  1.0000
  S   S51       1.0  0.08577  0.65978  0.04645  1.0000
  H   H274      1.0  0.40378  0.97269  0.43391  1.0000
  C   C345      1.0  0.03617  0.71874  0.06489  1.0000
  C   C346      1.0  0.41198  0.74096  0.10998  1.0000
  H   H275      1.0  0.39170  0.72558  0.09988  1.0000
  C   C347      1.0  0.09067  0.73303  0.08216  1.0000
  S   S52       1.0  0.25748  0.84584  0.00057  1.0000
  C   C348      1.0  0.18441  0.89817  0.01040  1.0000
  C   C349      1.0  0.44283  0.76681  0.16202  1.0000
  H   H276      1.0  0.02521  0.68036  0.09359  1.0000
  H   H277      1.0  0.40937  0.94996  0.23958  1.0000
  H   H278      1.0  0.39978  0.73690  0.16905  1.0000
  H   H279      1.0  0.43987  0.96604  0.08602  1.0000
  H   H280      1.0  0.24449  0.90251  0.04004  1.0000
  C   C350      1.0  0.06893  0.70764  0.09422  1.0000
  C   C351      1.0  0.08531  0.75105  0.06070  1.0000
  C   C352      1.0  0.05815  0.74391  0.05187  1.0000
  H   H281      1.0  0.05441  0.75777  0.03435  1.0000
  C   C353      1.0  0.43360  0.75432  0.08400  1.0000
  S   S53       1.0  0.13256  0.73969  0.00988  1.0000
  Fe  Fe29      1.0  0.29750  0.88986  0.00394  1.0000
  H   H282      1.0  0.02996  0.65154  0.14218  1.0000
  H   H283      1.0  0.20820  0.91169  0.06284  1.0000
  C   C354      1.0  0.17417  0.79423  0.02319  1.0000
  C   C355      1.0  0.04180  0.70042  0.08524  1.0000
  C   C356      1.0  0.46450  0.78021  0.13609  1.0000
  C   C357      1.0  0.45748  0.86781  0.07198  1.0000
  S   S54       1.0  0.40117  0.91877  0.02880  1.0000
  H   H284      1.0  0.01133  0.65079  0.20662  1.0000
  C   C358      1.0  0.20673  0.90360  0.03432  1.0000
  C   C359      1.0  0.22274  0.81619  0.00368  1.0000
  C   C360      1.0  0.99661  0.73832  0.04855  1.0000
  S   S55       1.0  0.36796  0.95966  0.99972  1.0000
  H   H285      1.0  0.00697  0.70672  0.13620  1.0000
  H   H286      1.0  0.44259  0.80179  0.04322  1.0000
  C   C361      1.0  0.43375  0.94578  0.19567  1.0000
  C   C362      1.0  0.98609  0.69152  0.12825  1.0000
  H   H287      1.0  0.10239  0.77014  0.04999  1.0000
  C   C363      1.0  0.98855  0.78379  0.04410  1.0000
  H   H288      1.0  0.36720  0.93153  0.19926  1.0000
  C   C364      1.0  0.38578  0.93297  0.18795  1.0000
  H   H289      1.0  0.41446  0.84745  0.08635  1.0000
  H   H290      1.0  0.01780  0.80042  0.09076  1.0000
  C   C365      1.0  0.20115  0.81764  0.02137  1.0000
  H   H291      1.0  0.20527  0.83685  0.03400  1.0000
  C   C366      1.0  0.45986  0.77448  0.09678  1.0000
  H   H292      1.0  0.45190  0.95398  0.21374  1.0000
  H   H293      1.0  0.15810  0.79606  0.03713  1.0000
  Fe  Fe30      1.0  0.09815  0.69323  0.00073  1.0000
  C   C367      1.0  0.42084  0.90924  0.00016  1.0000
  C   C368      1.0  0.16775  0.76862  0.00721  1.0000
  C   C369      1.0  0.22722  0.89853  0.02150  1.0000
  C   C370      1.0  0.00678  0.78327  0.07133  1.0000
  C   C371      1.0  0.46164  0.97636  0.08045  1.0000
  H   H294      1.0  0.44646  0.77144  0.19231  1.0000
  C   C372      1.0  0.99448  0.69107  0.00742  1.0000
  P   P14       1.0  0.46613  0.94287  0.13736  1.0000
  H   H295      1.0  0.16850  0.90205  0.02043  1.0000
  H   H296      1.0  0.97463  0.67796  0.18671  1.0000
  H   H297      1.0  0.97685  0.65025  0.03258  1.0000
  S   S56       1.0  0.30122  0.93158  0.99082  1.0000
  H   H298      1.0  0.36205  0.98033  0.21830  1.0000
  H   H299      1.0  0.98551  0.80139  0.04232  1.0000
  C   C373      1.0  0.97784  0.73867  0.02187  1.0000
  C   C374      1.0  0.97400  0.76145  0.01949  1.0000
  C   C375      1.0  0.97751  0.68764  0.08970  1.0000
  H   H300      1.0  0.12479  0.78096  0.96395  1.0000
  C   C376      1.0  0.13990  0.79077  0.94150  1.0000
  H   H301      1.0  0.16519  0.77429  0.86468  1.0000
  C   C377      1.0  0.16281  0.78696  0.88573  1.0000
  C   C378      1.0  0.15742  0.81936  0.94136  1.0000
  H   H302      1.0  0.15537  0.83126  0.96381  1.0000
  C   C379      1.0  0.14279  0.77454  0.91403  1.0000
  H   H303      1.0  0.12988  0.75228  0.91534  1.0000
  S   S57       1.0  0.09778  0.66591  0.95350  1.0000
  H   H304      1.0  0.16363  0.84843  0.84573  1.0000
  C   C380      1.0  0.18013  0.81560  0.88513  1.0000
  C   C381      1.0  0.17778  0.83202  0.91324  1.0000
  H   H305      1.0  0.19563  0.82487  0.86309  1.0000
  H   H306      1.0  0.14693  0.87101  0.80072  1.0000
  C   C382      1.0  0.17009  0.86992  0.84981  1.0000
  C   C383      1.0  0.16056  0.88269  0.82413  1.0000
  H   H307      1.0  0.24558  0.91607  0.87142  1.0000
  C   C384      1.0  0.16873  0.91051  0.82843  1.0000
  P   P15       1.0  0.20082  0.86896  0.91309  1.0000
  C   C385      1.0  0.18784  0.88494  0.88012  1.0000
  Fe  Fe31      1.0  0.33700  0.94043  0.95230  1.0000
  C   C386      1.0  0.28883  0.89060  0.88048  1.0000
  H   H308      1.0  0.16147  0.92042  0.80836  1.0000
  H   H309      1.0  0.29289  0.92782  0.85601  1.0000
  C   C387      1.0  0.25224  0.90158  0.87891  1.0000
  C   C388      1.0  0.27915  0.90836  0.87002  1.0000
  S   S58       1.0  0.34964  0.95692  0.89044  1.0000
  C   C389      1.0  0.18643  0.92561  0.85848  1.0000
  C   C390      1.0  0.23467  0.87673  0.89803  1.0000
  C   C391      1.0  0.19595  0.91291  0.88424  1.0000
  H   H310      1.0  0.23199  0.84040  0.92486  1.0000
  H   H311      1.0  0.20995  0.92501  0.90711  1.0000
  H   H312      1.0  0.19296  0.94725  0.86167  1.0000
  S   S59       1.0  0.33193  0.89822  0.96279  1.0000
  C   C392      1.0  0.27159  0.86598  0.89980  1.0000
  C   C393      1.0  0.24466  0.85909  0.90860  1.0000
  H   H313      1.0  0.30998  0.89636  0.87461  1.0000
  H   H314      1.0  0.36124  0.91400  0.77616  1.0000
  H   H315      1.0  0.27936  0.85266  0.90931  1.0000
  H   H316      1.0  0.24157  0.88430  0.97557  1.0000
  C   C394      1.0  0.20319  0.88260  0.96052  1.0000
  H   H317      1.0  0.16509  0.88335  0.95551  1.0000
  H   H318      1.0  0.23248  0.78887  0.97366  1.0000
  C   C395      1.0  0.18259  0.88767  0.97363  1.0000
  C   C396      1.0  0.22549  0.88813  0.98475  1.0000
  H   H319      1.0  0.38256  0.94631  0.55756  1.0000
  H   H320      1.0  0.42985  0.81578  0.98239  1.0000
  C   C397      1.0  0.00158  0.69302  0.93860  1.0000
  C   C398      1.0  0.00429  0.70638  0.97333  1.0000
  C   C399      1.0  0.98958  0.66437  0.93776  1.0000
  H   H321      1.0  0.01470  0.72867  0.97369  1.0000
  C   C400      1.0  0.98037  0.64904  0.97167  1.0000
  H   H322      1.0  0.41361  0.92912  0.57892  1.0000
  C   C401      1.0  0.44293  0.97925  0.95370  1.0000
  H   H323      1.0  0.18510  0.74793  0.97664  1.0000
  C   C402      1.0  0.40307  0.95522  0.54573  1.0000
  H   H324      1.0  0.00960  0.70487  0.91243  1.0000
  Fe  Fe32      1.0  0.05238  0.65115  0.94438  1.0000
  H   H325      1.0  0.42675  0.96024  0.96618  1.0000
  H   H326      1.0  0.37132  0.97566  0.81512  1.0000
  C   C403      1.0  0.40032  0.94766  0.75770  1.0000
  H   H327      1.0  0.37340  0.87814  0.76206  1.0000
  H   H328      1.0  0.46581  0.95925  0.86559  1.0000
  H   H329      1.0  0.41680  0.87054  0.92313  1.0000
  C   C404      1.0  0.44735  0.95770  0.54353  1.0000
  C   C405      1.0  0.41215  0.97672  0.51893  1.0000
  H   H330      1.0  0.98829  0.65420  0.91097  1.0000
  H   H331      1.0  0.45641  0.82175  0.92362  1.0000
  C   C406      1.0  0.38129  0.91986  0.76454  1.0000
  C   C407      1.0  0.46181  0.81513  0.95002  1.0000
  C   C408      1.0  0.45268  0.89185  0.95952  1.0000
  H   H332      1.0  0.46116  0.95068  0.55361  1.0000
  H   H333      1.0  0.46771  0.96159  0.93926  1.0000
  H   H334      1.0  0.41907  0.89160  0.73465  1.0000
  C   C409      1.0  0.44672  0.81160  0.98325  1.0000
  H   H335      1.0  0.45272  0.94058  0.72211  1.0000
  C   C410      1.0  0.41390  0.90728  0.74125  1.0000
  C   C411      1.0  0.42663  0.95555  0.74371  1.0000
  H   H336      1.0  0.38890  0.88603  0.95878  1.0000
  C   C412      1.0  0.43301  0.93510  0.73448  1.0000
  C   C413      1.0  0.45653  0.97931  0.51687  1.0000
  C   C414      1.0  0.40984  0.89270  0.96770  1.0000
  C   C415      1.0  0.42060  0.94560  0.55787  1.0000
  C   C416      1.0  0.42568  0.88393  0.94760  1.0000
  H   H337      1.0  0.45479  0.91323  0.84324  1.0000
  H   H338      1.0  0.39450  0.96297  0.76358  1.0000
  C   C417      1.0  0.38814  0.89968  0.75657  1.0000
  C   C418      1.0  0.21634  0.79062  0.98757  1.0000
  C   C419      1.0  0.46610  0.98006  0.93795  1.0000
  C   C420      1.0  0.18927  0.76717  0.98928  1.0000
  S   S60       1.0  0.05312  0.68044  0.98912  1.0000
  Fe  Fe33      1.0  0.63195  0.07012  0.22896  1.0000
  S   S61       1.0  0.62118  0.10379  0.23292  1.0000
  S   S62       1.0  0.63153  0.05369  0.16834  1.0000
  Fe  Fe34      1.0  0.64284  0.07266  0.31685  1.0000
  S   S63       1.0  0.63199  0.10531  0.32591  1.0000
  S   S64       1.0  0.65599  0.05554  0.36705  1.0000
  Fe  Fe35      1.0  0.59722  0.08094  0.28500  1.0000
  S   S65       1.0  0.55271  0.06625  0.29792  1.0000
  Fe  Fe36      1.0  0.65745  0.12548  0.27336  1.0000
  S   S66       1.0  0.68435  0.17254  0.27341  1.0000
  S   S67       1.0  0.60602  0.04626  0.27930  1.0000
  S   S68       1.0  0.67039  0.09383  0.26597  1.0000
  H   H339      1.0  0.63352  0.03732  0.09103  1.0000
  Fe  Fe37      1.0  0.84389  0.28850  0.28728  1.0000
  S   S69       1.0  0.81534  0.24180  0.28968  1.0000
  H   H340      1.0  0.50662  0.99569  0.17184  1.0000
  C   C421      1.0  0.56143  0.05772  0.15444  1.0000
  H   H341      1.0  0.49045  0.11089  0.36327  1.0000
  C   C422      1.0  0.73515  0.25206  0.16886  1.0000
  H   H342      1.0  0.51974  0.02041  0.35169  1.0000
  C   C423      1.0  0.53951  0.08872  0.29330  1.0000
  C   C424      1.0  0.55659  0.11714  0.28806  1.0000
  C   C425      1.0  0.54497  0.13429  0.28563  1.0000
  C   C426      1.0  0.51634  0.12305  0.28809  1.0000
  C   C427      1.0  0.49940  0.09456  0.29205  1.0000
  C   C428      1.0  0.51096  0.07755  0.29524  1.0000
  H   H343      1.0  0.57868  0.12591  0.28642  1.0000
  H   H344      1.0  0.55816  0.15631  0.28208  1.0000
  H   H345      1.0  0.75639  0.19591  0.08757  1.0000
  H   H346      1.0  0.49766  0.05558  0.29904  1.0000
  C   C429      1.0  0.65813  0.06162  0.41732  1.0000
  C   C430      1.0  0.64530  0.07418  0.43628  1.0000
  H   H347      1.0  0.73922  0.24490  0.39280  1.0000
  H   H348      1.0  0.63387  0.08157  0.41976  1.0000
  C   C431      1.0  0.51012  0.13228  0.19384  1.0000
  C   C432      1.0  0.72073  0.19130  0.27951  1.0000
  C   C433      1.0  0.73664  0.17856  0.27743  1.0000
  C   C434      1.0  0.76553  0.19434  0.28077  1.0000
  C   C435      1.0  0.77887  0.22297  0.28649  1.0000
  C   C436      1.0  0.76295  0.23560  0.28976  1.0000
  C   C437      1.0  0.73404  0.21988  0.28589  1.0000
  H   H349      1.0  0.72678  0.15664  0.27231  1.0000
  H   H350      1.0  0.77760  0.18431  0.27825  1.0000
  H   H351      1.0  0.77296  0.25752  0.29492  1.0000
  H   H352      1.0  0.72196  0.22995  0.28760  1.0000
  C   C438      1.0  0.61059  0.02187  0.14337  1.0000
  C   C439      1.0  0.61655  0.01973  0.10483  1.0000
  H   H353      1.0  0.52142  0.06322  0.37211  1.0000
  C   C440      1.0  0.70351  0.14237  0.35671  1.0000
  C   C441      1.0  0.71065  0.12339  0.37084  1.0000
  C   C442      1.0  0.72214  0.12671  0.40743  1.0000
  C   C443      1.0  0.72662  0.14911  0.42974  1.0000
  C   C444      1.0  0.71904  0.16803  0.41602  1.0000
  C   C445      1.0  0.70792  0.16481  0.37894  1.0000
  P   P16       1.0  0.72581  0.19727  0.44494  1.0000
  C   C446      1.0  0.75188  0.15403  0.16810  1.0000
  C   C447      1.0  0.76267  0.22076  0.44162  1.0000
  C   C448      1.0  0.54402  0.05472  0.12363  1.0000
  H   H354      1.0  0.60648  0.99359  0.05485  1.0000
  C   C449      1.0  0.55310  0.05830  0.19171  1.0000
  C   C450      1.0  0.80342  0.24609  0.40199  1.0000
  C   C451      1.0  0.77502  0.22829  0.40533  1.0000
  C   C452      1.0  0.81920  0.24126  0.19144  1.0000
  H   H355      1.0  0.48985  0.11787  0.48528  1.0000
  C   C453      1.0  0.83661  0.13822  0.46143  1.0000
  C   C454      1.0  0.80007  0.18290  0.41487  1.0000
  C   C455      1.0  0.75373  0.21748  0.03818  1.0000
  C   C456      1.0  0.70619  0.21251  0.42628  1.0000
  C   C457      1.0  0.67840  0.20105  0.43653  1.0000
  C   C458      1.0  0.66285  0.21250  0.42259  1.0000
  C   C459      1.0  0.67466  0.23506  0.39756  1.0000
  C   C460      1.0  0.70218  0.24648  0.38694  1.0000
  C   C461      1.0  0.71798  0.23543  0.40141  1.0000
  H   H356      1.0  0.69455  0.13963  0.32838  1.0000
  H   H357      1.0  0.70703  0.10596  0.35348  1.0000
  C   C462      1.0  0.86594  0.27736  0.17825  1.0000
  H   H358      1.0  0.84457  0.10598  0.44496  1.0000
  H   H359      1.0  0.70282  0.17957  0.36685  1.0000
  H   H360      1.0  0.76117  0.14146  0.16312  1.0000
  C   C463      1.0  0.56603  0.05531  0.46679  1.0000
  H   H361      1.0  0.79476  0.27171  0.21861  1.0000
  H   H362      1.0  0.81270  0.25183  0.37382  1.0000
  H   H363      1.0  0.76277  0.22029  0.37940  1.0000
  H   H364      1.0  0.86311  0.20192  0.35069  1.0000
  C   C464      1.0  0.84543  0.19630  0.36864  1.0000
  C   C465      1.0  0.47174  0.99559  0.05048  1.0000
  H   H365      1.0  0.54087  0.00747  0.22409  1.0000
  C   C466      1.0  0.48967  0.99492  0.39396  1.0000
  H   H366      1.0  0.64145  0.20352  0.43060  1.0000
  H   H367      1.0  0.66242  0.24356  0.38616  1.0000
  H   H368      1.0  0.71133  0.26390  0.36735  1.0000
  H   H369      1.0  0.78693  0.19124  0.14782  1.0000
  C   C467      1.0  0.50937  0.05176  0.16766  1.0000
  H   H370      1.0  0.70664  0.26610  0.18078  1.0000
  C   C468      1.0  0.50084  0.11414  0.39071  1.0000
  C   C469      1.0  0.52753  0.11826  0.39275  1.0000
  C   C470      1.0  0.54149  0.12372  0.42807  1.0000
  C   C471      1.0  0.51796  0.05145  0.13012  1.0000
  P   P17       1.0  0.57618  0.12955  0.43046  1.0000
  C   C472      1.0  0.57339  0.09604  0.43139  1.0000
  C   C473      1.0  0.59689  0.15032  0.39084  1.0000
  C   C474      1.0  0.62138  0.15063  0.38212  1.0000
  C   C475      1.0  0.63771  0.16668  0.35168  1.0000
  C   C476      1.0  0.62993  0.18273  0.32992  1.0000
  C   C477      1.0  0.60611  0.18333  0.33925  1.0000
  C   C478      1.0  0.58978  0.16744  0.36985  1.0000
  H   H371      1.0  0.77493  0.27961  0.10554  1.0000
  C   C479      1.0  0.67313  0.05248  0.43912  1.0000
  H   H372      1.0  0.71800  0.19828  0.18687  1.0000
  H   H373      1.0  0.80509  0.22436  0.20960  1.0000
  C   C480      1.0  0.57729  0.08488  0.39790  1.0000
  C   C481      1.0  0.58854  0.99880  0.16063  1.0000
  C   C482      1.0  0.48750  0.11437  0.42400  1.0000
  H   H374      1.0  0.50480  0.04881  0.10580  1.0000
  H   H375      1.0  0.88773  0.28822  0.18546  1.0000
  H   H376      1.0  0.57084  0.02544  0.43458  1.0000
  C   C483      1.0  0.57630  0.05947  0.39909  1.0000
  H   H377      1.0  0.58368  0.99996  0.19015  1.0000
  C   C484      1.0  0.76406  0.26436  0.04811  1.0000
  H   H378      1.0  0.49043  0.15671  0.18914  1.0000
  H   H379      1.0  0.53735  0.11750  0.36666  1.0000
  C   C485      1.0  0.75646  0.24206  0.02369  1.0000
  H   H380      1.0  0.62780  0.13828  0.39857  1.0000
  H   H381      1.0  0.65630  0.16646  0.34457  1.0000
  H   H382      1.0  0.64242  0.19460  0.30579  1.0000
  H   H383      1.0  0.60005  0.19581  0.32239  1.0000
  H   H384      1.0  0.57157  0.16846  0.37664  1.0000
  H   H385      1.0  0.69251  0.14865  0.20047  1.0000
  C   C486      1.0  0.76020  0.25362  0.17905  1.0000
  H   H386      1.0  0.78263  0.17841  0.43240  1.0000
  H   H387      1.0  0.57986  0.05125  0.37319  1.0000
  H   H388      1.0  0.58095  0.09561  0.37070  1.0000
  C   C487      1.0  0.64692  0.07659  0.47694  1.0000
  C   C488      1.0  0.72608  0.26756  0.18856  1.0000
  C   C489      1.0  0.50715  0.01982  0.37538  1.0000
  C   C490      1.0  0.74208  0.28496  0.21828  1.0000
  C   C491      1.0  0.51741  0.00281  0.06193  1.0000
  S   S70       1.0  0.50224  0.14496  0.28734  1.0000
  C   C492      1.0  0.72778  0.18633  0.18106  1.0000
  C   C493      1.0  0.81993  0.25608  0.43480  1.0000
  C   C494      1.0  0.79845  0.18630  0.37532  1.0000
  H   H389      1.0  0.76625  0.28344  0.03687  1.0000
  C   C495      1.0  0.76622  0.23744  0.10185  1.0000
  H   H390      1.0  0.72260  0.23877  0.14576  1.0000
  C   C496      1.0  0.82420  0.18565  0.43148  1.0000
  H   H391      1.0  0.84198  0.26975  0.43207  1.0000
  H   H392      1.0  0.82007  0.19626  0.32172  1.0000
  C   C497      1.0  0.85633  0.28661  0.14769  1.0000
  C   C498      1.0  0.82117  0.19312  0.35227  1.0000
  H   H393      1.0  0.52174  0.05700  0.22723  1.0000
  C   C499      1.0  0.59407  0.14930  0.47238  1.0000
  C   C500      1.0  0.56691  0.08069  0.46563  1.0000
  C   C501      1.0  0.47468  0.01870  0.43657  1.0000
  H   H394      1.0  0.71375  0.11996  0.18892  1.0000
  C   C502      1.0  0.50824  0.04406  0.38708  1.0000
  C   C503      1.0  0.48119  0.08344  0.18059  1.0000
  C   C504      1.0  0.80804  0.24813  0.47102  1.0000
  C   C505      1.0  0.84692  0.19240  0.40806  1.0000
  H   H395      1.0  0.85472  0.24790  0.22441  1.0000
  H   H396      1.0  0.77974  0.18409  0.36249  1.0000
  H   H397      1.0  0.55818  0.98693  0.01255  1.0000
  C   C506      1.0  0.49215  0.04356  0.41759  1.0000
  H   H398      1.0  0.74785  0.20019  0.01925  1.0000
  H   H399      1.0  0.86624  0.23641  0.45575  1.0000
  H   H400      1.0  0.47181  0.18562  0.39189  1.0000
  H   H401      1.0  0.49592  0.26930  0.41848  1.0000
  C   C507      1.0  0.52754  0.12290  0.46164  1.0000
  C   C508      1.0  0.75464  0.19876  0.16647  1.0000
  C   C509      1.0  0.50065  0.11836  0.45952  1.0000
  C   C510      1.0  0.48512  0.22841  0.40100  1.0000
  C   C511      1.0  0.75861  0.21514  0.07708  1.0000
  C   C512      1.0  0.52747  0.05581  0.19822  1.0000
  H   H402      1.0  0.52398  0.10314  0.19892  1.0000
  H   H403      1.0  0.82123  0.28117  0.11566  1.0000
  H   H404      1.0  0.56649  0.06071  0.21574  1.0000
  H   H405      1.0  0.68309  0.04277  0.42502  1.0000
  C   C513      1.0  0.76649  0.18229  0.15979  1.0000
  C   C514      1.0  0.71314  0.15802  0.18889  1.0000
  H   H406      1.0  0.55085  0.05500  0.09471  1.0000
  P   P18       1.0  0.77260  0.23472  0.15219  1.0000
  H   H407      1.0  0.58147  0.05983  0.14951  1.0000
  H   H408      1.0  0.52958  0.14937  0.20357  1.0000
  H   H409      1.0  0.77940  0.30003  0.25174  1.0000
  H   H410      1.0  0.72720  0.11165  0.41858  1.0000
  H   H411      1.0  0.87083  0.30460  0.13141  1.0000
  H   H412      1.0  0.49082  0.23425  0.37133  1.0000
  H   H413      1.0  0.48268  0.25613  0.48552  1.0000
  H   H414      1.0  0.66862  0.18315  0.45516  1.0000
  C   C515      1.0  0.57097  0.04483  0.43359  1.0000
  C   C516      1.0  0.50676  0.10589  0.19141  1.0000
  C   C517      1.0  0.55960  0.00244  0.99230  1.0000
  C   C518      1.0  0.84739  0.25465  0.20003  1.0000
  H   H415      1.0  0.49278  0.06242  0.42573  1.0000
  C   C519      1.0  0.80931  0.25038  0.16077  1.0000
  C   C520      1.0  0.48802  0.13642  0.18579  1.0000
  S   S71       1.0  0.88968  0.30393  0.28558  1.0000
  C   C521      1.0  0.76892  0.26208  0.08703  1.0000
  H   H416      1.0  0.50728  0.02321  0.01729  1.0000
  C   C522      1.0  0.72518  0.14188  0.18256  1.0000
  C   C523      1.0  0.77584  0.27074  0.20939  1.0000
  H   H417      1.0  0.86586  0.19484  0.42031  1.0000
  C   C524      1.0  0.82815  0.27321  0.13893  1.0000
  C   C525      1.0  0.60119  0.99489  0.08414  1.0000
  H   H418      1.0  0.47736  0.08558  0.29281  1.0000
  H   H419      1.0  0.78204  0.12172  0.47855  1.0000
  H   H420      1.0  0.57830  0.17736  0.46629  1.0000
  H   H421      1.0  0.82327  0.13491  0.43691  1.0000
  C   C526      1.0  0.67532  0.05550  0.47899  1.0000
  H   H422      1.0  0.61541  0.12679  0.48527  1.0000
  C   C527      1.0  0.76698  0.28660  0.22860  1.0000
  P   P19       1.0  0.82599  0.17987  0.48222  1.0000
  H   H423      1.0  0.73574  0.15156  0.45788  1.0000
  C   C528      1.0  0.84864  0.12173  0.46588  1.0000
  C   C529      1.0  0.77959  0.23047  0.47448  1.0000
  H   H424      1.0  0.59725  0.03477  0.01688  1.0000
  H   H425      1.0  0.73518  0.29711  0.23344  1.0000
  C   C530      1.0  0.47318  0.99425  0.42415  1.0000
  C   C531      1.0  0.49958  0.00870  0.04100  1.0000
  C   C532      1.0  0.48034  0.24043  0.46575  1.0000
  C   C533      1.0  0.48802  0.24811  0.42760  1.0000
  H   H426      1.0  0.53907  0.01311  0.05512  1.0000
  C   C534      1.0  0.47430  0.20099  0.41249  1.0000
  H   H427      1.0  0.75272  0.24383  0.99352  1.0000
  H   H428      1.0  0.47260  0.06818  0.10018  1.0000
  H   H429      1.0  0.68936  0.14250  0.48074  1.0000
  C   C535      1.0  0.52779  0.98618  0.21568  1.0000
  C   C536      1.0  0.58159  0.02946  0.99485  1.0000
  C   C537      1.0  0.59121  0.17179  0.48304  1.0000
  H   H430      1.0  0.48256  0.00686  0.21957  1.0000
  P   P20       1.0  0.47651  0.04924  0.17696  1.0000
  C   C538      1.0  0.50741  0.98357  0.09186  1.0000
  C   C539      1.0  0.47192  0.30273  0.47068  1.0000
  H   H431      1.0  0.53734  0.12575  0.48943  1.0000
  C   C540      1.0  0.84178  0.15875  0.48837  1.0000
  C   C541      1.0  0.86448  0.23643  0.48654  1.0000
  H   H432      1.0  0.77698  0.22009  0.75026  1.0000
  C   C542      1.0  0.48149  0.18096  0.80892  1.0000
  S   S72       1.0  0.49493  0.11242  0.72422  1.0000
  C   C543      1.0  0.85916  0.16241  0.51983  1.0000
  H   H433      1.0  0.47486  0.21772  0.73514  1.0000
  Fe  Fe38      1.0  0.83597  0.27476  0.64923  1.0000
  S   S73       1.0  0.80644  0.22996  0.63272  1.0000
  S   S74       1.0  0.88095  0.28777  0.65580  1.0000
  Fe  Fe39      1.0  0.64334  0.07288  0.60007  1.0000
  S   S75       1.0  0.63354  0.10669  0.60678  1.0000
  S   S76       1.0  0.66690  0.07022  0.54904  1.0000
  Fe  Fe40      1.0  0.62274  0.04949  0.68267  1.0000
  S   S77       1.0  0.61237  0.08261  0.69453  1.0000
  S   S78       1.0  0.60985  0.01048  0.71937  1.0000
  Fe  Fe41      1.0  0.59466  0.07447  0.63481  1.0000
  S   S79       1.0  0.55266  0.06696  0.61667  1.0000
  Fe  Fe42      1.0  0.65265  0.11195  0.66526  1.0000
  S   S80       1.0  0.68172  0.15561  0.68623  1.0000
  S   S81       1.0  0.60296  0.04000  0.62383  1.0000
  S   S82       1.0  0.66439  0.07951  0.65781  1.0000
  C   C544      1.0  0.53654  0.07874  0.64789  1.0000
  C   C545      1.0  0.55082  0.09575  0.67883  1.0000
  C   C546      1.0  0.53768  0.10561  0.70254  1.0000
  C   C547      1.0  0.51035  0.09872  0.69515  1.0000
  C   C548      1.0  0.49588  0.08126  0.66468  1.0000
  C   C549      1.0  0.50896  0.07117  0.64129  1.0000
  H   H434      1.0  0.57211  0.10175  0.68408  1.0000
  H   H435      1.0  0.54889  0.11904  0.72619  1.0000
  H   H436      1.0  0.50236  0.22814  0.85574  1.0000
  H   H437      1.0  0.49771  0.05749  0.61797  1.0000
  C   C550      1.0  0.60541  0.00017  0.76873  1.0000
  H   H438      1.0  0.49382  0.25991  0.78257  1.0000
  C   C551      1.0  0.71624  0.17611  0.67049  1.0000
  C   C552      1.0  0.73123  0.20411  0.68064  1.0000
  C   C553      1.0  0.75875  0.22102  0.66894  1.0000
  C   C554      1.0  0.77165  0.20996  0.64734  1.0000
  C   C555      1.0  0.75660  0.18204  0.63697  1.0000
  C   C556      1.0  0.72904  0.16516  0.64840  1.0000
  H   H439      1.0  0.72151  0.21276  0.69772  1.0000
  H   H440      1.0  0.77010  0.24250  0.67708  1.0000
  H   H441      1.0  0.76644  0.17343  0.62021  1.0000
  H   H442      1.0  0.71782  0.14365  0.64035  1.0000
  H   H443      1.0  0.86368  0.17800  0.54108  1.0000
  C   C557      1.0  0.75454  0.16055  0.53804  1.0000
  H   H444      1.0  0.56910  0.02944  0.85974  1.0000
  C   C558      1.0  0.61563  0.01915  0.79876  1.0000
  H   H445      1.0  0.62215  0.02481  0.85999  1.0000
  C   C559      1.0  0.82537  0.20364  0.72603  1.0000
  C   C560      1.0  0.81391  0.21989  0.73518  1.0000
  H   H446      1.0  0.50758  0.25176  0.55628  1.0000
  H   H447      1.0  0.67415  0.12839  0.54643  1.0000
  H   H448      1.0  0.83155  0.19524  0.56350  1.0000
  H   H449      1.0  0.68683  0.16345  0.59738  1.0000
  C   C561      1.0  0.79114  0.07523  0.76524  1.0000
  C   C562      1.0  0.80814  0.08917  0.79647  1.0000
  C   C563      1.0  0.81058  0.11396  0.80861  1.0000
  C   C564      1.0  0.79611  0.12487  0.78946  1.0000
  C   C565      1.0  0.77932  0.11122  0.75766  1.0000
  C   C566      1.0  0.77667  0.08611  0.74597  1.0000
  P   P21       1.0  0.75982  0.12492  0.73425  1.0000
  C   C567      1.0  0.72787  0.11350  0.75931  1.0000
  C   C568      1.0  0.78067  0.16217  0.73400  1.0000
  C   C569      1.0  0.76930  0.17871  0.74301  1.0000
  C   C570      1.0  0.78594  0.20742  0.74385  1.0000
  C   C571      1.0  0.80890  0.17490  0.72564  1.0000
  C   C572      1.0  0.70691  0.11662  0.74191  1.0000
  C   C573      1.0  0.68204  0.10787  0.76078  1.0000
  C   C574      1.0  0.67774  0.09556  0.79698  1.0000
  C   C575      1.0  0.69832  0.09198  0.81432  1.0000
  C   C576      1.0  0.72337  0.10100  0.79568  1.0000
  C   C577      1.0  0.75167  0.11217  0.68570  1.0000
  C   C578      1.0  0.72850  0.08619  0.67853  1.0000
  C   C579      1.0  0.72196  0.07603  0.64117  1.0000
  C   C580      1.0  0.48279  0.19195  0.59079  1.0000
  C   C581      1.0  0.76167  0.11742  0.61754  1.0000
  C   C582      1.0  0.76833  0.12764  0.65489  1.0000
  H   H450      1.0  0.78902  0.05586  0.75607  1.0000
  H   H451      1.0  0.81929  0.08068  0.81142  1.0000
  H   H452      1.0  0.82359  0.12467  0.83301  1.0000
  H   H453      1.0  0.79790  0.14390  0.79960  1.0000
  H   H454      1.0  0.76340  0.07480  0.72216  1.0000
  H   H455      1.0  0.74763  0.16973  0.74912  1.0000
  H   H456      1.0  0.81815  0.16263  0.71852  1.0000
  H   H457      1.0  0.70985  0.12597  0.71376  1.0000
  H   H458      1.0  0.66613  0.11068  0.74720  1.0000
  H   H459      1.0  0.65840  0.08868  0.81147  1.0000
  H   H460      1.0  0.69476  0.08204  0.84217  1.0000
  H   H461      1.0  0.73894  0.09795  0.80967  1.0000
  H   H462      1.0  0.71524  0.07380  0.70172  1.0000
  C   C583      1.0  0.49265  0.17844  0.53012  1.0000
  C   C584      1.0  0.54174  0.01507  0.93665  1.0000
  H   H463      1.0  0.78616  0.14780  0.65932  1.0000
  C   C585      1.0  0.88047  0.26125  0.50598  1.0000
  C   C586      1.0  0.84505  0.21348  0.54694  1.0000
  C   C587      1.0  0.53942  0.99538  0.96381  1.0000
  H   H464      1.0  0.71576  0.21304  0.58177  1.0000
  C   C588      1.0  0.61334  0.00989  0.83717  1.0000
  C   C589      1.0  0.87859  0.26221  0.54572  1.0000
  C   C590      1.0  0.50701  0.16743  0.54946  1.0000
  H   H465      1.0  0.82664  0.24217  0.73498  1.0000
  C   C591      1.0  0.53397  0.02323  0.71905  1.0000
  H   H466      1.0  0.77435  0.12967  0.59386  1.0000
  H   H467      1.0  0.84701  0.21344  0.71890  1.0000
  H   H468      1.0  0.51479  0.24430  0.92234  1.0000
  H   H469      1.0  0.54980  0.03866  0.70073  1.0000
  C   C592      1.0  0.60490  0.18719  0.51554  1.0000
  H   H470      1.0  0.56315  0.08856  0.49166  1.0000
  H   H471      1.0  0.51787  0.17265  0.73825  1.0000
  P   P22       1.0  0.51621  0.00524  0.89899  1.0000
  H   H472      1.0  0.62604  0.04092  0.79224  1.0000
  H   H473      1.0  0.73518  0.09648  0.50538  1.0000
  C   C593      1.0  0.49312  0.27652  0.58264  1.0000
  C   C594      1.0  0.69405  0.16985  0.56833  1.0000
  C   C595      1.0  0.71361  0.18637  0.49340  1.0000
  C   C596      1.0  0.60027  0.98154  0.84628  1.0000
  H   H474      1.0  0.48566  0.30960  0.49531  1.0000
  H   H475      1.0  0.74673  0.17127  0.55475  1.0000
  C   C597      1.0  0.58325  0.04954  0.96912  1.0000
  C   C598      1.0  0.55172  0.06392  0.79479  1.0000
  S   S83       1.0  0.83675  0.29892  0.70060  1.0000
  C   C599      1.0  0.49315  0.98354  0.76630  1.0000
  H   H476      1.0  0.77975  0.29634  0.56512  1.0000
  H   H477      1.0  0.51225  0.06141  0.79060  1.0000
  H   H478      1.0  0.50115  0.04776  0.91110  1.0000
  H   H479      1.0  0.52952  0.08731  0.54882  1.0000
  C   C600      1.0  0.71032  0.19783  0.55943  1.0000
  C   C601      1.0  0.49822  0.19717  0.73337  1.0000
  H   H480      1.0  0.63204  0.19201  0.56293  1.0000
  C   C602      1.0  0.50816  0.07934  0.54047  1.0000
  H   H481      1.0  0.71784  0.12092  0.54449  1.0000
  C   C603      1.0  0.77479  0.13283  0.49534  1.0000
  H   H482      1.0  0.73178  0.22792  0.51538  1.0000
  H   H483      1.0  0.49806  0.18113  0.64100  1.0000
  C   C604      1.0  0.68684  0.15015  0.53971  1.0000
  H   H484      1.0  0.60235  0.20430  0.52397  1.0000
  C   C605      1.0  0.49404  0.23720  0.91187  1.0000
  C   C606      1.0  0.47453  0.23752  0.93603  1.0000
  C   C607      1.0  0.49767  0.17210  0.79055  1.0000
  C   C608      1.0  0.87116  0.14588  0.52417  1.0000
  C   C609      1.0  0.56329  0.04245  0.94025  1.0000
  C   C610      1.0  0.69612  0.15832  0.50231  1.0000
  C   C611      1.0  0.71969  0.20611  0.52197  1.0000
  C   C612      1.0  0.48639  0.99849  0.74007  1.0000
  H   H485      1.0  0.49258  0.02938  0.84532  1.0000
  C   C613      1.0  0.50608  0.18025  0.75282  1.0000
  H   H486      1.0  0.50189  0.10445  0.58078  1.0000
  C   C614      1.0  0.62172  0.18038  0.53740  1.0000
  C   C615      1.0  0.86083  0.23838  0.56615  1.0000
  C   C616      1.0  0.50909  0.16850  0.58940  1.0000
  C   C617      1.0  0.78091  0.17511  0.52248  1.0000
  C   C618      1.0  0.74820  0.11841  0.51045  1.0000
  H   H487      1.0  0.47310  0.20082  0.60756  1.0000
  H   H488      1.0  0.88463  0.14890  0.54843  1.0000
  C   C619      1.0  0.49258  0.08890  0.55869  1.0000
  H   H489      1.0  0.85920  0.23925  0.59697  1.0000
  C   C620      1.0  0.55671  0.03685  0.84559  1.0000
  C   C621      1.0  0.62522  0.15849  0.52637  1.0000
  C   C622      1.0  0.51376  0.03684  0.83769  1.0000
  C   C623      1.0  0.48671  0.00438  0.92066  1.0000
  H   H490      1.0  0.51618  0.15768  0.53351  1.0000
  C   C624      1.0  0.49587  0.05858  0.51297  1.0000
  H   H491      1.0  0.50310  0.03223  0.69908  1.0000
  H   H492      1.0  0.51966  0.15945  0.60453  1.0000
  C   C625      1.0  0.48684  0.22779  0.87422  1.0000
  H   H493      1.0  0.73281  0.08390  0.58173  1.0000
  C   C626      1.0  0.73824  0.13220  0.53223  1.0000
  C   C627      1.0  0.52475  0.05483  0.80638  1.0000
  H   H494      1.0  0.63811  0.15314  0.54348  1.0000
  C   C628      1.0  0.50732  0.01925  0.71777  1.0000
  H   H495      1.0  0.56491  0.05827  0.92060  1.0000
  C   C629      1.0  0.56758  0.05467  0.81411  1.0000
  H   H496      1.0  0.70369  0.05623  0.63571  1.0000
  H   H497      1.0  0.56195  0.04397  0.49357  1.0000
  H   H498      1.0  0.50378  0.20264  0.70368  1.0000
  C   C630      1.0  0.73840  0.09169  0.61067  1.0000
  H   H499      1.0  0.51357  0.29276  0.59065  1.0000
  H   H500      1.0  0.47763  0.98912  0.50707  1.0000
  C   C631      1.0  0.52996  0.02842  0.85834  1.0000
  H   H501      1.0  0.49290  0.29951  0.75198  1.0000
  C   C632      1.0  0.51997  0.98792  0.76808  1.0000
  H   H502      1.0  0.56002  0.07746  0.77007  1.0000
  H   H503      1.0  0.58812  0.06088  0.80419  1.0000
  H   H504      1.0  0.89096  0.28140  0.56080  1.0000
  H   H505      1.0  0.50291  0.15809  0.80495  1.0000
  H   H506      1.0  0.79286  0.19711  0.52704  1.0000
  C   C633      1.0  0.48199  0.20598  0.75158  1.0000
  C   C634      1.0  0.48964  0.25324  0.56337  1.0000
  C   C635      1.0  0.61185  0.14327  0.49365  1.0000
  H   H507      1.0  0.50802  0.05075  0.50013  1.0000
  H   H508      1.0  0.81015  0.30021  0.51151  1.0000
  C   C636      1.0  0.48483  0.02840  0.92231  1.0000
  H   H509      1.0  0.56094  0.01058  0.74497  1.0000
  C   C637      1.0  0.49708  0.18088  0.60998  1.0000
  C   C638      1.0  0.54024  0.00741  0.74396  1.0000
  C   C639      1.0  0.84660  0.21227  0.50688  1.0000
  H   H510      1.0  0.47465  0.07554  0.65912  1.0000
  H   H511      1.0  0.77123  0.22424  0.50286  1.0000
  H   H512      1.0  0.49108  0.17684  0.49936  1.0000
  C   C640      1.0  0.66196  0.06706  0.49842  1.0000
  S   S84       1.0  0.84351  0.30856  0.60727  1.0000
  H   H513      1.0  0.48012  0.24472  0.96525  1.0000
  C   C641      1.0  0.79162  0.16125  0.50192  1.0000
  C   C642      1.0  0.48031  0.19079  0.55063  1.0000
  H   H514      1.0  0.60020  0.07054  0.97132  1.0000
  H   H515      1.0  0.68703  0.04816  0.49502  1.0000
  H   H516      1.0  0.82098  0.25556  0.49648  1.0000
  H   H517      1.0  0.47241  0.99205  0.65847  1.0000
  C   C643      1.0  0.47385  0.28144  0.76065  1.0000
  C   C644      1.0  0.47424  0.25892  0.77770  1.0000
  C   C645      1.0  0.47387  0.19831  0.78971  1.0000
  H   H518      1.0  0.47421  0.17355  0.83761  1.0000
  H   H519      1.0  0.47277  0.29664  0.60716  1.0000
  C   C646      1.0  0.86591  0.12555  0.49723  1.0000
  H   H520      1.0  0.63676  0.08589  0.49148  1.0000
  H   H521      1.0  0.87526  0.11280  0.50062  1.0000
  H   H522      1.0  0.89444  0.27982  0.49028  1.0000
  Fe  Fe43      1.0  0.89269  0.33578  0.24230  1.0000
  H   H523      1.0  0.55005  0.59303  0.27855  1.0000
  S   S85       1.0  0.91424  0.35474  0.18452  1.0000
  H   H524      1.0  0.84710  0.43322  0.37903  1.0000
  S   S86       1.0  0.84657  0.31824  0.24127  1.0000
  Fe  Fe44      1.0  0.85341  0.34686  0.28998  1.0000
  S   S87       1.0  0.83126  0.37129  0.29213  1.0000
  S   S88       1.0  0.89929  0.36583  0.28910  1.0000
  C   C647      1.0  0.48764  0.41651  0.42196  1.0000
  H   H525      1.0  0.81721  0.52159  0.45471  1.0000
  C   C648      1.0  0.53570  0.49979  0.06314  1.0000
  Fe  Fe45      1.0  0.89262  0.53119  0.29477  1.0000
  S   S89       1.0  0.92370  0.57042  0.32284  1.0000
  S   S90       1.0  0.90787  0.50094  0.29581  1.0000
  Fe  Fe46      1.0  0.85469  0.55456  0.27465  1.0000
  S   S91       1.0  0.88430  0.59577  0.30023  1.0000
  S   S92       1.0  0.81207  0.54139  0.24943  1.0000
  Fe  Fe47      1.0  0.91764  0.59096  0.27056  1.0000
  H   H526      1.0  0.53468  0.46881  0.47837  1.0000
  Fe  Fe48      1.0  0.88774  0.57086  0.34947  1.0000
  S   S93       1.0  0.87495  0.56976  0.41185  1.0000
  S   S94       1.0  0.88765  0.55152  0.24199  1.0000
  S   S95       1.0  0.85697  0.52995  0.32416  1.0000
  Fe  Fe49      1.0  0.63923  0.57374  0.24719  1.0000
  S   S96       1.0  0.65707  0.54551  0.24216  1.0000
  S   S97       1.0  0.61544  0.57884  0.19585  1.0000
  Fe  Fe50      1.0  0.64389  0.57345  0.33683  1.0000
  S   S98       1.0  0.66031  0.54461  0.33693  1.0000
  S   S99       1.0  0.63550  0.59091  0.39028  1.0000
  Fe  Fe51      1.0  0.68734  0.57084  0.28884  1.0000
  S   S100      1.0  0.73328  0.58725  0.29970  1.0000
  Fe  Fe52      1.0  0.62893  0.52191  0.29078  1.0000
  S   S101      1.0  0.60382  0.47539  0.29259  1.0000
  S   S102      1.0  0.67189  0.60125  0.29026  1.0000
  S   S103      1.0  0.61004  0.54869  0.29454  1.0000
  C   C649      1.0  0.64493  0.59280  0.43953  1.0000
  C   C650      1.0  0.49377  0.45301  0.13641  1.0000
  C   C651      1.0  0.65004  0.61655  0.45906  1.0000
  C   C652      1.0  0.54331  0.37185  0.34739  1.0000
  C   C653      1.0  0.96925  0.44782  0.15367  1.0000
  C   C654      1.0  0.56832  0.46111  0.28365  1.0000
  C   C655      1.0  0.55013  0.43324  0.29214  1.0000
  C   C656      1.0  0.52151  0.42216  0.28846  1.0000
  C   C657      1.0  0.51114  0.43901  0.27617  1.0000
  C   C658      1.0  0.52936  0.46641  0.26580  1.0000
  C   C659      1.0  0.55787  0.47741  0.26932  1.0000
  H   H527      1.0  0.55820  0.42043  0.30236  1.0000
  H   H528      1.0  0.50748  0.40083  0.29578  1.0000
  H   H529      1.0  0.52134  0.47932  0.25574  1.0000
  H   H530      1.0  0.57170  0.49849  0.26092  1.0000
  C   C660      1.0  0.89367  0.57592  0.45550  1.0000
  H   H531      1.0  0.59019  0.50394  0.35995  1.0000
  H   H532      1.0  0.93051  0.58957  0.16907  1.0000
  H   H533      1.0  0.74425  0.52976  0.38451  1.0000
  C   C661      1.0  0.78995  0.55343  0.26536  1.0000
  C   C662      1.0  0.76285  0.54124  0.25081  1.0000
  C   C663      1.0  0.74496  0.55081  0.26168  1.0000
  C   C664      1.0  0.75411  0.57294  0.28697  1.0000
  C   C665      1.0  0.78106  0.58482  0.30199  1.0000
  C   C666      1.0  0.79884  0.57507  0.29146  1.0000
  H   H534      1.0  0.75572  0.52447  0.23068  1.0000
  H   H535      1.0  0.72432  0.54146  0.24985  1.0000
  H   H536      1.0  0.78836  0.60194  0.32149  1.0000
  H   H537      1.0  0.81959  0.58467  0.30295  1.0000
  C   C667      1.0  0.53725  0.51326  0.02845  1.0000
  C   C668      1.0  0.94624  0.47664  0.38223  1.0000
  H   H538      1.0  0.49434  0.56970  0.16683  1.0000
  C   C669      1.0  0.96954  0.61999  0.19269  1.0000
  C   C670      1.0  0.61463  0.60161  0.16010  1.0000
  C   C671      1.0  0.63589  0.62894  0.15587  1.0000
  C   C672      1.0  0.95409  0.56410  0.42916  1.0000
  H   H539      1.0  0.92830  0.46891  0.03251  1.0000
  H   H540      1.0  0.91102  0.40748  0.47024  1.0000
  C   C673      1.0  0.81922  0.62023  0.39696  1.0000
  H   H541      1.0  0.96481  0.57295  0.24461  1.0000
  C   C674      1.0  0.85209  0.40748  0.29459  1.0000
  C   C675      1.0  0.88061  0.41976  0.29866  1.0000
  C   C676      1.0  0.89722  0.44841  0.29932  1.0000
  C   C677      1.0  0.88551  0.46523  0.29646  1.0000
  C   C678      1.0  0.85690  0.45324  0.29308  1.0000
  C   C679      1.0  0.84018  0.42430  0.29208  1.0000
  H   H542      1.0  0.89010  0.40735  0.30088  1.0000
  H   H543      1.0  0.91934  0.45761  0.30114  1.0000
  H   H544      1.0  0.84779  0.46623  0.29085  1.0000
  H   H545      1.0  0.81809  0.41497  0.28898  1.0000
  C   C680      1.0  0.53076  0.53427  0.02709  1.0000
  C   C681      1.0  0.47676  0.58694  0.33264  1.0000
  H   H546      1.0  0.91064  0.63712  0.10254  1.0000
  C   C682      1.0  0.51632  0.53793  0.39173  1.0000
  C   C683      1.0  0.55863  0.62396  0.42651  1.0000
  C   C684      1.0  0.71308  0.64444  0.99182  1.0000
  C   C685      1.0  0.78117  0.52770  0.38011  1.0000
  C   C686      1.0  0.94153  0.35330  0.45675  1.0000
  H   H547      1.0  0.57247  0.60084  0.08707  1.0000
  C   C687      1.0  0.95223  0.60281  0.16355  1.0000
  H   H548      1.0  0.58987  0.56105  0.06081  1.0000
  C   C688      1.0  0.56223  0.60330  0.40993  1.0000
  H   H549      1.0  0.87590  0.37940  0.35889  1.0000
  H   H550      1.0  0.89316  0.40625  0.09943  1.0000
  H   H551      1.0  0.73068  0.57119  0.39242  1.0000
  C   C689      1.0  0.64386  0.57073  0.46069  1.0000
  C   C690      1.0  0.53590  0.55399  0.36389  1.0000
  C   C691      1.0  0.78458  0.59473  0.44491  1.0000
  H   H552      1.0  0.67608  0.61896  0.05206  1.0000
  C   C692      1.0  0.51335  0.63393  0.32239  1.0000
  C   C693      1.0  0.75911  0.52563  0.44032  1.0000
  H   H553      1.0  0.54353  0.50748  0.00260  1.0000
  H   H554      1.0  0.49299  0.42222  0.36048  1.0000
  H   H555      1.0  0.66132  0.49310  0.42309  1.0000
  H   H556      1.0  0.89368  0.45173  0.40539  1.0000
  Fe  Fe53      1.0  0.89210  0.33275  0.33225  1.0000
  C   C694      1.0  0.91705  0.34274  0.43552  1.0000
  C   C695      1.0  0.84902  0.38186  0.39990  1.0000
  C   C696      1.0  0.87401  0.38501  0.38777  1.0000
  C   C697      1.0  0.89626  0.39446  0.41322  1.0000
  H   H557      1.0  0.94263  0.56139  0.45517  1.0000
  H   H558      1.0  0.83170  0.37403  0.38006  1.0000
  P   P23       1.0  0.74135  0.60358  0.46239  1.0000
  C   C698      1.0  0.71453  0.61972  0.40879  1.0000
  H   H559      1.0  0.96471  0.53952  0.13356  1.0000
  H   H560      1.0  0.83218  0.46767  0.47471  1.0000
  H   H561      1.0  0.91519  0.39564  0.40405  1.0000
  C   C699      1.0  0.56377  0.39239  0.37028  1.0000
  H   H562      1.0  0.92634  0.61638  0.44002  1.0000
  C   C700      1.0  0.71601  0.55810  0.41397  1.0000
  C   C701      1.0  0.94231  0.53732  0.04235  1.0000
  C   C702      1.0  0.89362  0.41654  0.12572  1.0000
  C   C703      1.0  0.88688  0.40186  0.16028  1.0000
  C   C704      1.0  0.88805  0.41514  0.19440  1.0000
  C   C705      1.0  0.89586  0.44307  0.19396  1.0000
  C   C706      1.0  0.90196  0.45789  0.15928  1.0000
  C   C707      1.0  0.90096  0.44437  0.12514  1.0000
  P   P24       1.0  0.91073  0.49377  0.15920  1.0000
  C   C708      1.0  0.88062  0.49660  0.16927  1.0000
  C   C709      1.0  0.93675  0.51256  0.19526  1.0000
  C   C710      1.0  0.94122  0.53819  0.20774  1.0000
  C   C711      1.0  0.96276  0.60385  0.12655  1.0000
  H   H563      1.0  0.50027  0.35017  0.33199  1.0000
  H   H564      1.0  0.50557  0.59843  0.10782  1.0000
  H   H565      1.0  0.51506  0.53472  0.12059  1.0000
  C   C712      1.0  0.87775  0.51803  0.15260  1.0000
  C   C713      1.0  0.85465  0.52042  0.16035  1.0000
  C   C714      1.0  0.83447  0.50185  0.18538  1.0000
  C   C715      1.0  0.83732  0.48078  0.20253  1.0000
  C   C716      1.0  0.86022  0.47812  0.19454  1.0000
  C   C717      1.0  0.92368  0.51004  0.11308  1.0000
  C   C718      1.0  0.90593  0.50195  0.08107  1.0000
  C   C719      1.0  0.78479  0.63280  0.41107  1.0000
  C   C720      1.0  0.59017  0.60881  0.10604  1.0000
  H   H566      1.0  0.96104  0.36236  0.44202  1.0000
  C   C721      1.0  0.80790  0.63717  0.39055  1.0000
  H   H567      1.0  0.83227  0.56801  0.47877  1.0000
  H   H568      1.0  0.57507  0.57071  0.13795  1.0000
  H   H569      1.0  0.88305  0.40376  0.22125  1.0000
  H   H570      1.0  0.89719  0.45316  0.22077  1.0000
  H   H571      1.0  0.90592  0.45511  0.09805  1.0000
  H   H572      1.0  0.92883  0.54652  0.19667  1.0000
  C   C722      1.0  0.89188  0.33107  0.45533  1.0000
  C   C723      1.0  0.96003  0.54555  0.07403  1.0000
  C   C724      1.0  0.85778  0.45387  0.39072  1.0000
  C   C725      1.0  0.58474  0.60068  0.46855  1.0000
  H   H573      1.0  0.89363  0.53339  0.13440  1.0000
  H   H574      1.0  0.85283  0.53731  0.14819  1.0000
  H   H575      1.0  0.81707  0.50433  0.19245  1.0000
  H   H576      1.0  0.82203  0.46684  0.22274  1.0000
  H   H577      1.0  0.86196  0.46192  0.20887  1.0000
  H   H578      1.0  0.88471  0.48554  0.08371  1.0000
  H   H579      1.0  0.55868  0.45430  0.36790  1.0000
  H   H580      1.0  0.77565  0.57815  0.46574  1.0000
  H   H581      1.0  0.84200  0.43038  0.46280  1.0000
  C   C726      1.0  0.62617  0.62994  0.31293  1.0000
  C   C727      1.0  0.95078  0.53212  0.10929  1.0000
  H   H582      1.0  0.88119  0.38029  0.16084  1.0000
  C   C728      1.0  0.56046  0.46794  0.39080  1.0000
  C   C729      1.0  0.47978  0.44279  0.10137  1.0000
  H   H583      1.0  0.94948  0.54838  0.01543  1.0000
  C   C730      1.0  0.53630  0.53744  0.23261  1.0000
  C   C731      1.0  0.50968  0.52879  0.24537  1.0000
  C   C732      1.0  0.48379  0.43642  0.16933  1.0000
  C   C733      1.0  0.49089  0.49637  0.19290  1.0000
  C   C734      1.0  0.51763  0.50434  0.18068  1.0000
  C   C735      1.0  0.54025  0.52537  0.20040  1.0000
  P   P25       1.0  0.52299  0.48771  0.14032  1.0000
  C   C736      1.0  0.55454  0.48724  0.15009  1.0000
  C   C737      1.0  0.60730  0.57526  0.04364  1.0000
  C   C738      1.0  0.48901  0.57713  0.10755  1.0000
  C   C739      1.0  0.69637  0.53105  0.40426  1.0000
  H   H584      1.0  0.95748  0.43969  0.12752  1.0000
  C   C740      1.0  0.88626  0.50791  0.41788  1.0000
  H   H585      1.0  0.66164  0.51049  0.48834  1.0000
  C   C741      1.0  0.58002  0.51046  0.14074  1.0000
  C   C742      1.0  0.60468  0.51215  0.15279  1.0000
  C   C743      1.0  0.60419  0.49056  0.17381  1.0000
  C   C744      1.0  0.57905  0.46715  0.18248  1.0000
  C   C745      1.0  0.55432  0.46545  0.17076  1.0000
  C   C746      1.0  0.52706  0.50688  0.09655  1.0000
  C   C747      1.0  0.52126  0.52849  0.09516  1.0000
  H   H586      1.0  0.55414  0.55305  0.24790  1.0000
  H   H587      1.0  0.50667  0.53766  0.27095  1.0000
  C   C748      1.0  0.94801  0.48504  0.42045  1.0000
  C   C749      1.0  0.65235  0.61317  0.99981  1.0000
  H   H588      1.0  0.56109  0.53212  0.19175  1.0000
  C   C750      1.0  0.80759  0.59906  0.42416  1.0000
  H   H589      1.0  0.84944  0.50911  0.40455  1.0000
  C   C751      1.0  0.85914  0.49661  0.40474  1.0000
  P   P26       1.0  0.93495  0.50760  0.43341  1.0000
  H   H590      1.0  0.58093  0.52802  0.12608  1.0000
  H   H591      1.0  0.62415  0.53072  0.14718  1.0000
  H   H592      1.0  0.62324  0.49223  0.18429  1.0000
  H   H593      1.0  0.47579  0.41178  0.48185  1.0000
  H   H594      1.0  0.54853  0.63322  0.41092  1.0000
  C   C752      1.0  0.77996  0.52375  0.46055  1.0000
  H   H595      1.0  0.54070  0.48347  0.06387  1.0000
  H   H596      1.0  0.50928  0.54748  0.41200  1.0000
  C   C753      1.0  0.56453  0.50462  0.44749  1.0000
  C   C754      1.0  0.58021  0.51458  0.41422  1.0000
  C   C755      1.0  0.57821  0.49624  0.38596  1.0000
  H   H597      1.0  0.63617  0.63320  0.25290  1.0000
  H   H598      1.0  0.56603  0.51894  0.46922  1.0000
  H   H599      1.0  0.59371  0.53652  0.41006  1.0000
  C   C756      1.0  0.80091  0.52305  0.43990  1.0000
  C   C757      1.0  0.54521  0.45765  0.42463  1.0000
  H   H600      1.0  0.64743  0.63956  0.32252  1.0000
  H   H601      1.0  0.57317  0.42326  0.41284  1.0000
  C   C758      1.0  0.52974  0.40155  0.39825  1.0000
  H   H602      1.0  0.54859  0.36084  0.32700  1.0000
  P   P27       1.0  0.52153  0.42120  0.43071  1.0000
  C   C759      1.0  0.95393  0.34228  0.15871  1.0000
  C   C760      1.0  0.59173  0.59174  0.13502  1.0000
  C   C761      1.0  0.96492  0.44741  0.40027  1.0000
  C   C762      1.0  0.56823  0.63299  0.46376  1.0000
  C   C763      1.0  0.91526  0.51549  0.04582  1.0000
  H   H603      1.0  0.69602  0.52364  0.37557  1.0000
  C   C764      1.0  0.59240  0.61342  0.26158  1.0000
  H   H604      1.0  0.51899  0.55897  0.05922  1.0000
  C   C765      1.0  0.77288  0.61145  0.43839  1.0000
  H   H605      1.0  0.48625  0.45517  0.07561  1.0000
  C   C766      1.0  0.89934  0.49218  0.41807  1.0000
  C   C767      1.0  0.80160  0.52528  0.39994  1.0000
  C   C768      1.0  0.95002  0.45032  0.00792  1.0000
  H   H606      1.0  0.95118  0.48326  0.19986  1.0000
  C   C769      1.0  0.75986  0.52769  0.40024  1.0000
  C   C770      1.0  0.91732  0.60131  0.46284  1.0000
  C   C771      1.0  0.63359  0.58926  0.06015  1.0000
  H   H607      1.0  0.81837  0.52584  0.38427  1.0000
  H   H608      1.0  0.57871  0.45076  0.19974  1.0000
  H   H609      1.0  0.96089  0.48951  0.08689  1.0000
  H   H610      1.0  0.94884  0.32871  0.18330  1.0000
  C   C772      1.0  0.93847  0.51397  0.48445  1.0000
  C   C773      1.0  0.52334  0.54222  0.06052  1.0000
  C   C774      1.0  0.57545  0.59180  0.43125  1.0000
  H   H611      1.0  0.48883  0.55853  0.35343  1.0000
  S   S104      1.0  0.95679  0.62244  0.23846  1.0000
  H   H612      1.0  0.57898  0.57621  0.41888  1.0000
  H   H613      1.0  0.82619  0.38392  0.44720  1.0000
  C   C775      1.0  0.54693  0.47625  0.45261  1.0000
  C   C776      1.0  0.55702  0.40714  0.39570  1.0000
  C   C777      1.0  0.65606  0.60819  0.03839  1.0000
  C   C778      1.0  0.67695  0.52370  0.46764  1.0000
  C   C779      1.0  0.60343  0.58031  0.00542  1.0000
  H   H614      1.0  0.65069  0.63360  0.44330  1.0000
  C   C780      1.0  0.47936  0.41832  0.38441  1.0000
  H   H615      1.0  0.94892  0.59108  0.10410  1.0000
  H   H616      1.0  0.47198  0.47351  0.00390  1.0000
  C   C781      1.0  0.88458  0.46475  0.40519  1.0000
  S   S105      1.0  0.92037  0.34507  0.38467  1.0000
  C   C782      1.0  0.89371  0.40113  0.45083  1.0000
  C   C783      1.0  0.53505  0.51286  0.34122  1.0000
  H   H617      1.0  0.56155  0.55313  0.31863  1.0000
  H   H618      1.0  0.63645  0.58588  0.09012  1.0000
  C   C784      1.0  0.57742  0.60655  0.32790  1.0000
  C   C785      1.0  0.54556  0.54127  0.33913  1.0000
  H   H619      1.0  0.53531  0.44750  0.17926  1.0000
  C   C786      1.0  0.86862  0.39807  0.46338  1.0000
  P   P28       1.0  0.54976  0.59085  0.36213  1.0000
  C   C787      1.0  0.60506  0.62021  0.33990  1.0000
  H   H620      1.0  0.50696  0.47485  0.36936  1.0000
  H   H621      1.0  0.65363  0.63694  0.17478  1.0000
  H   H622      1.0  0.82451  0.46156  0.37853  1.0000
  H   H623      1.0  0.49348  0.44406  0.19695  1.0000
  C   C788      1.0  0.51497  0.49687  0.36806  1.0000
  H   H624      1.0  0.54294  0.50330  0.32251  1.0000
  H   H625      1.0  0.70963  0.60139  0.39284  1.0000
  C   C789      1.0  0.71621  0.56827  0.45066  1.0000
  H   H626      1.0  0.58764  0.61041  0.23118  1.0000
  C   C790      1.0  0.52420  0.59967  0.34696  1.0000
  C   C791      1.0  0.84507  0.46980  0.39042  1.0000
  S   S106      1.0  0.84661  0.31564  0.33594  1.0000
  C   C792      1.0  0.95866  0.43314  0.18781  1.0000
  C   C793      1.0  0.94580  0.46584  0.03520  1.0000
  C   C794      1.0  0.57124  0.60358  0.28849  1.0000
  H   H627      1.0  0.58498  0.39733  0.36763  1.0000
  C   C795      1.0  0.49606  0.57971  0.34533  1.0000
  C   C796      1.0  0.94045  0.35734  0.15297  1.0000
  H   H628      1.0  0.78201  0.52982  0.34911  1.0000
  C   C797      1.0  0.50572  0.50941  0.39355  1.0000
  C   C798      1.0  0.67680  0.51388  0.43100  1.0000
  H   H629      1.0  0.89705  0.52908  0.42736  1.0000
  H   H630      1.0  0.48510  0.37163  0.47417  1.0000
  C   C799      1.0  0.84616  0.38794  0.43770  1.0000
  H   H631      1.0  0.47961  0.57801  0.04766  1.0000
  H   H632      1.0  0.93909  0.41405  0.18771  1.0000
  C   C800      1.0  0.48539  0.61403  0.32124  1.0000
  C   C801      1.0  0.88169  0.55696  0.48583  1.0000
  C   C802      1.0  0.96627  0.45517  0.43847  1.0000
  H   H633      1.0  0.90135  0.50948  0.02143  1.0000
  H   H634      1.0  0.81623  0.58576  0.42848  1.0000
  C   C803      1.0  0.53270  0.62679  0.33508  1.0000
  C   C804      1.0  0.51605  0.36581  0.35029  1.0000
  C   C805      1.0  0.50917  0.38020  0.37620  1.0000
  H   H635      1.0  0.48786  0.37468  0.37877  1.0000
  C   C806      1.0  0.61985  0.62636  0.27380  1.0000
  C   C807      1.0  0.95369  0.50263  0.20956  1.0000
  H   H636      1.0  0.63983  0.55218  0.44603  1.0000
  H   H637      1.0  0.61049  0.62283  0.37002  1.0000
  C   C808      1.0  0.48697  0.50831  0.22541  1.0000
  H   H638      1.0  0.86322  0.53742  0.48071  1.0000
  C   C809      1.0  0.69654  0.55075  0.47747  1.0000
  C   C810      1.0  0.72917  0.62581  0.44366  1.0000
  C   C811      1.0  0.95411  0.54160  0.41172  1.0000
  H   H639      1.0  0.74256  0.52608  0.45523  1.0000
  H   H640      1.0  0.83679  0.62325  0.38049  1.0000
  H   H641      1.0  0.55435  0.64243  0.33556  1.0000
  H   H642      1.0  0.50157  0.33369  0.43255  1.0000
  C   C812      1.0  0.95474  0.45801  0.37221  1.0000
  H   H643      1.0  0.49047  0.49698  0.41480  1.0000
  C   C813      1.0  0.94758  0.37488  0.12059  1.0000
  C   C814      1.0  0.96428  0.47752  0.06589  1.0000
  C   C815      1.0  0.48263  0.56094  0.14072  1.0000
  H   H644      1.0  0.93733  0.38660  0.11563  1.0000
  H   H645      1.0  0.93735  0.48380  0.36035  1.0000
  C   C816      1.0  0.61149  0.63616  0.10177  1.0000
  S   S107      1.0  0.47569  0.42718  0.27493  1.0000
  C   C817      1.0  0.52452  0.40924  0.47780  1.0000
  C   C818      1.0  0.47437  0.56566  0.07369  1.0000
  C   C819      1.0  0.96185  0.55338  0.23471  1.0000
  H   H646      1.0  0.47306  0.48042  0.17805  1.0000
  H   H647      1.0  0.96546  0.43054  0.24811  1.0000
  H   H648      1.0  0.59511  0.59183  0.48463  1.0000
  H   H649      1.0  0.95290  0.45134  0.34277  1.0000
  C   C820      1.0  0.70603  0.63751  0.39382  1.0000
  H   H650      1.0  0.69443  0.63243  0.36718  1.0000
  H   H651      1.0  0.87281  0.32309  0.43930  1.0000
  C   C821      1.0  0.75289  0.63812  0.99228  1.0000
  H   H652      1.0  0.95834  0.47876  0.47850  1.0000
  H   H653      1.0  0.92675  0.64308  0.17023  1.0000
  C   C822      1.0  0.63426  0.64605  0.12703  1.0000
  C   C823      1.0  0.48087  0.31631  0.43545  1.0000
  H   H654      1.0  0.58304  0.56999  0.99272  1.0000
  C   C824      1.0  0.96774  0.37729  0.09435  1.0000
  H   H655      1.0  0.76672  0.47062  0.47411  1.0000
  C   C825      1.0  0.95774  0.47377  0.44860  1.0000
  S   S108      1.0  0.53973  0.64646  0.01535  1.0000
  H   H656      1.0  0.53167  0.54465  0.00023  1.0000
  C   C826      1.0  0.58131  0.62137  0.48476  1.0000
  H   H657      1.0  0.96810  0.60754  0.42639  1.0000
  H   H658      1.0  0.77606  0.64579  0.40480  1.0000
  H   H659      1.0  0.96924  0.52955  0.36297  1.0000
  C   C827      1.0  0.96858  0.59047  0.41296  1.0000
  C   C828      1.0  0.96893  0.54616  0.37765  1.0000
  H   H660      1.0  0.87488  0.61611  0.57667  1.0000
  Fe  Fe54      1.0  0.84824  0.33400  0.65915  1.0000
  S   S109      1.0  0.82803  0.36025  0.66177  1.0000
  S   S110      1.0  0.89376  0.35093  0.66593  1.0000
  Fe  Fe55      1.0  0.85389  0.53830  0.67371  1.0000
  S   S111      1.0  0.88708  0.58275  0.68055  1.0000
  S   S112      1.0  0.80704  0.51846  0.66799  1.0000
  Fe  Fe56      1.0  0.89655  0.51965  0.66610  1.0000
  S   S113      1.0  0.93230  0.56256  0.67169  1.0000
  S   S114      1.0  0.91033  0.48898  0.65546  1.0000
  Fe  Fe57      1.0  0.90905  0.56711  0.72026  1.0000
  S   S115      1.0  0.92461  0.57716  0.78315  1.0000
  Fe  Fe58      1.0  0.90758  0.57381  0.63159  1.0000
  S   S116      1.0  0.92721  0.60062  0.57875  1.0000
  S   S117      1.0  0.87399  0.52305  0.71618  1.0000
  S   S118      1.0  0.87353  0.53046  0.62326  1.0000
  Fe  Fe59      1.0  0.63620  0.56061  0.70901  1.0000
  S   S119      1.0  0.64768  0.52716  0.70874  1.0000
  S   S120      1.0  0.61717  0.56385  0.76587  1.0000
  Fe  Fe60      1.0  0.65014  0.57257  0.62203  1.0000
  S   S121      1.0  0.66248  0.54064  0.61699  1.0000
  S   S122      1.0  0.65287  0.59980  0.57128  1.0000
  Fe  Fe61      1.0  0.62470  0.51425  0.65247  1.0000
  S   S123      1.0  0.59422  0.47232  0.62801  1.0000
  Fe  Fe62      1.0  0.68445  0.55646  0.67330  1.0000
  S   S124      1.0  0.73009  0.57135  0.68440  1.0000
  S   S125      1.0  0.61113  0.54563  0.65444  1.0000
  S   S126      1.0  0.67436  0.59064  0.67672  1.0000
  C   C829      1.0  0.52069  0.40452  0.69403  1.0000
  C   C830      1.0  0.51871  0.40845  0.65477  1.0000
  C   C831      1.0  0.54137  0.42956  0.63520  1.0000
  C   C832      1.0  0.56593  0.44730  0.65467  1.0000
  C   C833      1.0  0.56786  0.44360  0.69405  1.0000
  C   C834      1.0  0.54544  0.42197  0.71353  1.0000
  H   H661      1.0  0.88236  0.54928  0.54640  1.0000
  H   H662      1.0  0.53972  0.43253  0.60489  1.0000
  H   H663      1.0  0.58678  0.45703  0.70931  1.0000
  H   H664      1.0  0.54712  0.41907  0.74393  1.0000
  C   C835      1.0  0.78633  0.53416  0.66993  1.0000
  C   C836      1.0  0.79705  0.56149  0.68138  1.0000
  C   C837      1.0  0.77957  0.57262  0.68471  1.0000
  C   C838      1.0  0.75128  0.55678  0.67608  1.0000
  C   C839      1.0  0.74073  0.52980  0.66302  1.0000
  C   C840      1.0  0.75816  0.51851  0.66028  1.0000
  H   H665      1.0  0.81870  0.57392  0.68842  1.0000
  H   H666      1.0  0.78796  0.59354  0.69467  1.0000
  H   H667      1.0  0.71904  0.51740  0.65617  1.0000
  H   H668      1.0  0.74967  0.49740  0.65113  1.0000
  H   H669      1.0  0.85243  0.32598  0.79041  1.0000
  C   C841      1.0  0.65113  0.59611  0.52056  1.0000
  S   S127      1.0  0.53945  0.64330  0.92114  1.0000
  H   H670      1.0  0.64510  0.55503  0.51764  1.0000
  C   C842      1.0  0.94446  0.43179  0.58147  1.0000
  H   H671      1.0  0.75989  0.43762  0.91299  1.0000
  C   C843      1.0  0.89250  0.56369  0.52333  1.0000
  C   C844      1.0  0.91528  0.58965  0.53113  1.0000
  C   C845      1.0  0.80976  0.55340  0.53225  1.0000
  H   H672      1.0  0.62224  0.60352  0.95432  1.0000
  H   H673      1.0  0.77567  0.45111  0.84646  1.0000
  H   H674      1.0  0.95939  0.40045  0.92899  1.0000
  H   H675      1.0  0.91221  0.45616  0.52385  1.0000
  C   C846      1.0  0.47925  0.46327  0.60928  1.0000
  C   C847      1.0  0.60846  0.62647  0.84195  1.0000
  C   C848      1.0  0.61380  0.58851  0.79399  1.0000
  C   C849      1.0  0.62408  0.61588  0.78219  1.0000
  C   C850      1.0  0.92807  0.60809  0.50045  1.0000
  H   H676      1.0  0.63426  0.62266  0.75484  1.0000
  C   C851      1.0  0.95244  0.40608  0.90313  1.0000
  C   C852      1.0  0.85063  0.39615  0.65946  1.0000
  C   C853      1.0  0.87855  0.40685  0.65205  1.0000
  C   C854      1.0  0.89660  0.43535  0.65138  1.0000
  C   C855      1.0  0.88682  0.45349  0.65744  1.0000
  C   C856      1.0  0.85880  0.44305  0.66430  1.0000
  C   C857      1.0  0.84069  0.41434  0.66532  1.0000
  H   H677      1.0  0.88629  0.39326  0.64627  1.0000
  H   H678      1.0  0.91823  0.44336  0.64586  1.0000
  H   H679      1.0  0.85119  0.45710  0.66857  1.0000
  H   H680      1.0  0.81903  0.40619  0.67073  1.0000
  H   H681      1.0  0.76124  0.47206  0.95825  1.0000
  C   C858      1.0  0.72281  0.53659  0.56280  1.0000
  C   C859      1.0  0.91654  0.34007  0.51697  1.0000
  P   P29       1.0  0.86350  0.40208  0.51344  1.0000
  C   C860      1.0  0.91175  0.50240  0.79882  1.0000
  C   C861      1.0  0.91270  0.49197  0.76311  1.0000
  C   C862      1.0  0.91602  0.46898  0.76069  1.0000
  C   C863      1.0  0.91862  0.45622  0.79412  1.0000
  C   C864      1.0  0.91776  0.46689  0.82997  1.0000
  P   P30       1.0  0.92127  0.42545  0.79054  1.0000
  C   C865      1.0  0.93406  0.41892  0.83493  1.0000
  C   C866      1.0  0.88759  0.39604  0.78112  1.0000
  C   C867      1.0  0.86687  0.39929  0.76307  1.0000
  C   C868      1.0  0.84097  0.37634  0.75586  1.0000
  C   C869      1.0  0.83570  0.34994  0.76578  1.0000
  C   C870      1.0  0.85621  0.34650  0.78357  1.0000
  C   C871      1.0  0.88203  0.36942  0.79129  1.0000
  C   C872      1.0  0.93035  0.33493  0.83257  1.0000
  H   H682      1.0  0.48569  0.33987  0.82442  1.0000
  H   H683      1.0  0.85058  0.45487  0.80622  1.0000
  H   H684      1.0  0.96321  0.43888  0.59809  1.0000
  C   C873      1.0  0.93987  0.45060  0.56076  1.0000
  H   H685      1.0  0.95498  0.47240  0.56149  1.0000
  C   C874      1.0  0.72445  0.49242  0.52936  1.0000
  H   H686      1.0  0.49982  0.45861  0.94050  1.0000
  P   P31       1.0  0.68071  0.63826  0.97131  1.0000
  H   H687      1.0  0.59059  0.51626  0.56941  1.0000
  C   C875      1.0  0.94118  0.40592  0.73318  1.0000
  C   C876      1.0  0.77138  0.44531  0.51651  1.0000
  H   H688      1.0  0.90920  0.52030  0.80047  1.0000
  H   H689      1.0  0.91101  0.50180  0.73711  1.0000
  H   H690      1.0  0.91636  0.46107  0.73262  1.0000
  Fe  Fe63      1.0  0.52883  0.61351  0.97064  1.0000
  H   H691      1.0  0.87065  0.41928  0.75364  1.0000
  C   C877      1.0  0.95878  0.40888  0.70323  1.0000
  C   C878      1.0  0.93032  0.33674  0.79223  1.0000
  C   C879      1.0  0.50167  0.45816  0.69524  1.0000
  H   H692      1.0  0.89782  0.36616  0.80430  1.0000
  H   H693      1.0  0.52933  0.55171  0.65400  1.0000
  C   C880      1.0  0.57412  0.52095  0.57189  1.0000
  H   H694      1.0  0.95591  0.35488  0.74289  1.0000
  H   H695      1.0  0.50305  0.44284  0.61301  1.0000
  C   C881      1.0  0.89530  0.41325  0.53961  1.0000
  C   C882      1.0  0.95507  0.34889  0.85416  1.0000
  C   C883      1.0  0.91549  0.44135  0.53967  1.0000
  H   H696      1.0  0.92536  0.38535  0.74147  1.0000
  C   C884      1.0  0.94525  0.52720  0.56272  1.0000
  C   C885      1.0  0.74849  0.51840  0.53081  1.0000
  C   C886      1.0  0.78132  0.49218  0.52818  1.0000
  C   C887      1.0  0.78817  0.48964  0.56631  1.0000
  C   C888      1.0  0.78658  0.46524  0.57940  1.0000
  C   C889      1.0  0.77815  0.44304  0.55455  1.0000
  C   C890      1.0  0.85387  0.42803  0.52140  1.0000
  H   H697      1.0  0.83533  0.58543  0.61800  1.0000
  C   C891      1.0  0.51069  0.45249  0.72991  1.0000
  H   H698      1.0  0.55400  0.56501  0.53695  1.0000
  C   C892      1.0  0.69913  0.51056  0.56182  1.0000
  C   C893      1.0  0.69988  0.48855  0.54479  1.0000
  H   H699      1.0  0.77830  0.52021  0.93653  1.0000
  C   C894      1.0  0.81255  0.31863  0.52483  1.0000
  H   H700      1.0  0.79436  0.50617  0.58647  1.0000
  H   H701      1.0  0.79193  0.46370  0.60896  1.0000
  H   H702      1.0  0.77710  0.42420  0.56472  1.0000
  C   C895      1.0  0.67423  0.62899  0.85435  1.0000
  C   C896      1.0  0.67743  0.64005  0.89101  1.0000
  H   H703      1.0  0.75338  0.61527  0.62490  1.0000
  H   H704      1.0  0.68022  0.50737  0.57444  1.0000
  H   H705      1.0  0.94814  0.50720  0.96805  1.0000
  C   C897      1.0  0.77282  0.46968  0.50338  1.0000
  C   C898      1.0  0.85126  0.46026  0.56481  1.0000
  C   C899      1.0  0.92467  0.40378  0.58109  1.0000
  C   C900      1.0  0.52303  0.53729  0.78324  1.0000
  H   H706      1.0  0.59184  0.55448  0.53130  1.0000
  C   C901      1.0  0.51765  0.55410  0.84419  1.0000
  C   C902      1.0  0.85681  0.43900  0.55828  1.0000
  H   H707      1.0  0.83929  0.48792  0.53945  1.0000
  C   C903      1.0  0.83699  0.36865  0.53020  1.0000
  C   C904      1.0  0.83338  0.34458  0.51268  1.0000
  C   C905      1.0  0.47160  0.54265  0.69753  1.0000
  H   H708      1.0  0.95622  0.39072  0.68876  1.0000
  C   C906      1.0  0.79907  0.34022  0.57280  1.0000
  C   C907      1.0  0.81983  0.36623  0.56066  1.0000
  C   C908      1.0  0.83425  0.58173  0.58747  1.0000
  H   H709      1.0  0.70717  0.45421  0.73992  1.0000
  C   C909      1.0  0.84280  0.47087  0.53457  1.0000
  H   H710      1.0  0.85427  0.46901  0.59321  1.0000
  Fe  Fe64      1.0  0.88812  0.32298  0.61642  1.0000
  C   C910      1.0  0.81094  0.55919  0.57156  1.0000
  H   H711      1.0  0.91967  0.45757  0.85620  1.0000
  H   H712      1.0  0.86404  0.43152  0.58189  1.0000
  H   H713      1.0  0.79149  0.61811  0.58630  1.0000
  C   C911      1.0  0.62578  0.59933  0.98365  1.0000
  H   H714      1.0  0.78014  0.54437  0.78970  1.0000
  H   H715      1.0  0.71095  0.60898  0.59268  1.0000
  H   H716      1.0  0.87240  0.60761  0.50694  1.0000
  H   H717      1.0  0.82268  0.38420  0.57574  1.0000
  C   C912      1.0  0.62147  0.63467  0.80604  1.0000
  C   C913      1.0  0.90014  0.39443  0.56020  1.0000
  H   H718      1.0  0.93723  0.57679  0.86334  1.0000
  C   C914      1.0  0.49075  0.51290  0.65653  1.0000
  C   C915      1.0  0.74731  0.54062  0.54689  1.0000
  C   C916      1.0  0.48306  0.44937  0.91987  1.0000
  H   H719      1.0  0.51562  0.53817  0.58160  1.0000
  P   P32       1.0  0.50441  0.49307  0.63557  1.0000
  C   C917      1.0  0.53193  0.51263  0.60236  1.0000
  C   C918      1.0  0.74591  0.60812  0.51384  1.0000
  C   C919      1.0  0.91639  0.40775  0.86646  1.0000
  H   H720      1.0  0.83740  0.43768  0.73991  1.0000
  C   C920      1.0  0.55278  0.50607  0.59777  1.0000
  C   C921      1.0  0.51740  0.48384  0.67721  1.0000
  H   H721      1.0  0.78729  0.61420  0.51608  1.0000
  C   C922      1.0  0.72752  0.60993  0.57582  1.0000
  C   C923      1.0  0.53549  0.47227  0.74659  1.0000
  C   C924      1.0  0.55123  0.49786  0.72878  1.0000
  C   C925      1.0  0.54210  0.50375  0.69444  1.0000
  C   C926      1.0  0.97012  0.41716  0.87196  1.0000
  H   H722      1.0  0.89530  0.40338  0.86444  1.0000
  H   H723      1.0  0.72468  0.47504  0.51665  1.0000
  H   H724      1.0  0.70225  0.49569  0.73362  1.0000
  H   H725      1.0  0.55285  0.48973  0.61459  1.0000
  H   H726      1.0  0.49884  0.43242  0.74335  1.0000
  H   H727      1.0  0.58812  0.59236  0.88119  1.0000
  H   H728      1.0  0.54278  0.46760  0.77295  1.0000
  H   H729      1.0  0.57057  0.51315  0.74156  1.0000
  H   H730      1.0  0.55424  0.52396  0.68156  1.0000
  C   C927      1.0  0.96545  0.45552  0.74109  1.0000
  H   H731      1.0  0.58904  0.62854  0.51346  1.0000
  H   H732      1.0  0.96059  0.36002  0.51236  1.0000
  H   H733      1.0  0.95466  0.34684  0.88503  1.0000
  C   C928      1.0  0.47940  0.46605  0.89307  1.0000
  S   S128      1.0  0.91908  0.33858  0.56779  1.0000
  C   C929      1.0  0.96491  0.52771  0.50117  1.0000
  C   C930      1.0  0.57476  0.54242  0.55036  1.0000
  C   C931      1.0  0.67602  0.62436  0.92350  1.0000
  C   C932      1.0  0.67003  0.59704  0.91871  1.0000
  C   C933      1.0  0.66658  0.58599  0.88199  1.0000
  C   C934      1.0  0.66895  0.60205  0.84982  1.0000
  H   H734      1.0  0.89510  0.49771  0.49490  1.0000
  H   H735      1.0  0.70610  0.60460  0.52251  1.0000
  H   H736      1.0  0.49234  0.49616  0.76836  1.0000
  H   H737      1.0  0.94630  0.47186  0.92389  1.0000
  H   H738      1.0  0.78646  0.33850  0.59709  1.0000
  S   S129      1.0  0.89849  0.31713  0.76665  1.0000
  H   H739      1.0  0.76533  0.56093  0.54788  1.0000
  H   H740      1.0  0.48265  0.52603  0.87750  1.0000
  C   C935      1.0  0.96227  0.51332  0.94429  1.0000
  C   C936      1.0  0.72481  0.60736  0.53600  1.0000
  C   C937      1.0  0.77027  0.61263  0.53220  1.0000
  H   H741      1.0  0.68148  0.46838  0.54410  1.0000
  C   C938      1.0  0.94128  0.35198  0.49682  1.0000
  H   H742      1.0  0.51201  0.57781  0.68883  1.0000
  C   C939      1.0  0.95545  0.35330  0.77380  1.0000
  C   C940      1.0  0.49901  0.51206  0.78983  1.0000
  H   H743      1.0  0.65691  0.63681  0.51327  1.0000
  H   H744      1.0  0.81599  0.33211  0.75863  1.0000
  H   H745      1.0  0.66801  0.58428  0.94340  1.0000
  H   H746      1.0  0.66180  0.56488  0.87832  1.0000
  H   H747      1.0  0.66597  0.59340  0.82133  1.0000
  C   C941      1.0  0.96125  0.49343  0.91950  1.0000
  H   H748      1.0  0.76484  0.42808  0.49724  1.0000
  H   H749      1.0  0.96858  0.47381  0.75569  1.0000
  C   C942      1.0  0.77288  0.61512  0.57212  1.0000
  C   C943      1.0  0.75146  0.61360  0.59393  1.0000
  C   C944      1.0  0.89163  0.32970  0.49614  1.0000
  C   C945      1.0  0.48467  0.44197  0.60163  1.0000
  C   C946      1.0  0.48399  0.50771  0.82368  1.0000
  S   S130      1.0  0.49669  0.56750  0.97202  1.0000
  H   H750      1.0  0.48244  0.44254  0.68276  1.0000
  C   C947      1.0  0.49371  0.52886  0.85102  1.0000
  H   H751      1.0  0.59275  0.55925  0.83948  1.0000
  C   C948      1.0  0.91554  0.50744  0.50720  1.0000
  H   H752      1.0  0.88509  0.37260  0.56046  1.0000
  H   H753      1.0  0.82527  0.37882  0.74101  1.0000
  C   C949      1.0  0.59804  0.59906  0.85368  1.0000
  P   P33       1.0  0.78042  0.52266  0.51250  1.0000
  C   C950      1.0  0.85641  0.59912  0.56423  1.0000
  H   H754      1.0  0.90143  0.50947  0.56370  1.0000
  C   C951      1.0  0.49846  0.55602  0.68346  1.0000
  C   C952      1.0  0.95638  0.59541  0.80956  1.0000
  S   S131      1.0  0.57066  0.61693  0.97233  1.0000
  H   H755      1.0  0.74854  0.45757  0.77098  1.0000
  H   H756      1.0  0.49976  0.39517  0.63947  1.0000
  H   H757      1.0  0.55063  0.57801  0.80481  1.0000
  H   H758      1.0  0.91173  0.39220  0.92436  1.0000
  C   C953      1.0  0.65339  0.61830  0.49893  1.0000
  H   H759      1.0  0.52494  0.57044  0.86525  1.0000
  H   H760      1.0  0.79398  0.54616  0.59021  1.0000
  H   H761      1.0  0.67515  0.64107  0.82936  1.0000
  C   C954      1.0  0.92560  0.40144  0.90045  1.0000
  H   H762      1.0  0.92824  0.38925  0.59727  1.0000
  C   C955      1.0  0.91445  0.48996  0.83225  1.0000
  C   C956      1.0  0.91899  0.51405  0.54618  1.0000
  H   H763      1.0  0.72225  0.55356  0.57646  1.0000
  C   C957      1.0  0.53217  0.55837  0.81020  1.0000
  C   C958      1.0  0.95630  0.59127  0.84955  1.0000
  S   S132      1.0  0.49234  0.37855  0.71959  1.0000
  H   H764      1.0  0.94567  0.62822  0.50609  1.0000
  H   H765      1.0  0.53468  0.54056  0.75725  1.0000
  C   C959      1.0  0.50809  0.54120  0.66328  1.0000
  C   C960      1.0  0.64676  0.57230  0.50130  1.0000
  C   C961      1.0  0.55035  0.41455  0.53663  1.0000
  C   C962      1.0  0.52863  0.38975  0.55066  1.0000
  C   C963      1.0  0.50512  0.37440  0.52807  1.0000
  H   H766      1.0  0.49345  0.48805  0.89366  1.0000
  H   H767      1.0  0.91414  0.49838  0.85989  1.0000
  C   C964      1.0  0.53202  0.53343  0.57946  1.0000
  C   C965      1.0  0.79537  0.31645  0.55488  1.0000
  C   C966      1.0  0.85504  0.59427  0.52493  1.0000
  C   C967      1.0  0.83199  0.57148  0.50902  1.0000
  H   H768      1.0  0.73872  0.54049  0.75861  1.0000
  C   C968      1.0  0.60073  0.58029  0.82988  1.0000
  H   H769      1.0  0.56857  0.42648  0.55429  1.0000
  H   H770      1.0  0.52997  0.38258  0.57918  1.0000
  H   H771      1.0  0.48808  0.35533  0.53903  1.0000
  C   C969      1.0  0.94415  0.42925  0.75203  1.0000
  C   C970      1.0  0.83689  0.45956  0.78984  1.0000
  C   C971      1.0  0.82956  0.44995  0.75237  1.0000
  C   C972      1.0  0.81270  0.45678  0.73066  1.0000
  C   C973      1.0  0.80292  0.47298  0.74653  1.0000
  C   C974      1.0  0.80936  0.48189  0.78461  1.0000
  C   C975      1.0  0.82702  0.47566  0.80584  1.0000
  P   P34       1.0  0.79803  0.50391  0.80503  1.0000
  C   C976      1.0  0.78722  0.49391  0.85386  1.0000
  C   C977      1.0  0.82730  0.53834  0.80261  1.0000
  C   C978      1.0  0.83179  0.55447  0.76957  1.0000
  C   C979      1.0  0.85442  0.58118  0.76755  1.0000
  C   C980      1.0  0.87337  0.59153  0.79783  1.0000
  C   C981      1.0  0.86960  0.57520  0.83028  1.0000
  C   C982      1.0  0.84668  0.54865  0.83269  1.0000
  C   C983      1.0  0.78729  0.51311  0.87935  1.0000
  C   C984      1.0  0.77814  0.50528  0.91695  1.0000
  C   C985      1.0  0.76849  0.47814  0.92916  1.0000
  C   C986      1.0  0.76779  0.45876  0.90369  1.0000
  C   C987      1.0  0.77694  0.46654  0.86606  1.0000
  C   C988      1.0  0.76808  0.50146  0.78122  1.0000
  C   C989      1.0  0.76463  0.52459  0.77863  1.0000
  C   C990      1.0  0.74095  0.52241  0.76156  1.0000
  C   C991      1.0  0.72034  0.49710  0.74745  1.0000
  C   C992      1.0  0.72323  0.47383  0.75081  1.0000
  C   C993      1.0  0.74686  0.47590  0.76803  1.0000
  H   H772      1.0  0.95827  0.55028  0.76570  1.0000
  C   C994      1.0  0.55356  0.54847  0.55383  1.0000
  H   H773      1.0  0.80769  0.45008  0.70119  1.0000
  H   H774      1.0  0.79076  0.47889  0.72875  1.0000
  H   H775      1.0  0.83338  0.48350  0.83460  1.0000
  H   H776      1.0  0.81790  0.54629  0.74527  1.0000
  H   H777      1.0  0.85765  0.59365  0.74210  1.0000
  H   H778      1.0  0.89157  0.61178  0.79554  1.0000
  H   H779      1.0  0.88502  0.58290  0.85291  1.0000
  H   H780      1.0  0.84444  0.53608  0.85764  1.0000
  H   H781      1.0  0.79422  0.53409  0.87005  1.0000
  C   C995      1.0  0.96106  0.42364  0.83796  1.0000
  C   C996      1.0  0.54836  0.42428  0.50029  1.0000
  H   H782      1.0  0.94772  0.53240  0.59292  1.0000
  H   H783      1.0  0.72062  0.62050  0.95033  1.0000
  C   C997      1.0  0.83895  0.45953  0.49805  1.0000
  H   H784      1.0  0.69589  0.55778  0.50585  1.0000
  H   H785      1.0  0.87235  0.32034  0.51139  1.0000
  H   H786      1.0  0.91111  0.32224  0.84725  1.0000
  C   C998      1.0  0.50329  0.38387  0.49153  1.0000
  H   H787      1.0  0.93577  0.44118  0.98416  1.0000
  H   H788      1.0  0.76424  0.62924  0.97980  1.0000
  C   C999      1.0  0.84451  0.43824  0.49142  1.0000
  C   C1000     1.0  0.72797  0.63311  0.97569  1.0000
  C   C1001     1.0  0.96824  0.53410  0.54021  1.0000
  Fe  Fe65      1.0  0.88259  0.31468  0.70470  1.0000
  H   H789      1.0  0.56545  0.44346  0.48995  1.0000
  H   H790      1.0  0.84679  0.34574  0.48984  1.0000
  C   C1002     1.0  0.56367  0.85885  0.08120  1.0000
  H   H791      1.0  0.94262  0.66571  0.05135  1.0000
  H   H792      1.0  0.64907  0.70231  0.00951  1.0000
  C   C1003     1.0  0.51515  0.82378  0.08022  1.0000
  C   C1004     1.0  0.48844  0.74785  0.02523  1.0000
  C   C1005     1.0  0.57951  0.97165  0.10167  1.0000
  Fe  Fe66      1.0  0.55868  0.92197  0.01715  1.0000
  C   C1006     1.0  0.62955  0.74454  0.03674  1.0000
  S   S133      1.0  0.56001  0.93919  0.07772  1.0000
  C   C1007     1.0  0.72663  0.66774  0.44803  1.0000
  H   H793      1.0  0.54160  0.74565  0.09522  1.0000
  C   C1008     1.0  0.49914  0.76660  0.05569  1.0000
  H   H794      1.0  0.51660  0.92212  0.23734  1.0000
  C   C1009     1.0  0.54258  0.83260  0.07076  1.0000
  C   C1010     1.0  0.47639  0.79901  0.01870  1.0000
  C   C1011     1.0  0.63251  0.78747  0.05475  1.0000
  H   H795      1.0  0.78241  0.65825  0.03787  1.0000
  C   C1012     1.0  0.51786  0.76525  0.08146  1.0000
  C   C1013     1.0  0.94997  0.66842  0.08068  1.0000
  C   C1014     1.0  0.62695  0.76090  0.06433  1.0000
  C   C1015     1.0  0.49716  0.72875  0.01987  1.0000
  H   H796      1.0  0.81668  0.65330  0.36896  1.0000
  H   H797      1.0  0.96603  0.72131  0.00310  1.0000
  H   H798      1.0  0.63029  0.80010  0.07606  1.0000
  H   H799      1.0  0.52589  0.77909  0.10563  1.0000
  C   C1016     1.0  0.49166  0.95183  0.17496  1.0000
  H   H800      1.0  0.48792  0.83619  0.10510  1.0000
  H   H801      1.0  0.71271  0.67025  0.03723  1.0000
  H   H802      1.0  0.58465  0.86583  0.07260  1.0000
  Fe  Fe67      1.0  0.58215  0.65122  0.01397  1.0000
  H   H803      1.0  0.50566  0.93218  0.09918  1.0000
  H   H804      1.0  0.64501  0.65687  0.00568  1.0000
  H   H805      1.0  0.54769  0.81968  0.05401  1.0000
  C   C1017     1.0  0.71187  0.66138  0.41352  1.0000
  H   H806      1.0  0.62049  0.75288  0.09307  1.0000
  C   C1018     1.0  0.50904  0.84192  0.09939  1.0000
  C   C1019     1.0  0.53023  0.86811  0.11009  1.0000
  C   C1020     1.0  0.55752  0.87655  0.10102  1.0000
  C   C1021     1.0  0.52663  0.74619  0.07589  1.0000
  H   H807      1.0  0.54623  0.97100  0.25642  1.0000
  H   H808      1.0  0.48483  0.91577  0.00024  1.0000
  H   H809      1.0  0.52554  0.88241  0.12406  1.0000
  H   H810      1.0  0.57378  0.89723  0.10810  1.0000
  S   S134      1.0  0.52744  0.87695  0.00644  1.0000
  C   C1022     1.0  0.76318  0.65452  0.02493  1.0000
  C   C1023     1.0  0.96774  0.67555  0.15708  1.0000
  C   C1024     1.0  0.51635  0.72802  0.04502  1.0000
  H   H811      1.0  0.55643  0.95627  0.15393  1.0000
  H   H812      1.0  0.95960  0.76169  0.99872  1.0000
  C   C1025     1.0  0.74865  0.66610  0.04091  1.0000
  S   S135      1.0  0.61053  0.65909  0.06638  1.0000
  H   H813      1.0  0.74728  0.65578  0.48935  1.0000
  H   H814      1.0  0.70479  0.67480  0.40212  1.0000
  H   H815      1.0  0.52357  0.71366  0.04003  1.0000
  H   H816      1.0  0.48865  0.97609  0.38454  1.0000
  C   C1026     1.0  0.51413  0.93807  0.22323  1.0000
  C   C1027     1.0  0.48311  0.89160  0.07623  1.0000
  C   C1028     1.0  0.48559  0.91384  0.09699  1.0000
  C   C1029     1.0  0.53078  0.96557  0.23406  1.0000
  H   H817      1.0  0.62499  0.72381  0.04416  1.0000
  C   C1030     1.0  0.64042  0.79763  0.01747  1.0000
  C   C1031     1.0  0.47934  0.96999  0.10136  1.0000
  H   H818      1.0  0.50105  0.89332  0.06239  1.0000
  H   H819      1.0  0.58246  0.75912  0.00506  1.0000
  H   H820      1.0  0.73115  0.68624  0.46335  1.0000
  H   H821      1.0  0.48484  0.79482  0.14683  1.0000
  C   C1032     1.0  0.73549  0.65020  0.46289  1.0000
  C   C1033     1.0  0.49450  0.93116  0.19397  1.0000
  H   H822      1.0  0.59163  0.80722  0.01276  1.0000
  H   H823      1.0  0.52008  0.65491  0.31330  1.0000
  P   P35       1.0  0.48772  0.79109  0.06316  1.0000
  C   C1034     1.0  0.57314  0.97396  0.13993  1.0000
  H   H824      1.0  0.64419  0.81808  0.01062  1.0000
  H   H825      1.0  0.48170  0.90973  0.18607  1.0000
  C   C1035     1.0  0.66422  0.70007  0.99353  1.0000
  C   C1036     1.0  0.72378  0.66120  0.02436  1.0000
  H   H826      1.0  0.47357  0.74803  0.00534  1.0000
  H   H827      1.0  0.48961  0.71489  0.99561  1.0000
  H   H828      1.0  0.65084  0.66715  0.12425  1.0000
  H   H829      1.0  0.75659  0.67878  0.06628  1.0000
  C   C1037     1.0  0.66203  0.67417  0.99141  1.0000
  H   H830      1.0  0.52170  0.97915  0.10713  1.0000
  C   C1038     1.0  0.50840  0.97941  0.18612  1.0000
  C   C1039     1.0  0.94065  0.65584  0.14776  1.0000
  H   H831      1.0  0.56566  0.64912  0.47634  1.0000
  C   C1040     1.0  0.93170  0.65238  0.10961  1.0000
  C   C1041     1.0  0.63760  0.75470  0.99951  1.0000
  C   C1042     1.0  0.57630  0.79374  0.99226  1.0000
  H   H832      1.0  0.69630  0.79413  0.98973  1.0000
  C   C1043     1.0  0.68996  0.81285  0.93876  1.0000
  C   C1044     1.0  0.70592  0.80858  0.96633  1.0000
  H   H833      1.0  0.67736  0.77809  0.87849  1.0000
  Fe  Fe68      1.0  0.57437  0.93189  0.93119  1.0000
  S   S136      1.0  0.54452  0.88759  0.91513  1.0000
  C   C1045     1.0  0.68582  0.72286  0.97535  1.0000
  C   C1046     1.0  0.74766  0.84194  0.93407  1.0000
  H   H834      1.0  0.60378  0.78726  0.89788  1.0000
  H   H835      1.0  0.58691  0.81910  0.88357  1.0000
  Fe  Fe69      1.0  0.51515  0.89207  0.95409  1.0000
  C   C1047     1.0  0.52241  0.93890  0.86569  1.0000
  H   H836      1.0  0.69116  0.83508  0.88695  1.0000
  C   C1048     1.0  0.49197  0.80361  0.98556  1.0000
  Fe  Fe70      1.0  0.55887  0.87478  0.96887  1.0000
  S   S137      1.0  0.60671  0.65155  0.87125  1.0000
  H   H837      1.0  0.74194  0.86075  0.88322  1.0000
  H   H838      1.0  0.60848  0.70181  0.84074  1.0000
  H   H839      1.0  0.52120  0.74475  0.91982  1.0000
  C   C1049     1.0  0.50818  0.97210  0.88047  1.0000
  H   H840      1.0  0.57871  0.70636  0.88852  1.0000
  H   H841      1.0  0.53030  0.79268  0.92735  1.0000
  C   C1050     1.0  0.53670  0.75828  0.94015  1.0000
  C   C1051     1.0  0.58909  0.96255  0.81632  1.0000
  C   C1052     1.0  0.60024  0.72213  0.88626  1.0000
  H   H842      1.0  0.58380  0.95691  0.75501  1.0000
  C   C1053     1.0  0.54176  0.78564  0.94454  1.0000
  H   H843      1.0  0.53815  0.93310  0.86593  1.0000
  C   C1054     1.0  0.49579  0.92033  0.85283  1.0000
  H   H844      1.0  0.57922  0.94072  0.82259  1.0000
  C   C1055     1.0  0.64477  0.73992  0.85671  1.0000
  C   C1056     1.0  0.61699  0.71965  0.85930  1.0000
  S   S138      1.0  0.54388  0.93637  0.96694  1.0000
  C   C1057     1.0  0.61132  0.74468  0.91094  1.0000
  C   C1058     1.0  0.63911  0.76522  0.90852  1.0000
  C   C1059     1.0  0.65582  0.76274  0.88106  1.0000
  P   P36       1.0  0.65282  0.79407  0.94108  1.0000
  C   C1060     1.0  0.64033  0.81736  0.92872  1.0000
  C   C1061     1.0  0.52867  0.96474  0.87928  1.0000
  H   H845      1.0  0.54944  0.97870  0.88936  1.0000
  C   C1062     1.0  0.60620  0.82641  0.89898  1.0000
  S   S139      1.0  0.59668  0.68348  0.96671  1.0000
  H   H846      1.0  0.59822  0.74606  0.93215  1.0000
  C   C1063     1.0  0.64272  0.78119  0.98940  1.0000
  C   C1064     1.0  0.59183  0.97184  0.77790  1.0000
  H   H847      1.0  0.52227  0.97441  0.96253  1.0000
  H   H848      1.0  0.47769  0.96836  0.78515  1.0000
  H   H849      1.0  0.65770  0.73773  0.83594  1.0000
  C   C1065     1.0  0.61588  0.80831  0.90743  1.0000
  S   S140      1.0  0.47131  0.87890  0.93533  1.0000
  C   C1066     1.0  0.70314  0.83169  0.90871  1.0000
  C   C1067     1.0  0.73189  0.84619  0.90644  1.0000
  H   H850      1.0  0.72251  0.73754  0.94169  1.0000
  C   C1068     1.0  0.56161  0.80380  0.97082  1.0000
  C   C1069     1.0  0.73468  0.82313  0.96397  1.0000
  H   H851      1.0  0.74692  0.81988  0.98543  1.0000
  C   C1070     1.0  0.47551  0.92783  0.85273  1.0000
  S   S141      1.0  0.54338  0.71277  0.95551  1.0000
  H   H852      1.0  0.63958  0.74176  0.97857  1.0000
  C   C1071     1.0  0.65490  0.84485  0.94122  1.0000
  C   C1072     1.0  0.62064  0.85357  0.91191  1.0000
  Fe  Fe71      1.0  0.55373  0.67732  0.96574  1.0000
  S   S142      1.0  0.60029  0.97124  0.89505  1.0000
  H   H853      1.0  0.65588  0.88379  0.94344  1.0000
  C   C1073     1.0  0.57127  0.76638  0.98777  1.0000
  C   C1074     1.0  0.55133  0.74820  0.96169  1.0000
  H   H854      1.0  0.71968  0.69216  0.93945  1.0000
  C   C1075     1.0  0.48175  0.95378  0.86602  1.0000
  H   H855      1.0  0.67363  0.85232  0.95801  1.0000
  H   H856      1.0  0.61247  0.86721  0.90655  1.0000
  H   H857      1.0  0.62973  0.65579  0.79662  1.0000
  S   S143      1.0  0.59111  0.91941  0.98268  1.0000
  C   C1076     1.0  0.64502  0.86282  0.93293  1.0000
  H   H858      1.0  0.76994  0.85324  0.93232  1.0000
  H   H859      1.0  0.68042  0.66055  0.89356  1.0000
  C   C1077     1.0  0.70568  0.71988  0.95568  1.0000
  C   C1078     1.0  0.48458  0.81139  0.95126  1.0000
  H   H860      1.0  0.49698  0.81525  0.92592  1.0000
  H   H861      1.0  0.49077  0.89992  0.84371  1.0000
  S   S144      1.0  0.56897  0.83898  0.97797  1.0000
  C   C1079     1.0  0.70391  0.69412  0.95424  1.0000
  H   H862      1.0  0.51017  0.80168  0.98650  1.0000
  Fe  Fe72      1.0  0.58172  0.64804  0.92510  1.0000
  C   C1080     1.0  0.68185  0.67100  0.97166  1.0000
  H   H863      1.0  0.52513  0.97615  0.78799  1.0000
  H   H864      1.0  0.68719  0.74278  0.97667  1.0000
