data_image0
_chemical_formula_structural       FeS2FeS2FeCFeS3CH3CFeS2FeS2FeSFeS3HC9H4C4H2C5HCH2C4HCH5C6H4C6H4CH2C3HSH2C3HCHC2HCH2C4H2C2HC2SCHC2HC3H2SHCH2C2PHCHC3H3CHCH2C2H2C4HC2HC2HCHC3H7C2HCHC2HCHC2H3CH2SC3HC2PC2HCHC3H2CH2C3HCPC2HSH2C2H3C6HCHC2HC4PH3C4H2CHCHCH3CHCHC3HC2HC4SHC2H2CHSH2CH3CHCH2FeSFeS2H2FeS2CFeS2FeS2FeSPFeC3S2C3HC4H2C6H4C6H5CHCH2CHPC18H11CH5C2H2C2FeC4HCHSHFeC2H3CHC3FeC2H3CHCHC2HCH2C4H4CH2C2PCH3CH2FeH2CHC3HC4PH2PH2CHCHC2H3CHCH2CHC4HCH2C2H2C3HC2HSH2C2SC2H2C5HC2SC2SC2HC4H4C2SCHCHC2FeC5HCSHCH6C2HCH4C6PC3H2C2H3C2H2CH2CHC4H2CH4CH2C6H3FeC3SHCH2SH4CHC2HC2H2SCHC5PC8H2C6HCH2CH8FeSC2H4CFeCH2CHSC2SCH2CH2CH2C3H2CH2C6HPC2HC2HC3H2SCHCHSHC3H3C4H3C2HC4HC2PCHC2HCHPH5CSCHCHC3HCSCHC2HC4HCH2CHFeHCHC11HC2HCHSHCHC2HCHC2H4C2HC2H2C2HC5H3CH2SCHCHSH2CFeCH3CHCHCPCHSCFeCHCH2CHFeSFeSHFeS2FeSFeCS2FeCSFeS2CHFeSHSFeS2FeS2FeSFeS4C3HC6HCH2C6H4CHC6H3C6H4C6H4C2SHCHCH3CHC6PC18H20C3H3C6H5C5H2C2H4CHCSC2H2PC2HC2H2C3HSC3HFeSHCPCH3CPHC4HCHCHC4HCH2SCHC2H2CHCHSCH2CH8C2HC2H2C5HCHFeC3PHC2HC2HCH2C2H2C2HC2HCHCH4C2HC2H2C2HCHFeSFeC3H3SCPCHCHCSC5H2C3HC4H4CHCHSC3HCH3C7H2PC4HCHCSHCH7CHC2FePC3H3CH3C2H2C3H5C2HC2SHC6PH2C2H2CHC2HFeC5H3CH2CH4C4HC3PC9SC8H19CHC7SHSCSCHCHC3HCH3SHC3HC2HCH7CH2CHC3H2C3H3SHC2H2C2HCHCHC3HFeS2FeS2FeSFeS3HC2FeS2C2FeSCSFeS2H2CFeSC2SCFeSCFeS2FeSFeS3H3C2HSHC7H5CSCSHCHC5H2C7H4C6H4C6H4C3SC3HCHC2H2C5PC7H2C7H5CH2C2H5CHC2PC8H3C2HCH7CFeH3C9H3C2H4C2HCHC3HC2PH2CH2C2HC3H4C4FeH2CHC2HCH2CHC2H2CH4CH3C3HFeCH2CH3CHCHCH2C2HCHCHC2HCHC5HCPC3H2C2H2C2HSHCPHC2HCFeH6CH2CH2CH2C2HCH2CHFeS2FeS2FeSFeS3FeS2FeS2FeCFeCS2CH3SCH2C4HC6H4C7H4C3H3C3H2C8H3CH2C5H4C6PHC6HC2H8C6PC8H12SC3H2C10H3C2HC2HC4H3CHC2S2C2HC3HC3HC2H3CHCHC4H2C2H2FePH5C2H2C7HCHPCHCSHC3H2CHC2HPHCH2CH3C3H2C2HCH2C4HFeHFeS2FeSCSCFeSFeS2FeSFeS3FeS2HFeSFeSHC9HCHCFeHC7H4C6H6C3H3C3H4SH5CH2C2PC15H9C2H3C5HCH4CHCHSC3HCHCHC2H2C3H2C3H3C5HC4H2CH2CH2P2C4H2C3HSH2C3HSCH2C2H4C2HCHC2PHCH2CHCHCH2CPHC8HCHCHCH2C2H2C2H2CH2CHCH5C2H2CHC5HCH2CH3C2HCHCH4CHC3HC2H2CH
_chemical_formula_sum              "Fe80 S160 C1200 H960 P40"
_cell_length_a       44.3791
_cell_length_b       45.3142
_cell_length_c       48.0276
_cell_angle_alpha    90.7848
_cell_angle_beta     91.5579
_cell_angle_gamma    90.777

_space_group_name_H-M_alt    "P 1"
_space_group_IT_number       1

loop_
  _space_group_symop_operation_xyz
  'x, y, z'

loop_
  _atom_site_type_symbol
  _atom_site_label
  _atom_site_symmetry_multiplicity
  _atom_site_fract_x
  _atom_site_fract_y
  _atom_site_fract_z
  _atom_site_occupancy
  Fe  Fe1       1.0  0.40685  0.26947  0.11451  1.0000
  S   S1        1.0  0.41159  0.22050  0.11307  1.0000
  S   S2        1.0  0.43503  0.29272  0.08299  1.0000
  Fe  Fe2       1.0  0.35874  0.26606  0.15787  1.0000
  S   S3        1.0  0.35909  0.21638  0.16011  1.0000
  S   S4        1.0  0.32920  0.29690  0.18198  1.0000
  Fe  Fe3       1.0  0.40938  0.22242  0.15945  1.0000
  C   C1        1.0  0.02454  0.12139  0.25497  1.0000
  Fe  Fe4       1.0  0.36128  0.21801  0.11348  1.0000
  S   S5        1.0  0.34006  0.18751  0.08093  1.0000
  S   S6        1.0  0.40910  0.27197  0.16114  1.0000
  S   S7        1.0  0.35646  0.26702  0.11104  1.0000
  C   C2        1.0  0.32029  0.37091  0.07511  1.0000
  H   H1        1.0  0.36316  0.33265  0.23472  1.0000
  H   H2        1.0  0.01849  0.12089  0.27667  1.0000
  H   H3        1.0  0.26845  0.32816  0.31708  1.0000
  C   C3        1.0  0.44627  0.36775  0.20167  1.0000
  Fe  Fe5       1.0  0.20462  0.11486  0.18448  1.0000
  S   S8        1.0  0.18312  0.07895  0.20859  1.0000
  S   S9        1.0  0.19113  0.16221  0.18794  1.0000
  Fe  Fe6       1.0  0.24803  0.07416  0.15748  1.0000
  S   S10       1.0  0.23072  0.03458  0.17987  1.0000
  S   S11       1.0  0.28264  0.06882  0.12459  1.0000
  Fe  Fe7       1.0  0.18486  0.05171  0.16939  1.0000
  S   S12       1.0  0.14847  0.01736  0.15921  1.0000
  Fe  Fe8       1.0  0.23033  0.06445  0.21731  1.0000
  S   S13       1.0  0.24005  0.04557  0.25963  1.0000
  S   S14       1.0  0.20208  0.08926  0.14408  1.0000
  S   S15       1.0  0.25211  0.10264  0.19607  1.0000
  H   H4        1.0  0.28510  0.09357  0.26369  1.0000
  C   C4        1.0  0.36939  0.32261  0.27821  1.0000
  C   C5        1.0  0.28170  0.99344  0.03848  1.0000
  C   C6        1.0  0.10196  0.98856  0.09000  1.0000
  C   C7        1.0  0.18241  0.17339  0.22193  1.0000
  C   C8        1.0  0.19455  0.19985  0.23297  1.0000
  C   C9        1.0  0.18702  0.20951  0.25975  1.0000
  C   C10       1.0  0.16641  0.19331  0.27516  1.0000
  C   C11       1.0  0.15418  0.16685  0.26411  1.0000
  C   C12       1.0  0.16257  0.15666  0.23772  1.0000
  H   H5        1.0  0.20993  0.21285  0.22086  1.0000
  H   H6        1.0  0.19659  0.22991  0.26813  1.0000
  H   H7        1.0  0.13828  0.15430  0.27601  1.0000
  H   H8        1.0  0.15323  0.13626  0.22929  1.0000
  C   C13       1.0  0.13378  0.01467  0.12480  1.0000
  C   C14       1.0  0.10812  0.01037  0.07057  1.0000
  C   C15       1.0  0.12719  0.03419  0.07829  1.0000
  C   C16       1.0  0.14027  0.03617  0.10522  1.0000
  H   H9        1.0  0.13191  0.05119  0.06340  1.0000
  H   H10       1.0  0.15499  0.05459  0.11093  1.0000
  C   C17       1.0  0.33676  0.04867  0.29494  1.0000
  C   C18       1.0  0.31967  0.02252  0.29451  1.0000
  C   C19       1.0  0.29003  0.02208  0.28382  1.0000
  C   C20       1.0  0.27757  0.04749  0.27236  1.0000
  C   C21       1.0  0.29471  0.07374  0.27227  1.0000
  H   H11       1.0  0.38553  0.12640  0.09260  1.0000
  C   C22       1.0  0.22887  0.12972  0.26803  1.0000
  H   H12       1.0  0.27688  0.00182  0.28404  1.0000
  H   H13       1.0  0.44344  0.05638  0.28033  1.0000
  C   C23       1.0  0.40151  0.39375  0.00680  1.0000
  C   C24       1.0  0.43488  0.19140  0.21809  1.0000
  C   C25       1.0  0.41309  0.20927  0.22982  1.0000
  C   C26       1.0  0.40869  0.20878  0.25861  1.0000
  H   H14       1.0  0.45815  0.33512  0.30254  1.0000
  C   C27       1.0  0.29960  0.04756  0.01656  1.0000
  H   H15       1.0  0.31191  0.07872  0.21272  1.0000
  H   H16       1.0  0.40015  0.22399  0.21683  1.0000
  H   H17       1.0  0.39244  0.22317  0.26783  1.0000
  H   H18       1.0  0.15418  0.01064  0.24650  1.0000
  H   H19       1.0  0.32926  0.00259  0.30291  1.0000
  C   C28       1.0  0.31909  0.28225  0.21424  1.0000
  C   C29       1.0  0.33569  0.25927  0.22573  1.0000
  C   C30       1.0  0.32903  0.24879  0.25217  1.0000
  C   C31       1.0  0.30500  0.26027  0.26691  1.0000
  C   C32       1.0  0.28791  0.28299  0.25532  1.0000
  C   C33       1.0  0.29526  0.29427  0.22912  1.0000
  H   H20       1.0  0.35420  0.25007  0.21456  1.0000
  H   H21       1.0  0.34250  0.23159  0.26124  1.0000
  H   H22       1.0  0.26936  0.29205  0.26665  1.0000
  H   H23       1.0  0.28229  0.31205  0.22027  1.0000
  C   C34       1.0  0.32250  0.15540  0.09336  1.0000
  C   C35       1.0  0.31133  0.15413  0.12032  1.0000
  C   C36       1.0  0.29792  0.12790  0.12971  1.0000
  C   C37       1.0  0.29675  0.10264  0.11257  1.0000
  C   C38       1.0  0.30776  0.10401  0.08559  1.0000
  C   C39       1.0  0.32010  0.13045  0.07585  1.0000
  H   H24       1.0  0.31270  0.17341  0.13383  1.0000
  H   H25       1.0  0.28897  0.12711  0.15036  1.0000
  H   H26       1.0  0.30675  0.08459  0.07224  1.0000
  H   H27       1.0  0.32857  0.13137  0.05498  1.0000
  C   C40       1.0  0.99904  0.01424  0.08009  1.0000
  H   H28       1.0  0.30662  0.06873  0.00853  1.0000
  H   H29       1.0  0.40429  0.42545  0.22433  1.0000
  C   C41       1.0  0.44897  0.32903  0.08658  1.0000
  C   C42       1.0  0.44538  0.34596  0.11079  1.0000
  C   C43       1.0  0.35558  0.00548  0.20726  1.0000
  H   H30       1.0  0.41099  0.24170  0.01768  1.0000
  S   S16       1.0  0.29863  0.24658  0.30037  1.0000
  H   H31       1.0  0.43244  0.33717  0.12759  1.0000
  H   H32       1.0  0.26990  0.99500  0.13907  1.0000
  C   C44       1.0  0.41253  0.28264  0.26054  1.0000
  C   C45       1.0  0.33402  0.36365  0.00989  1.0000
  C   C46       1.0  0.38369  0.30434  0.29778  1.0000
  H   H33       1.0  0.42780  0.33021  0.17833  1.0000
  C   C47       1.0  0.25876  0.14371  0.31853  1.0000
  H   H34       1.0  0.42912  0.26702  0.25364  1.0000
  C   C48       1.0  0.46517  0.34068  0.06464  1.0000
  C   C49       1.0  0.01488  0.14454  0.23816  1.0000
  H   H35       1.0  0.45627  0.22991  0.06410  1.0000
  C   C50       1.0  0.12874  0.11669  0.14855  1.0000
  H   H36       1.0  0.01818  0.04741  0.22348  1.0000
  H   H37       1.0  0.14798  0.13171  0.15025  1.0000
  C   C51       1.0  0.35007  0.15788  0.26135  1.0000
  C   C52       1.0  0.32507  0.16990  0.24756  1.0000
  C   C53       1.0  0.31584  0.15905  0.22131  1.0000
  C   C54       1.0  0.02295  0.14537  0.21026  1.0000
  H   H38       1.0  0.31291  0.18777  0.25711  1.0000
  H   H39       1.0  0.29666  0.16862  0.21048  1.0000
  C   C55       1.0  0.39157  0.14010  0.13544  1.0000
  C   C56       1.0  0.44654  0.17126  0.26383  1.0000
  H   H40       1.0  0.44727  0.33835  0.25227  1.0000
  C   C57       1.0  0.41259  0.08922  0.22306  1.0000
  C   C58       1.0  0.01107  0.00556  0.20308  1.0000
  S   S17       1.0  0.44244  0.19377  0.18250  1.0000
  C   C59       1.0  0.02238  0.02807  0.06606  1.0000
  H   H41       1.0  0.45978  0.15686  0.27695  1.0000
  C   C60       1.0  0.38908  0.13210  0.16325  1.0000
  C   C61       1.0  0.30780  0.36969  0.10155  1.0000
  H   H42       1.0  0.45696  0.38692  0.13230  1.0000
  C   C62       1.0  0.42260  0.41674  0.00448  1.0000
  C   C63       1.0  0.40565  0.31658  0.01537  1.0000
  C   C64       1.0  0.40177  0.26350  0.02049  1.0000
  H   H43       1.0  0.39838  0.39213  0.07771  1.0000
  H   H44       1.0  0.17208  0.05007  0.27922  1.0000
  S   S18       1.0  0.09229  0.00879  0.03653  1.0000
  H   H45       1.0  0.04473  0.02991  0.07567  1.0000
  C   C65       1.0  0.15252  0.05368  0.26577  1.0000
  H   H46       1.0  0.14706  0.09865  0.27952  1.0000
  H   H47       1.0  0.12645  0.11144  0.19262  1.0000
  C   C66       1.0  0.39704  0.29976  0.24108  1.0000
  C   C67       1.0  0.14254  0.03150  0.24711  1.0000
  P   P1        1.0  0.22219  0.01033  0.04619  1.0000
  H   H48       1.0  0.46884  0.15895  0.22611  1.0000
  C   C68       1.0  0.32441  0.05854  0.21102  1.0000
  H   H49       1.0  0.26835  0.01385  0.09155  1.0000
  C   C69       1.0  0.13862  0.08116  0.26566  1.0000
  C   C70       1.0  0.11890  0.03686  0.22807  1.0000
  C   C71       1.0  0.43447  0.43095  0.02839  1.0000
  H   H50       1.0  0.36769  0.98495  0.20598  1.0000
  H   H51       1.0  0.20652  0.09545  0.29010  1.0000
  H   H52       1.0  0.17939  0.03881  0.00725  1.0000
  C   C72       1.0  0.01723  0.03854  0.03914  1.0000
  H   H53       1.0  0.11250  0.01981  0.21307  1.0000
  C   C73       1.0  0.33143  0.13596  0.20894  1.0000
  H   H54       1.0  0.12632  0.11757  0.10378  1.0000
  H   H55       1.0  0.37553  0.34764  0.17850  1.0000
  C   C74       1.0  0.45932  0.37401  0.11342  1.0000
  C   C75       1.0  0.38451  0.11972  0.11413  1.0000
  H   H56       1.0  0.30814  0.38217  0.05869  1.0000
  H   H57       1.0  0.35750  0.16670  0.28153  1.0000
  C   C76       1.0  0.11635  0.10896  0.12239  1.0000
  C   C77       1.0  0.11655  0.10498  0.17262  1.0000
  C   C78       1.0  0.11505  0.08664  0.24656  1.0000
  C   C79       1.0  0.20201  0.98364  0.02392  1.0000
  H   H58       1.0  0.32411  0.12788  0.18853  1.0000
  C   C80       1.0  0.42547  0.42202  0.05464  1.0000
  C   C81       1.0  0.10489  0.06447  0.22762  1.0000
  H   H59       1.0  0.39530  0.03237  0.20300  1.0000
  C   C82       1.0  0.37479  0.09125  0.12064  1.0000
  C   C83       1.0  0.07859  0.07880  0.14440  1.0000
  H   H60       1.0  0.28024  0.17872  0.29620  1.0000
  C   C84       1.0  0.26960  0.04295  0.02381  1.0000
  H   H61       1.0  0.20236  0.10928  0.08520  1.0000
  C   C85       1.0  0.32443  0.00507  0.21065  1.0000
  C   C86       1.0  0.37565  0.31988  0.24993  1.0000
  C   C87       1.0  0.35033  0.34156  0.11825  1.0000
  H   H62       1.0  0.34258  0.29711  0.05025  1.0000
  H   H63       1.0  0.10555  0.10852  0.24603  1.0000
  H   H64       1.0  0.16717  0.12313  0.04674  1.0000
  H   H65       1.0  0.36153  0.32936  0.13465  1.0000
  H   H66       1.0  0.00331  0.00535  0.10062  1.0000
  H   H67       1.0  0.05002  0.08152  0.25732  1.0000
  H   H68       1.0  0.39410  0.14839  0.17952  1.0000
  C   C88       1.0  0.32421  0.07443  0.28402  1.0000
  C   C89       1.0  0.20345  0.04543  0.04682  1.0000
  H   H69       1.0  0.33826  0.41124  0.01411  1.0000
  C   C90       1.0  0.43922  0.39452  0.21491  1.0000
  H   H70       1.0  0.41734  0.27049  0.30343  1.0000
  C   C91       1.0  0.39224  0.38468  0.03314  1.0000
  C   C92       1.0  0.09180  0.08539  0.17076  1.0000
  H   H71       1.0  0.08559  0.02103  0.16540  1.0000
  C   C93       1.0  0.36332  0.29499  0.03904  1.0000
  H   H72       1.0  0.43825  0.28583  0.00049  1.0000
  C   C94       1.0  0.17052  0.98116  0.02516  1.0000
  C   C95       1.0  0.19689  0.09362  0.06849  1.0000
  H   H73       1.0  0.45664  0.40742  0.22588  1.0000
  H   H74       1.0  0.34389  0.02888  0.01480  1.0000
  H   H75       1.0  0.28481  0.03129  0.21517  1.0000
  C   C96       1.0  0.44241  0.06864  0.26109  1.0000
  H   H76       1.0  0.31229  0.98430  0.21220  1.0000
  H   H77       1.0  0.25389  0.06082  0.02116  1.0000
  S   S19       1.0  0.15527  0.20627  0.30793  1.0000
  C   C97       1.0  0.17722  0.10147  0.04671  1.0000
  C   C98       1.0  0.40464  0.39881  0.05710  1.0000
  C   C99       1.0  0.38668  0.38789  0.20091  1.0000
  H   H78       1.0  0.28628  0.37982  0.10527  1.0000
  C   C100      1.0  0.37874  0.32014  0.02970  1.0000
  C   C101      1.0  0.09116  0.09015  0.12032  1.0000
  P   P2        1.0  0.07512  0.07187  0.20219  1.0000
  C   C102      1.0  0.35630  0.12339  0.22278  1.0000
  C   C103      1.0  0.36576  0.13478  0.24900  1.0000
  H   H79       1.0  0.36403  0.06118  0.15296  1.0000
  C   C104      1.0  0.02183  0.98506  0.18389  1.0000
  H   H80       1.0  0.40109  0.29700  0.21907  1.0000
  C   C105      1.0  0.40573  0.28468  0.28877  1.0000
  C   C106      1.0  0.45161  0.17240  0.23509  1.0000
  C   C107      1.0  0.06474  0.01705  0.17594  1.0000
  H   H81       1.0  0.08156  0.08415  0.10001  1.0000
  H   H82       1.0  0.36329  0.24760  0.04261  1.0000
  C   C108      1.0  0.37241  0.08307  0.14847  1.0000
  H   H83       1.0  0.22538  0.06016  0.08558  1.0000
  H   H84       1.0  0.33725  0.09474  0.28446  1.0000
  C   C109      1.0  0.41452  0.07329  0.24785  1.0000
  C   C110      1.0  0.25015  0.99062  0.12580  1.0000
  C   C111      1.0  0.17085  0.08153  0.02480  1.0000
  H   H85       1.0  0.31267  0.35292  0.14333  1.0000
  C   C112      1.0  0.20990  0.06568  0.06863  1.0000
  P   P3        1.0  0.36333  0.35639  0.03566  1.0000
  C   C113      1.0  0.39346  0.36106  0.18807  1.0000
  C   C114      1.0  0.30888  0.03158  0.21227  1.0000
  H   H86       1.0  0.43826  0.11350  0.19291  1.0000
  S   S20       1.0  0.37378  0.04774  0.30896  1.0000
  H   H87       1.0  0.38517  0.12604  0.26004  1.0000
  H   H88       1.0  0.39835  0.16232  0.13047  1.0000
  C   C115      1.0  0.05404  0.03795  0.19503  1.0000
  C   C116      1.0  0.05083  0.09993  0.21596  1.0000
  H   H89       1.0  0.05867  0.06486  0.14230  1.0000
  H   H90       1.0  0.36807  0.07583  0.10413  1.0000
  H   H91       1.0  0.04707  0.12446  0.17756  1.0000
  C   C117      1.0  0.04082  0.12315  0.19914  1.0000
  C   C118      1.0  0.04242  0.09915  0.24394  1.0000
  C   C119      1.0  0.37985  0.10342  0.16998  1.0000
  C   C120      1.0  0.24919  0.00125  0.09863  1.0000
  C   C121      1.0  0.42544  0.18997  0.27566  1.0000
  C   C122      1.0  0.18413  0.05370  0.02469  1.0000
  H   H92       1.0  0.45068  0.44891  0.02654  1.0000
  C   C123      1.0  0.32270  0.35477  0.12305  1.0000
  H   H93       1.0  0.38402  0.33188  0.08851  1.0000
  C   C124      1.0  0.34782  0.35713  0.07006  1.0000
  C   C125      1.0  0.04858  0.99089  0.17022  1.0000
  H   H94       1.0  0.15807  0.99600  0.03822  1.0000
  C   C126      1.0  0.36291  0.34281  0.09195  1.0000
  C   C127      1.0  0.40958  0.40469  0.21426  1.0000
  C   C128      1.0  0.37487  0.26683  0.03456  1.0000
  C   C129      1.0  0.11466  0.99080  0.11711  1.0000
  P   P4        1.0  0.37621  0.09379  0.20603  1.0000
  H   H95       1.0  0.08869  0.06570  0.00276  1.0000
  H   H96       1.0  0.41832  0.33547  0.00836  1.0000
  H   H97       1.0  0.39432  0.06447  0.25696  1.0000
  C   C130      1.0  0.22514  0.97587  0.13627  1.0000
  C   C131      1.0  0.02703  0.03193  0.20860  1.0000
  C   C132      1.0  0.43905  0.10073  0.21177  1.0000
  C   C133      1.0  0.35576  0.05919  0.20827  1.0000
  H   H98       1.0  0.01570  0.16347  0.19729  1.0000
  H   H99       1.0  0.99915  0.46695  0.16990  1.0000
  C   C134      1.0  0.37118  0.03241  0.20580  1.0000
  H   H100      1.0  0.35306  0.33869  0.28451  1.0000
  C   C135      1.0  0.42315  0.35112  0.18822  1.0000
  H   H101      1.0  0.15570  0.08762  0.00785  1.0000
  C   C136      1.0  0.22349  0.99642  0.08133  1.0000
  H   H102      1.0  0.36361  0.39547  0.20070  1.0000
  H   H103      1.0  0.00135  0.16198  0.24681  1.0000
  H   H104      1.0  0.43496  0.43295  0.07315  1.0000
  C   C137      1.0  0.22274  0.11342  0.29177  1.0000
  H   H105      1.0  0.21738  0.12431  0.24842  1.0000
  C   C138      1.0  0.24953  0.15325  0.26958  1.0000
  H   H106      1.0  0.25355  0.16631  0.25127  1.0000
  C   C139      1.0  0.32061  0.02515  0.02019  1.0000
  C   C140      1.0  0.41709  0.28834  0.01081  1.0000
  C   C141      1.0  0.26041  0.01584  0.03489  1.0000
  H   H107      1.0  0.03568  0.04814  0.02784  1.0000
  C   C142      1.0  0.47659  0.38517  0.09174  1.0000
  C   C143      1.0  0.26460  0.16013  0.29480  1.0000
  H   H108      1.0  0.31715  0.30595  0.30631  1.0000
  C   C144      1.0  0.19817  0.98231  0.09236  1.0000
  C   C145      1.0  0.31164  0.99807  0.03108  1.0000
  C   C146      1.0  0.98867  0.03543  0.02632  1.0000
  C   C147      1.0  0.32658  0.39291  0.00361  1.0000
  S   S21       1.0  0.21279  0.27680  0.31045  1.0000
  H   H109      1.0  0.05690  0.97515  0.15518  1.0000
  C   C148      1.0  0.31812  0.34038  0.99628  1.0000
  C   C149      1.0  0.46976  0.34375  0.26021  1.0000
  H   H110      1.0  0.32308  0.31764  0.00087  1.0000
  H   H111      1.0  0.46775  0.32773  0.04581  1.0000
  C   C150      1.0  0.46699  0.09615  0.22513  1.0000
  H   H112      1.0  0.36218  0.24761  0.31448  1.0000
  S   S22       1.0  0.42205  0.19289  0.31191  1.0000
  H   H113      1.0  0.17737  0.97971  0.08039  1.0000
  H   H114      1.0  0.98532  0.04262  0.00510  1.0000
  C   C151      1.0  0.46867  0.08021  0.24983  1.0000
  H   H115      1.0  0.99032  0.00098  0.21371  1.0000
  H   H116      1.0  0.39222  0.38325  0.98802  1.0000
  H   H117      1.0  0.21943  0.99712  0.31696  1.0000
  C   C152      1.0  0.47586  0.34194  0.28882  1.0000
  H   H118      1.0  0.32798  0.98079  0.03414  1.0000
  C   C153      1.0  0.23753  0.12044  0.31724  1.0000
  H   H119      1.0  0.47830  0.29358  0.22847  1.0000
  H   H120      1.0  0.47801  0.24418  0.20665  1.0000
  Fe  Fe9       1.0  0.44740  0.10328  0.36937  1.0000
  S   S23       1.0  0.40360  0.08050  0.37781  1.0000
  Fe  Fe10      1.0  0.38501  0.12576  0.38411  1.0000
  S   S24       1.0  0.35920  0.13483  0.42294  1.0000
  S   S25       1.0  0.42974  0.14831  0.37936  1.0000
  H   H121      1.0  0.33489  0.21450  0.49486  1.0000
  H   H122      1.0  0.38598  0.29121  0.39261  1.0000
  Fe  Fe11      1.0  0.23223  0.23505  0.37918  1.0000
  S   S26       1.0  0.18674  0.25406  0.37072  1.0000
  S   S27       1.0  0.24111  0.21155  0.41951  1.0000
  C   C154      1.0  0.21728  0.18799  0.53037  1.0000
  Fe  Fe12      1.0  0.21184  0.29341  0.35504  1.0000
  S   S28       1.0  0.20088  0.34001  0.36925  1.0000
  S   S29       1.0  0.25752  0.27552  0.36670  1.0000
  Fe  Fe13      1.0  0.07848  0.39205  0.47277  1.0000
  S   S30       1.0  0.03464  0.41557  0.46649  1.0000
  S   S31       1.0  0.08871  0.35057  0.44835  1.0000
  Fe  Fe14      1.0  0.09778  0.43083  0.52215  1.0000
  S   S32       1.0  0.05599  0.45842  0.52012  1.0000
  P   P5        1.0  0.22823  0.10135  0.34865  1.0000
  Fe  Fe15      1.0  0.03147  0.41520  0.51307  1.0000
  C   C155      1.0  0.00336  0.30432  0.55424  1.0000
  C   C156      1.0  0.21022  0.45679  0.48731  1.0000
  C   C157      1.0  0.43275  0.37776  0.35510  1.0000
  S   S33       1.0  0.07265  0.38772  0.51875  1.0000
  S   S34       1.0  0.10648  0.43353  0.47638  1.0000
  C   C158      1.0  0.19997  0.24045  0.50406  1.0000
  C   C159      1.0  0.22312  0.04229  0.33102  1.0000
  C   C160      1.0  0.02660  0.32473  0.50433  1.0000
  H   H123      1.0  0.22343  0.21479  0.56749  1.0000
  C   C161      1.0  0.03616  0.26094  0.59787  1.0000
  C   C162      1.0  0.98706  0.47114  0.37683  1.0000
  C   C163      1.0  0.08375  0.25645  0.55677  1.0000
  C   C164      1.0  0.28732  0.08154  0.35138  1.0000
  H   H124      1.0  0.03405  0.36107  0.61359  1.0000
  H   H125      1.0  0.03449  0.38786  0.56896  1.0000
  C   C165      1.0  0.16932  0.34353  0.39070  1.0000
  C   C166      1.0  0.14662  0.32187  0.39043  1.0000
  C   C167      1.0  0.12181  0.32481  0.40771  1.0000
  C   C168      1.0  0.11957  0.34912  0.42584  1.0000
  C   C169      1.0  0.14204  0.37112  0.42593  1.0000
  C   C170      1.0  0.16677  0.36840  0.40827  1.0000
  H   H126      1.0  0.14769  0.30320  0.37630  1.0000
  H   H127      1.0  0.10399  0.30836  0.40666  1.0000
  H   H128      1.0  0.14034  0.39018  0.43951  1.0000
  H   H129      1.0  0.18401  0.38549  0.40829  1.0000
  C   C171      1.0  0.32570  0.15507  0.42045  1.0000
  C   C172      1.0  0.31571  0.16771  0.39547  1.0000
  C   C173      1.0  0.28975  0.18523  0.39491  1.0000
  C   C174      1.0  0.27338  0.18948  0.41917  1.0000
  C   C175      1.0  0.28301  0.17621  0.44390  1.0000
  C   C176      1.0  0.30911  0.15916  0.44456  1.0000
  H   H130      1.0  0.32806  0.16429  0.37665  1.0000
  H   H131      1.0  0.28256  0.19548  0.37573  1.0000
  H   H132      1.0  0.27044  0.17937  0.46266  1.0000
  H   H133      1.0  0.31666  0.14929  0.46386  1.0000
  H   H134      1.0  0.16373  0.08484  0.34900  1.0000
  C   C177      1.0  0.10237  0.35910  0.59533  1.0000
  H   H135      1.0  0.06873  0.30703  0.51845  1.0000
  C   C178      1.0  0.08037  0.30962  0.59240  1.0000
  H   H136      1.0  0.19649  0.21296  0.46668  1.0000
  H   H137      1.0  0.14105  0.31618  0.56887  1.0000
  C   C179      1.0  0.33810  0.34258  0.36623  1.0000
  H   H138      1.0  0.99402  0.29753  0.57379  1.0000
  P   P6        1.0  0.19059  0.27449  0.48658  1.0000
  C   C180      1.0  0.22120  0.28525  0.46472  1.0000
  C   C181      1.0  0.15724  0.26790  0.46459  1.0000
  C   C182      1.0  0.15943  0.25117  0.43990  1.0000
  C   C183      1.0  0.13362  0.24394  0.42373  1.0000
  C   C184      1.0  0.10548  0.25396  0.43166  1.0000
  C   C185      1.0  0.10321  0.27180  0.45544  1.0000
  C   C186      1.0  0.12894  0.27892  0.47174  1.0000
  C   C187      1.0  0.21736  0.30859  0.44611  1.0000
  C   C188      1.0  0.24143  0.31816  0.43017  1.0000
  C   C189      1.0  0.26903  0.30377  0.43183  1.0000
  C   C190      1.0  0.27276  0.27999  0.44972  1.0000
  C   C191      1.0  0.24909  0.27096  0.46639  1.0000
  C   C192      1.0  0.18395  0.30319  0.51231  1.0000
  C   C193      1.0  0.16266  0.29845  0.53292  1.0000
  C   C194      1.0  0.98573  0.35607  0.61373  1.0000
  C   C195      1.0  0.17322  0.34702  0.55274  1.0000
  C   C196      1.0  0.19499  0.35172  0.53275  1.0000
  C   C197      1.0  0.20051  0.32988  0.51271  1.0000
  H   H139      1.0  0.18117  0.24398  0.43284  1.0000
  H   H140      1.0  0.13557  0.23122  0.40460  1.0000
  H   H141      1.0  0.08566  0.24912  0.41863  1.0000
  H   H142      1.0  0.08169  0.28119  0.46059  1.0000
  H   H143      1.0  0.12639  0.29367  0.48928  1.0000
  H   H144      1.0  0.19579  0.31939  0.44392  1.0000
  H   H145      1.0  0.23842  0.33622  0.41590  1.0000
  H   H146      1.0  0.28716  0.31038  0.41849  1.0000
  H   H147      1.0  0.29368  0.26796  0.45007  1.0000
  H   H148      1.0  0.25252  0.25232  0.47986  1.0000
  H   H149      1.0  0.14996  0.27797  0.53318  1.0000
  C   C198      1.0  0.01333  0.38094  0.57747  1.0000
  H   H150      1.0  0.16865  0.36419  0.56796  1.0000
  H   H151      1.0  0.20750  0.37244  0.53276  1.0000
  H   H152      1.0  0.21773  0.33401  0.49772  1.0000
  H   H153      1.0  0.05666  0.25104  0.51866  1.0000
  H   H154      1.0  0.21099  0.16743  0.48983  1.0000
  C   C199      1.0  0.15742  0.32017  0.55306  1.0000
  C   C200      1.0  0.09325  0.30367  0.61876  1.0000
  H   H155      1.0  0.44378  0.11049  0.52894  1.0000
  H   H156      1.0  0.15221  0.17368  0.41386  1.0000
  C   C201      1.0  0.08488  0.33766  0.58098  1.0000
  C   C202      1.0  0.42150  0.05770  0.48172  1.0000
  Fe  Fe16      1.0  0.41620  0.14994  0.33409  1.0000
  C   C203      1.0  0.40772  0.36080  0.34597  1.0000
  C   C204      1.0  0.18156  0.41079  0.48934  1.0000
  C   C205      1.0  0.20202  0.39714  0.47192  1.0000
  C   C206      1.0  0.22681  0.41305  0.46245  1.0000
  H   H157      1.0  0.03576  0.33326  0.48527  1.0000
  C   C207      1.0  0.39626  0.18462  0.46501  1.0000
  H   H158      1.0  0.00476  0.19267  0.60715  1.0000
  S   S35       1.0  0.98614  0.40698  0.53204  1.0000
  H   H159      1.0  0.14957  0.22015  0.56941  1.0000
  Fe  Fe17      1.0  0.39235  0.08746  0.33258  1.0000
  C   C208      1.0  0.03369  0.29928  0.54830  1.0000
  C   C209      1.0  0.28529  0.35013  0.35453  1.0000
  H   H160      1.0  0.16215  0.39854  0.49654  1.0000
  H   H161      1.0  0.19829  0.37438  0.46532  1.0000
  H   H162      1.0  0.24240  0.40247  0.44863  1.0000
  C   C210      1.0  0.47014  0.04355  0.41554  1.0000
  H   H163      1.0  0.20946  0.26098  0.54453  1.0000
  C   C211      1.0  0.29488  0.09011  0.40876  1.0000
  C   C212      1.0  0.31795  0.07764  0.39353  1.0000
  C   C213      1.0  0.20737  0.01601  0.32478  1.0000
  Fe  Fe18      1.0  0.06200  0.45696  0.47379  1.0000
  C   C214      1.0  0.26362  0.09337  0.36656  1.0000
  C   C215      1.0  0.26800  0.09837  0.39535  1.0000
  H   H164      1.0  0.42562  0.11786  0.44050  1.0000
  H   H165      1.0  0.16735  0.18988  0.36708  1.0000
  H   H166      1.0  0.02787  0.44967  0.58000  1.0000
  C   C216      1.0  0.16638  0.15975  0.40142  1.0000
  H   H167      1.0  0.29838  0.09436  0.43086  1.0000
  C   C217      1.0  0.17510  0.16905  0.37520  1.0000
  H   H168      1.0  0.35977  0.20017  0.33834  1.0000
  C   C218      1.0  0.41950  0.07494  0.45788  1.0000
  C   C219      1.0  0.39969  0.18045  0.51522  1.0000
  H   H169      1.0  0.33243  0.06454  0.35290  1.0000
  C   C220      1.0  0.42745  0.10489  0.45926  1.0000
  H   H170      1.0  0.07753  0.42748  0.57849  1.0000
  H   H171      1.0  0.12834  0.36974  0.63272  1.0000
  C   C221      1.0  0.20432  0.12450  0.36941  1.0000
  C   C222      1.0  0.19418  0.11462  0.39518  1.0000
  C   C223      1.0  0.43451  0.31616  0.35757  1.0000
  C   C224      1.0  0.43736  0.11787  0.48464  1.0000
  H   H172      1.0  0.43141  0.05729  0.52578  1.0000
  H   H173      1.0  0.11021  0.42506  0.62111  1.0000
  H   H174      1.0  0.03006  0.29812  0.62584  1.0000
  H   H175      1.0  0.27021  0.14971  0.33806  1.0000
  C   C225      1.0  0.34113  0.32546  0.34188  1.0000
  H   H176      1.0  0.45204  0.00768  0.43912  1.0000
  H   H177      1.0  0.25137  0.10928  0.40756  1.0000
  C   C226      1.0  0.09719  0.22607  0.51690  1.0000
  C   C227      1.0  0.98625  0.38749  0.56355  1.0000
  P   P7        1.0  0.44746  0.15661  0.48623  1.0000
  C   C228      1.0  0.07722  0.24524  0.52979  1.0000
  H   H178      1.0  0.26357  0.35931  0.35941  1.0000
  H   H179      1.0  0.07494  0.34323  0.56106  1.0000
  H   H180      1.0  0.41185  0.06506  0.43825  1.0000
  C   C229      1.0  0.04144  0.44889  0.59903  1.0000
  H   H181      1.0  0.33905  0.07200  0.40388  1.0000
  H   H182      1.0  0.36231  0.19804  0.53758  1.0000
  Fe  Fe19      1.0  0.19123  0.23580  0.32745  1.0000
  H   H183      1.0  0.98236  0.34226  0.49635  1.0000
  H   H184      1.0  0.16900  0.45106  0.50973  1.0000
  C   C230      1.0  0.20857  0.24065  0.53248  1.0000
  H   H185      1.0  0.22415  0.16778  0.54041  1.0000
  C   C231      1.0  0.43779  0.10074  0.50883  1.0000
  C   C232      1.0  0.37557  0.27287  0.35157  1.0000
  C   C233      1.0  0.43039  0.07064  0.50725  1.0000
  H   H186      1.0  0.28506  0.07859  0.32906  1.0000
  C   C234      1.0  0.18556  0.44051  0.49691  1.0000
  C   C235      1.0  0.23099  0.44278  0.47013  1.0000
  C   C236      1.0  0.17566  0.13238  0.41130  1.0000
  C   C237      1.0  0.45947  0.33318  0.36677  1.0000
  P   P8        1.0  0.37654  0.30812  0.33453  1.0000
  H   H187      1.0  0.30794  0.36811  0.39123  1.0000
  H   H188      1.0  0.10595  0.38050  0.58608  1.0000
  P   P9        1.0  0.05824  0.28159  0.57352  1.0000
  H   H189      1.0  0.44929  0.04713  0.40414  1.0000
  H   H190      1.0  0.35630  0.20524  0.44853  1.0000
  C   C238      1.0  0.21683  0.21446  0.54560  1.0000
  H   H191      1.0  0.99076  0.44866  0.38333  1.0000
  C   C239      1.0  0.11510  0.35296  0.62148  1.0000
  H   H192      1.0  0.41595  0.03433  0.48038  1.0000
  C   C240      1.0  0.04863  0.45724  0.64870  1.0000
  C   C241      1.0  0.36741  0.24705  0.33662  1.0000
  H   H193      1.0  0.41101  0.17268  0.53394  1.0000
  H   H194      1.0  0.43217  0.40161  0.35384  1.0000
  H   H195      1.0  0.09225  0.21796  0.49590  1.0000
  C   C242      1.0  0.20114  0.21376  0.48886  1.0000
  H   H196      1.0  0.24710  0.04301  0.32783  1.0000
  C   C243      1.0  0.19382  0.15147  0.35918  1.0000
  H   H197      1.0  0.40445  0.17956  0.44445  1.0000
  H   H198      1.0  0.16536  0.45619  0.60522  1.0000
  C   C244      1.0  0.36880  0.19909  0.46723  1.0000
  H   H199      1.0  0.03578  0.22009  0.57387  1.0000
  C   C245      1.0  0.04519  0.30970  0.52318  1.0000
  C   C246      1.0  0.17621  0.01435  0.32799  1.0000
  C   C247      1.0  0.12949  0.22736  0.55827  1.0000
  C   C248      1.0  0.20967  0.18771  0.50197  1.0000
  H   H200      1.0  0.38807  0.37173  0.33735  1.0000
  C   C249      1.0  0.08793  0.43443  0.62219  1.0000
  H   H201      1.0  0.35705  0.34599  0.38062  1.0000
  H   H202      1.0  0.13878  0.20234  0.52104  1.0000
  C   C250      1.0  0.36585  0.22000  0.35019  1.0000
  C   C251      1.0  0.01072  0.21560  0.61125  1.0000
  H   H203      1.0  0.16849  0.12491  0.43141  1.0000
  H   H204      1.0  0.13644  0.03815  0.33886  1.0000
  C   C252      1.0  0.31427  0.07360  0.36481  1.0000
  C   C253      1.0  0.16069  0.03922  0.33694  1.0000
  C   C254      1.0  0.40823  0.32992  0.34767  1.0000
  H   H205      1.0  0.43589  0.29229  0.35785  1.0000
  C   C255      1.0  0.10983  0.24694  0.57106  1.0000
  C   C256      1.0  0.38089  0.27139  0.38050  1.0000
  H   H206      1.0  0.38439  0.24298  0.41612  1.0000
  S   S36       1.0  0.43777  0.10701  0.32337  1.0000
  H   H207      1.0  0.37200  0.19729  0.38895  1.0000
  H   H208      1.0  0.11500  0.25441  0.59213  1.0000
  C   C257      1.0  0.37205  0.19472  0.51736  1.0000
  C   C258      1.0  0.37980  0.24419  0.39393  1.0000
  S   S37       1.0  0.13400  0.43280  0.55613  1.0000
  C   C259      1.0  0.37257  0.21845  0.37871  1.0000
  C   C260      1.0  0.12337  0.21723  0.53107  1.0000
  H   H209      1.0  0.08966  0.28246  0.62836  1.0000
  H   H210      1.0  0.20071  0.09318  0.40280  1.0000
  C   C261      1.0  0.41223  0.17574  0.48903  1.0000
  C   C262      1.0  0.02838  0.23121  0.59251  1.0000
  C   C263      1.0  0.35664  0.20409  0.49336  1.0000
  C   C264      1.0  0.45855  0.36397  0.36565  1.0000
  C   C265      1.0  0.17635  0.06568  0.34283  1.0000
  H   H211      1.0  0.45746  0.21064  0.51966  1.0000
  C   C266      1.0  0.06978  0.43610  0.59808  1.0000
  C   C267      1.0  0.31029  0.35501  0.37242  1.0000
  S   S38       1.0  0.23458  0.21354  0.33738  1.0000
  C   C268      1.0  0.20785  0.06730  0.34044  1.0000
  C   C269      1.0  0.01304  0.36561  0.60264  1.0000
  S   S39       1.0  0.36970  0.13080  0.33957  1.0000
  C   C270      1.0  0.11044  0.32529  0.63324  1.0000
  C   C271      1.0  0.00052  0.22964  0.63528  1.0000
  H   H212      1.0  0.19963  0.15900  0.33869  1.0000
  C   C272      1.0  0.31572  0.32014  0.32446  1.0000
  C   C273      1.0  0.02526  0.27497  0.62172  1.0000
  C   C274      1.0  0.03091  0.46020  0.62421  1.0000
  C   C275      1.0  0.00778  0.25932  0.64044  1.0000
  H   H213      1.0  0.98675  0.21771  0.64985  1.0000
  H   H214      1.0  0.45204  0.21294  0.45725  1.0000
  H   H215      1.0  0.22954  0.46937  0.59375  1.0000
  H   H216      1.0  0.21421  0.45869  0.54508  1.0000
  C   C276      1.0  0.99649  0.32968  0.51047  1.0000
  C   C277      1.0  0.47182  0.02106  0.43525  1.0000
  S   S40       1.0  0.98679  0.33724  0.64555  1.0000
  C   C278      1.0  0.28803  0.33269  0.33056  1.0000
  H   H217      1.0  0.16406  0.99398  0.32298  1.0000
  C   C279      1.0  0.98485  0.31928  0.53528  1.0000
  H   H218      1.0  0.24997  0.45483  0.46205  1.0000
  C   C280      1.0  0.46575  0.19702  0.44661  1.0000
  C   C281      1.0  0.07720  0.44465  0.64760  1.0000
  Fe  Fe20      1.0  0.25626  0.25548  0.32363  1.0000
  C   C282      1.0  0.46697  0.16763  0.45550  1.0000
  C   C283      1.0  0.14114  0.46909  0.56790  1.0000
  C   C284      1.0  0.47319  0.19424  0.52702  1.0000
  C   C285      1.0  0.47310  0.16582  0.51498  1.0000
  C   C286      1.0  0.15759  0.47450  0.59287  1.0000
  H   H219      1.0  0.47791  0.37715  0.37272  1.0000
  C   C287      1.0  0.13489  0.04458  0.83019  1.0000
  S   S41       1.0  0.47348  0.47155  0.97007  1.0000
  H   H220      1.0  0.07372  0.09990  0.83446  1.0000
  C   C288      1.0  0.10680  0.04792  0.84227  1.0000
  H   H221      1.0  0.47757  0.44749  0.90668  1.0000
  H   H222      1.0  0.29836  0.42141  0.97895  1.0000
  H   H223      1.0  0.04644  0.14396  0.81843  1.0000
  H   H224      1.0  0.06611  0.01726  0.92794  1.0000
  H   H225      1.0  0.01834  0.00924  0.96564  1.0000
  H   H226      1.0  0.08276  0.11136  0.92506  1.0000
  C   C289      1.0  0.07382  0.06425  0.92241  1.0000
  C   C290      1.0  0.13128  0.06925  0.88369  1.0000
  H   H227      1.0  0.09100  0.44278  0.66643  1.0000
  C   C291      1.0  0.01065  0.98377  0.85346  1.0000
  H   H228      1.0  0.99423  0.42243  0.65480  1.0000
  H   H229      1.0  0.13049  0.07875  0.90443  1.0000
  H   H230      1.0  0.07976  0.00010  0.88209  1.0000
  H   H231      1.0  0.02272  0.10060  0.90965  1.0000
  C   C292      1.0  0.04170  0.13458  0.83850  1.0000
  C   C293      1.0  0.01967  0.14725  0.85496  1.0000
  C   C294      1.0  0.01315  0.13504  0.88068  1.0000
  C   C295      1.0  0.02858  0.11018  0.88996  1.0000
  C   C296      1.0  0.05087  0.09740  0.87371  1.0000
  C   C297      1.0  0.05718  0.10965  0.84774  1.0000
  P   P10       1.0  0.06838  0.06358  0.88487  1.0000
  C   C298      1.0  0.08460  0.06545  0.98039  1.0000
  C   C299      1.0  0.03972  0.97955  0.86442  1.0000
  C   C300      1.0  0.08630  0.09155  0.96531  1.0000
  H   H232      1.0  0.00264  0.28228  0.84670  1.0000
  H   H233      1.0  0.17974  0.07271  0.88292  1.0000
  C   C301      1.0  0.10477  0.06015  0.86920  1.0000
  C   C302      1.0  0.07205  0.03818  0.93780  1.0000
  H   H234      1.0  0.00601  0.05805  0.86174  1.0000
  H   H235      1.0  0.27066  0.38009  0.95485  1.0000
  H   H236      1.0  0.99564  0.14445  0.89324  1.0000
  C   C303      1.0  0.15935  0.06588  0.87154  1.0000
  C   C304      1.0  0.16117  0.05349  0.84484  1.0000
  H   H237      1.0  0.08666  0.04085  0.83062  1.0000
  H   H238      1.0  0.18294  0.05070  0.83553  1.0000
  C   C305      1.0  0.99895  0.01221  0.85208  1.0000
  H   H239      1.0  0.13630  0.03489  0.80952  1.0000
  H   H240      1.0  0.42963  0.42390  0.98417  1.0000
  C   C306      1.0  0.04532  0.03237  0.87320  1.0000
  H   H241      1.0  0.99948  0.27041  0.65883  1.0000
  C   C307      1.0  0.08106  0.09096  0.93644  1.0000
  C   C308      1.0  0.29536  0.34634  0.97649  1.0000
  C   C309      1.0  0.07748  0.03885  0.96661  1.0000
  C   C310      1.0  0.98981  0.99444  0.93125  1.0000
  H   H242      1.0  0.00028  0.30450  0.79971  1.0000
  H   H243      1.0  0.28315  0.32829  0.96608  1.0000
  C   C311      1.0  0.05715  0.00377  0.87390  1.0000
  H   H244      1.0  0.00734  0.16631  0.84766  1.0000
  H   H245      1.0  0.07591  0.01866  0.97834  1.0000
  H   H246      1.0  0.98249  0.09443  0.76385  1.0000
  H   H247      1.0  0.98618  0.09848  0.71250  1.0000
  C   C312      1.0  0.28829  0.37551  0.97020  1.0000
  H   H248      1.0  0.47127  0.33285  0.94507  1.0000
  H   H249      1.0  0.00399  0.06173  0.96139  1.0000
  C   C313      1.0  0.98029  0.30341  0.81212  1.0000
  C   C314      1.0  0.99369  0.04526  0.94752  1.0000
  C   C315      1.0  0.98163  0.29104  0.83862  1.0000
  C   C316      1.0  0.30388  0.39877  0.98377  1.0000
  C   C317      1.0  0.00202  0.01562  0.94983  1.0000
  C   C318      1.0  0.01602  0.03640  0.86222  1.0000
  H   H250      1.0  0.04050  0.46475  0.66860  1.0000
  H   H251      1.0  0.09161  0.11224  0.97601  1.0000
  H   H252      1.0  0.11989  0.32068  0.65374  1.0000
  Fe  Fe21      1.0  0.01955  0.91982  0.03071  1.0000
  C   C319      1.0  0.12597  0.94832  0.18732  1.0000
  C   C320      1.0  0.10431  0.92817  0.17671  1.0000
  C   C321      1.0  0.21731  0.96439  0.00613  1.0000
  S   S42       1.0  0.06928  0.92302  0.04095  1.0000
  H   H253      1.0  0.08076  0.93208  0.18044  1.0000
  C   C322      1.0  0.06963  0.80237  0.20901  1.0000
  H   H254      1.0  0.02580  0.87941  0.17448  1.0000
  H   H255      1.0  0.02706  0.86393  0.07092  1.0000
  S   S43       1.0  0.11209  0.87305  0.98927  1.0000
  H   H256      1.0  0.02947  0.79224  0.18420  1.0000
  H   H257      1.0  0.22552  0.96858  0.15765  1.0000
  H   H258      1.0  0.15125  0.87915  0.14608  1.0000
  H   H259      1.0  0.02653  0.82006  0.10145  1.0000
  C   C323      1.0  0.04599  0.82618  0.01404  1.0000
  H   H260      1.0  0.00198  0.51665  0.14899  1.0000
  C   C324      1.0  0.00728  0.85867  0.08265  1.0000
  C   C325      1.0  0.00703  0.83399  0.10010  1.0000
  H   H261      1.0  0.98472  0.57601  0.23048  1.0000
  C   C326      1.0  0.09499  0.82086  0.21227  1.0000
  C   C327      1.0  0.17010  0.93992  0.99259  1.0000
  H   H262      1.0  0.17317  0.95973  0.19077  1.0000
  H   H263      1.0  0.17906  0.96211  0.12812  1.0000
  S   S44       1.0  0.02547  0.89909  0.98848  1.0000
  C   C328      1.0  0.99764  0.92926  0.12909  1.0000
  H   H264      1.0  0.11965  0.85763  0.19644  1.0000
  C   C329      1.0  0.98490  0.48444  0.17737  1.0000
  C   C330      1.0  0.04930  0.80646  0.18676  1.0000
  C   C331      1.0  0.04952  0.91873  0.11890  1.0000
  C   C332      1.0  0.05074  0.89800  0.14037  1.0000
  C   C333      1.0  0.02548  0.89429  0.15709  1.0000
  P   P11       1.0  0.08513  0.87782  0.14682  1.0000
  C   C334      1.0  0.07943  0.84798  0.17101  1.0000
  C   C335      1.0  0.09735  0.86349  0.11359  1.0000
  C   C336      1.0  0.09081  0.83419  0.10523  1.0000
  C   C337      1.0  0.09887  0.82389  0.07890  1.0000
  C   C338      1.0  0.11371  0.84261  0.06075  1.0000
  C   C339      1.0  0.12073  0.87161  0.06897  1.0000
  C   C340      1.0  0.11266  0.88204  0.09526  1.0000
  C   C341      1.0  0.09993  0.84357  0.19337  1.0000
  H   H265      1.0  0.05706  0.84491  0.02445  1.0000
  H   H266      1.0  0.18929  0.91487  0.16512  1.0000
  C   C342      1.0  0.98169  0.82708  0.11579  1.0000
  C   C343      1.0  0.05422  0.82905  0.16784  1.0000
  C   C344      1.0  0.11313  0.90339  0.16124  1.0000
  C   C345      1.0  0.15655  0.94363  0.18303  1.0000
  C   C346      1.0  0.16555  0.91853  0.16837  1.0000
  C   C347      1.0  0.03068  0.80510  0.02945  1.0000
  H   H267      1.0  0.01478  0.62219  0.22863  1.0000
  C   C348      1.0  0.14394  0.89845  0.15748  1.0000
  H   H268      1.0  0.03803  0.83194  0.15093  1.0000
  H   H269      1.0  0.06558  0.78493  0.22375  1.0000
  C   C349      1.0  0.02315  0.93432  0.11336  1.0000
  H   H270      1.0  0.06866  0.92258  0.10600  1.0000
  H   H271      1.0  0.11074  0.81765  0.22955  1.0000
  H   H272      1.0  0.07922  0.81920  0.11871  1.0000
  H   H273      1.0  0.09333  0.80141  0.07243  1.0000
  H   H274      1.0  0.11956  0.83481  0.04015  1.0000
  H   H275      1.0  0.13193  0.88614  0.05463  1.0000
  H   H276      1.0  0.11805  0.90473  0.10101  1.0000
  H   H277      1.0  0.13059  0.95712  0.01174  1.0000
  Fe  Fe22      1.0  0.07520  0.90606  0.99705  1.0000
  S   S45       1.0  0.98138  0.90801  0.05926  1.0000
  C   C350      1.0  0.98651  0.51243  0.16561  1.0000
  C   C351      1.0  0.99886  0.90937  0.15105  1.0000
  H   H278      1.0  0.00421  0.76497  0.02799  1.0000
  H   H279      1.0  0.11910  0.96794  0.19845  1.0000
  H   H280      1.0  0.97892  0.90501  0.16295  1.0000
  H   H281      1.0  0.02197  0.94914  0.09585  1.0000
  C   C352      1.0  0.01627  0.78111  0.01593  1.0000
  Fe  Fe23      1.0  0.06731  0.96751  0.02119  1.0000
  C   C353      1.0  0.20136  0.94267  0.99053  1.0000
  H   H282      1.0  0.02985  0.80737  0.05186  1.0000
  H   H283      1.0  0.24145  0.96582  0.00421  1.0000
  C   C354      1.0  0.98137  0.64519  0.20436  1.0000
  H   H284      1.0  0.99439  0.66559  0.20381  1.0000
  S   S46       1.0  0.01714  0.96595  0.01423  1.0000
  C   C355      1.0  0.99277  0.62076  0.21836  1.0000
  C   C356      1.0  0.15475  0.95922  0.00990  1.0000
  S   S47       1.0  0.98322  0.79619  0.13791  1.0000
  C   C357      1.0  0.98194  0.87654  0.08059  1.0000
  H   H285      1.0  0.00945  0.96466  0.17971  1.0000
  H   H286      1.0  0.10973  0.97398  0.13211  1.0000
  C   C358      1.0  0.19906  0.97205  0.11964  1.0000
  H   H287      1.0  0.08721  0.97021  0.08423  1.0000
  H   H288      1.0  0.27519  0.97255  0.04743  1.0000
  C   C359      1.0  0.01725  0.77808  0.98693  1.0000
  H   H289      1.0  0.45543  0.86385  0.63752  1.0000
  H   H290      1.0  0.07575  0.53951  0.54504  1.0000
  C   C360      1.0  0.47189  0.84755  0.59859  1.0000
  C   C361      1.0  0.01875  0.60548  0.61985  1.0000
  C   C362      1.0  0.08549  0.56905  0.62127  1.0000
  H   H291      1.0  0.99655  0.68233  0.46331  1.0000
  H   H292      1.0  0.25041  0.54788  0.41204  1.0000
  C   C363      1.0  0.44057  0.85764  0.35423  1.0000
  H   H293      1.0  0.16712  0.47971  0.45182  1.0000
  H   H294      1.0  0.32800  0.65946  0.60414  1.0000
  C   C364      1.0  0.22257  0.50331  0.53095  1.0000
  C   C365      1.0  0.47181  0.85766  0.49873  1.0000
  C   C366      1.0  0.15540  0.52719  0.58501  1.0000
  C   C367      1.0  0.23977  0.51516  0.58681  1.0000
  C   C368      1.0  0.16459  0.50364  0.60155  1.0000
  C   C369      1.0  0.12097  0.53565  0.46921  1.0000
  H   H295      1.0  0.17778  0.50787  0.62050  1.0000
  P   P12       1.0  0.99525  0.47883  0.62487  1.0000
  C   C370      1.0  0.26415  0.81907  0.64972  1.0000
  C   C371      1.0  0.23510  0.78025  0.62592  1.0000
  H   H296      1.0  0.02905  0.67795  0.51351  1.0000
  C   C372      1.0  0.99345  0.63694  0.47704  1.0000
  C   C373      1.0  0.43508  0.84910  0.38151  1.0000
  H   H297      1.0  0.21771  0.76334  0.62545  1.0000
  C   C374      1.0  0.13169  0.51091  0.45519  1.0000
  C   C375      1.0  0.04900  0.54959  0.50850  1.0000
  C   C376      1.0  0.30883  0.72301  0.63721  1.0000
  H   H298      1.0  0.09513  0.52362  0.61127  1.0000
  H   H299      1.0  0.02891  0.54119  0.41198  1.0000
  S   S48       1.0  0.16513  0.56394  0.59326  1.0000
  C   C377      1.0  0.27673  0.80400  0.60296  1.0000
  H   H300      1.0  0.13000  0.56804  0.50166  1.0000
  C   C378      1.0  0.46385  0.91006  0.49398  1.0000
  H   H301      1.0  0.24580  0.51993  0.60847  1.0000
  S   S49       1.0  0.37453  0.79260  0.62775  1.0000
  H   H302      1.0  0.24940  0.76880  0.58470  1.0000
  C   C379      1.0  0.07541  0.58634  0.53721  1.0000
  C   C380      1.0  0.45574  0.85655  0.40307  1.0000
  C   C381      1.0  0.98193  0.66485  0.47048  1.0000
  H   H303      1.0  0.07480  0.57281  0.60116  1.0000
  H   H304      1.0  0.10264  0.73496  0.49226  1.0000
  H   H305      1.0  0.11560  0.70074  0.45380  1.0000
  C   C382      1.0  0.04570  0.59830  0.38187  1.0000
  C   C383      1.0  0.01805  0.62627  0.41578  1.0000
  C   C384      1.0  0.31418  0.67554  0.61424  1.0000
  C   C385      1.0  0.24055  0.53769  0.56730  1.0000
  H   H306      1.0  0.23323  0.54953  0.52464  1.0000
  H   H307      1.0  0.24719  0.55986  0.57388  1.0000
  H   H308      1.0  0.45581  0.93081  0.50225  1.0000
  C   C386      1.0  0.07969  0.66979  0.46193  1.0000
  C   C387      1.0  0.25313  0.78325  0.60264  1.0000
  H   H309      1.0  0.29125  0.80575  0.58526  1.0000
  C   C388      1.0  0.01875  0.51114  0.44477  1.0000
  C   C389      1.0  0.46910  0.86868  0.61980  1.0000
  C   C390      1.0  0.29408  0.52579  0.46702  1.0000
  C   C391      1.0  0.46683  0.87351  0.34846  1.0000
  H   H310      1.0  0.04854  0.59099  0.36053  1.0000
  C   C392      1.0  0.13830  0.54883  0.49079  1.0000
  C   C393      1.0  0.40479  0.56033  0.59647  1.0000
  P   P13       1.0  0.21283  0.49603  0.49461  1.0000
  C   C394      1.0  0.15938  0.49892  0.46308  1.0000
  H   H311      1.0  0.02645  0.52963  0.35190  1.0000
  C   C395      1.0  0.38972  0.57721  0.57642  1.0000
  C   C396      1.0  0.17662  0.51147  0.48531  1.0000
  H   H312      1.0  0.41474  0.53955  0.59056  1.0000
  C   C397      1.0  0.01208  0.53394  0.42625  1.0000
  H   H313      1.0  0.11838  0.48877  0.53275  1.0000
  P   P14       1.0  0.03309  0.62966  0.47268  1.0000
  H   H314      1.0  0.07763  0.59152  0.44653  1.0000
  H   H315      1.0  0.38791  0.56951  0.55499  1.0000
  H   H316      1.0  0.04299  0.51942  0.64533  1.0000
  H   H317      1.0  0.00871  0.64777  0.55063  1.0000
  H   H318      1.0  0.09036  0.59187  0.55478  1.0000
  C   C398      1.0  0.06185  0.59861  0.43051  1.0000
  S   S50       1.0  0.36635  0.70692  0.62455  1.0000
  C   C399      1.0  0.99608  0.53672  0.56001  1.0000
  H   H319      1.0  0.11830  0.50071  0.43837  1.0000
  C   C400      1.0  0.02186  0.61678  0.38829  1.0000
  H   H320      1.0  0.31736  0.52603  0.47444  1.0000
  C   C401      1.0  0.40723  0.57038  0.62413  1.0000
  C   C402      1.0  0.03821  0.57179  0.49110  1.0000
  C   C403      1.0  0.27796  0.71708  0.64004  1.0000
  H   H321      1.0  0.03402  0.47860  0.36863  1.0000
  C   C404      1.0  0.37977  0.61429  0.61162  1.0000
  S   S51       1.0  0.43242  0.75480  0.65189  1.0000
  C   C405      1.0  0.00739  0.51661  0.35855  1.0000
  H   H322      1.0  0.30085  0.83766  0.62706  1.0000
  C   C406      1.0  0.13099  0.49275  0.55207  1.0000
  C   C407      1.0  0.28350  0.66933  0.61778  1.0000
  H   H323      1.0  0.13068  0.53997  0.54825  1.0000
  C   C408      1.0  0.24076  0.79790  0.64983  1.0000
  C   C409      1.0  0.47805  0.90945  0.46834  1.0000
  C   C410      1.0  0.06470  0.60861  0.51974  1.0000
  C   C411      1.0  0.13810  0.52168  0.56070  1.0000
  H   H324      1.0  0.08426  0.57498  0.39795  1.0000
  C   C412      1.0  0.23227  0.53177  0.53946  1.0000
  H   H325      1.0  0.98003  0.52992  0.51775  1.0000
  H   H326      1.0  0.02409  0.56579  0.47319  1.0000
  C   C413      1.0  0.28639  0.53845  0.44147  1.0000
  H   H327      1.0  0.45101  0.84969  0.42401  1.0000
  Fe  Fe24      1.0  0.42423  0.80008  0.63532  1.0000
  H   H328      1.0  0.00625  0.62384  0.37193  1.0000
  C   C414      1.0  0.28210  0.82202  0.62643  1.0000
  H   H329      1.0  0.09906  0.54431  0.46344  1.0000
  C   C415      1.0  0.04589  0.60148  0.49650  1.0000
  C   C416      1.0  0.03762  0.61678  0.43722  1.0000
  C   C417      1.0  0.16609  0.53686  0.49880  1.0000
  C   C418      1.0  0.13028  0.69366  0.60145  1.0000
  C   C419      1.0  0.15162  0.67757  0.58697  1.0000
  C   C420      1.0  0.14879  0.64689  0.58472  1.0000
  C   C421      1.0  0.12516  0.63222  0.59763  1.0000
  C   C422      1.0  0.10463  0.64800  0.61350  1.0000
  C   C423      1.0  0.10671  0.67898  0.61453  1.0000
  C   C424      1.0  0.97863  0.52875  0.35831  1.0000
  C   C425      1.0  0.27174  0.51290  0.48308  1.0000
  H   H330      1.0  0.08572  0.65526  0.44497  1.0000
  C   C426      1.0  0.08948  0.71488  0.48858  1.0000
  C   C427      1.0  0.25636  0.53813  0.43190  1.0000
  H   H331      1.0  0.36618  0.61777  0.56849  1.0000
  C   C428      1.0  0.04797  0.68258  0.50045  1.0000
  H   H332      1.0  0.30370  0.54850  0.42907  1.0000
  S   S52       1.0  0.05502  0.49599  0.44566  1.0000
  H   H333      1.0  0.21086  0.52527  0.44007  1.0000
  C   C429      1.0  0.01163  0.48787  0.36796  1.0000
  H   H334      1.0  0.00197  0.48431  0.47768  1.0000
  C   C430      1.0  0.22179  0.48077  0.55074  1.0000
  C   C431      1.0  0.04173  0.62475  0.61145  1.0000
  H   H335      1.0  0.27808  0.50307  0.50279  1.0000
  C   C432      1.0  0.24146  0.51278  0.47373  1.0000
  H   H336      1.0  0.41474  0.83675  0.38599  1.0000
  C   C433      1.0  0.01161  0.63605  0.56999  1.0000
  C   C434      1.0  0.03801  0.64000  0.58633  1.0000
  H   H337      1.0  0.13262  0.71746  0.60326  1.0000
  H   H338      1.0  0.17069  0.68878  0.57794  1.0000
  H   H339      1.0  0.16558  0.63424  0.57393  1.0000
  H   H340      1.0  0.12385  0.60848  0.59622  1.0000
  C   C435      1.0  0.46091  0.88422  0.50927  1.0000
  C   C436      1.0  0.23394  0.52532  0.44792  1.0000
  H   H341      1.0  0.07155  0.63119  0.52429  1.0000
  C   C437      1.0  0.99692  0.50173  0.46319  1.0000
  C   C438      1.0  0.09677  0.69560  0.46690  1.0000
  H   H342      1.0  0.04330  0.52666  0.50379  1.0000
  H   H343      1.0  0.17878  0.54718  0.51591  1.0000
  C   C439      1.0  0.06744  0.55685  0.53165  1.0000
  C   C440      1.0  0.06583  0.58940  0.40293  1.0000
  H   H344      1.0  0.99975  0.64099  0.42010  1.0000
  C   C441      1.0  0.05506  0.66315  0.47862  1.0000
  C   C442      1.0  0.37738  0.60428  0.58399  1.0000
  C   C443      1.0  0.99229  0.60181  0.60360  1.0000
  C   C444      1.0  0.06510  0.70836  0.50536  1.0000
  C   C445      1.0  0.99947  0.52440  0.58643  1.0000
  H   H345      1.0  0.05540  0.65487  0.57926  1.0000
  H   H346      1.0  0.45043  0.88483  0.52942  1.0000
  H   H347      1.0  0.05933  0.72345  0.52203  1.0000
  C   C446      1.0  0.32711  0.70190  0.62483  1.0000
  H   H348      1.0  0.00439  0.55884  0.55626  1.0000
  H   H349      1.0  0.27389  0.64850  0.61050  1.0000
  S   S53       1.0  0.45459  0.81250  0.60020  1.0000
  C   C447      1.0  0.98883  0.49562  0.59131  1.0000
  H   H350      1.0  0.37093  0.63570  0.61708  1.0000
  C   C448      1.0  0.23062  0.48669  0.57848  1.0000
  H   H351      1.0  0.01069  0.53728  0.60280  1.0000
  S   S54       1.0  0.23792  0.59450  0.63002  1.0000
  H   H352      1.0  0.42449  0.85195  0.33757  1.0000
  H   H353      1.0  0.09070  0.69175  0.62609  1.0000
  C   C449      1.0  0.98380  0.54755  0.42629  1.0000
  Fe  Fe25      1.0  0.19045  0.57749  0.63286  1.0000
  C   C450      1.0  0.26551  0.68992  0.63111  1.0000
  H   H354      1.0  0.46938  0.83763  0.51060  1.0000
  H   H355      1.0  0.31861  0.74352  0.64523  1.0000
  H   H356      1.0  0.41945  0.55742  0.63937  1.0000
  C   C451      1.0  0.98874  0.61706  0.57865  1.0000
  H   H357      1.0  0.41616  0.66573  0.64112  1.0000
  C   C452      1.0  0.39407  0.59711  0.63197  1.0000
  H   H358      1.0  0.47114  0.88010  0.32731  1.0000
  C   C453      1.0  0.08896  0.59216  0.64101  1.0000
  P   P15       1.0  0.07595  0.62879  0.63253  1.0000
  C   C454      1.0  0.09693  0.54108  0.62692  1.0000
  H   H359      1.0  0.46361  0.69447  0.64245  1.0000
  S   S55       1.0  0.22779  0.68156  0.63782  1.0000
  C   C455      1.0  0.99644  0.50725  0.65177  1.0000
  Fe  Fe26      1.0  0.38247  0.74849  0.64672  1.0000
  C   C456      1.0  0.11174  0.53586  0.65237  1.0000
  H   H360      1.0  0.97894  0.56540  0.41220  1.0000
  C   C457      1.0  0.43535  0.65756  0.65302  1.0000
  H   H361      1.0  0.02125  0.59345  0.63908  1.0000
  H   H362      1.0  0.98102  0.59223  0.48839  1.0000
  C   C458      1.0  0.98249  0.52030  0.53818  1.0000
  H   H363      1.0  0.26398  0.73289  0.65031  1.0000
  Fe  Fe27      1.0  0.22117  0.63485  0.65162  1.0000
  S   S56       1.0  0.17333  0.61931  0.65169  1.0000
  Fe  Fe28      1.0  0.43551  0.59521  0.85997  1.0000
  S   S57       1.0  0.43310  0.57389  0.81742  1.0000
  H   H364      1.0  0.15775  0.92282  0.98082  1.0000
  Fe  Fe29      1.0  0.39083  0.64305  0.84304  1.0000
  S   S58       1.0  0.38519  0.62576  0.79917  1.0000
  S   S59       1.0  0.37219  0.68713  0.85583  1.0000
  Fe  Fe30      1.0  0.38309  0.58149  0.81901  1.0000
  S   S60       1.0  0.35008  0.54598  0.80363  1.0000
  Fe  Fe31      1.0  0.43513  0.61996  0.80090  1.0000
  C   C459      1.0  0.03262  0.79920  0.97130  1.0000
  S   S61       1.0  0.38510  0.59901  0.86337  1.0000
  S   S62       1.0  0.44128  0.64091  0.84299  1.0000
  Fe  Fe32      1.0  0.42247  0.77418  0.69367  1.0000
  C   C460      1.0  0.38172  0.84430  0.74714  1.0000
  S   S63       1.0  0.37302  0.76335  0.69051  1.0000
  Fe  Fe33      1.0  0.24444  0.57659  0.67326  1.0000
  S   S64       1.0  0.23199  0.61871  0.69468  1.0000
  S   S65       1.0  0.28607  0.55046  0.68391  1.0000
  C   C461      1.0  0.36545  0.75098  0.77268  1.0000
  H   H365      1.0  0.26941  0.83248  0.66812  1.0000
  Fe  Fe34      1.0  0.18518  0.59970  0.69280  1.0000
  S   S66       1.0  0.15465  0.60672  0.72881  1.0000
  H   H366      1.0  0.32150  0.80748  0.81851  1.0000
  S   S67       1.0  0.19797  0.55585  0.67432  1.0000
  Fe  Fe35      1.0  0.21722  0.75660  0.84941  1.0000
  S   S68       1.0  0.22125  0.80541  0.85826  1.0000
  S   S69       1.0  0.23756  0.72197  0.87733  1.0000
  Fe  Fe36      1.0  0.17932  0.76405  0.79700  1.0000
  S   S70       1.0  0.18092  0.81346  0.80080  1.0000
  S   S71       1.0  0.15381  0.74243  0.76062  1.0000
  Fe  Fe37      1.0  0.22987  0.80825  0.81231  1.0000
  S   S72       1.0  0.26587  0.84033  0.79831  1.0000
  Fe  Fe38      1.0  0.17208  0.80698  0.84625  1.0000
  S   S73       1.0  0.13571  0.83660  0.86341  1.0000
  S   S74       1.0  0.22910  0.75946  0.80446  1.0000
  S   S75       1.0  0.16698  0.75771  0.84142  1.0000
  S   S76       1.0  0.47136  0.58436  0.89291  1.0000
  C   C462      1.0  0.10294  0.76137  0.88906  1.0000
  C   C463      1.0  0.31150  0.63876  0.67512  1.0000
  C   C464      1.0  0.00620  0.76955  0.92095  1.0000
  H   H367      1.0  0.34827  0.75124  0.90321  1.0000
  C   C465      1.0  0.13155  0.84783  0.89854  1.0000
  C   C466      1.0  0.14915  0.83651  0.92041  1.0000
  C   C467      1.0  0.14330  0.84465  0.94819  1.0000
  C   C468      1.0  0.11996  0.86421  0.95423  1.0000
  C   C469      1.0  0.10300  0.87616  0.93230  1.0000
  C   C470      1.0  0.10902  0.86819  0.90463  1.0000
  H   H368      1.0  0.16680  0.82106  0.91593  1.0000
  C   C471      1.0  0.18544  0.77241  0.67474  1.0000
  H   H369      1.0  0.08509  0.89139  0.93662  1.0000
  H   H370      1.0  0.09601  0.87769  0.88777  1.0000
  C   C472      1.0  0.15828  0.70427  0.75490  1.0000
  C   C473      1.0  0.17209  0.69456  0.73066  1.0000
  C   C474      1.0  0.17171  0.66459  0.72314  1.0000
  C   C475      1.0  0.15722  0.64395  0.73970  1.0000
  C   C476      1.0  0.14363  0.65344  0.76421  1.0000
  C   C477      1.0  0.14407  0.68359  0.77175  1.0000
  H   H371      1.0  0.18238  0.71028  0.71712  1.0000
  H   H372      1.0  0.18180  0.65775  0.70395  1.0000
  H   H373      1.0  0.13231  0.63759  0.77707  1.0000
  H   H374      1.0  0.13264  0.69097  0.79014  1.0000
  C   C478      1.0  0.21439  0.82658  0.69890  1.0000
  H   H375      1.0  0.41555  0.73440  0.82503  1.0000
  C   C479      1.0  0.31403  0.83888  0.71500  1.0000
  C   C480      1.0  0.29754  0.86335  0.72347  1.0000
  C   C481      1.0  0.28258  0.86319  0.74878  1.0000
  C   C482      1.0  0.28239  0.83796  0.76528  1.0000
  C   C483      1.0  0.29824  0.81303  0.75658  1.0000
  C   C484      1.0  0.31461  0.81378  0.73175  1.0000
  H   H376      1.0  0.29712  0.88291  0.71082  1.0000
  H   H377      1.0  0.27101  0.88274  0.75561  1.0000
  H   H378      1.0  0.29879  0.79366  0.76949  1.0000
  C   C485      1.0  0.33040  0.54923  0.77131  1.0000
  C   C486      1.0  0.32729  0.57618  0.75753  1.0000
  C   C487      1.0  0.31220  0.57717  0.73128  1.0000
  C   C488      1.0  0.30071  0.55117  0.71854  1.0000
  C   C489      1.0  0.30380  0.52441  0.73245  1.0000
  C   C490      1.0  0.31798  0.52355  0.75887  1.0000
  H   H379      1.0  0.33653  0.59618  0.76698  1.0000
  H   H380      1.0  0.31038  0.59787  0.72056  1.0000
  H   H381      1.0  0.29542  0.50418  0.72265  1.0000
  H   H382      1.0  0.32025  0.50267  0.76932  1.0000
  C   C491      1.0  0.33307  0.69179  0.85834  1.0000
  C   C492      1.0  0.31843  0.71177  0.84077  1.0000
  C   C493      1.0  0.28866  0.72010  0.84568  1.0000
  C   C494      1.0  0.27352  0.70904  0.86856  1.0000
  C   C495      1.0  0.28791  0.68844  0.88572  1.0000
  C   C496      1.0  0.31756  0.67970  0.88055  1.0000
  H   H383      1.0  0.33055  0.72183  0.82403  1.0000
  H   H384      1.0  0.27824  0.73638  0.83265  1.0000
  H   H385      1.0  0.27646  0.67996  0.90358  1.0000
  H   H386      1.0  0.32901  0.66484  0.89460  1.0000
  C   C497      1.0  0.12307  0.77169  0.93551  1.0000
  C   C498      1.0  1.00000  0.87822  0.92064  1.0000
  S   S77       1.0  0.07668  0.95088  0.97797  1.0000
  H   H387      1.0  0.05885  0.83975  0.97334  1.0000
  C   C499      1.0  0.45562  0.81646  0.86645  1.0000
  H   H388      1.0  0.12138  0.51444  0.65640  1.0000
  C   C500      1.0  0.40356  0.56516  0.73989  1.0000
  H   H389      1.0  0.41637  0.60807  0.72594  1.0000
  H   H390      1.0  0.45869  0.82675  0.88684  1.0000
  H   H391      1.0  0.38640  0.75894  0.86757  1.0000
  C   C501      1.0  0.20308  0.88083  0.72528  1.0000
  H   H392      1.0  0.43208  0.66102  0.71862  1.0000
  C   C502      1.0  0.18086  0.55832  0.77791  1.0000
  C   C503      1.0  0.19722  0.54191  0.75883  1.0000
  C   C504      1.0  0.22846  0.54556  0.75790  1.0000
  C   C505      1.0  0.24332  0.56578  0.77591  1.0000
  C   C506      1.0  0.22704  0.58272  0.79487  1.0000
  C   C507      1.0  0.19565  0.57870  0.79584  1.0000
  P   P16       1.0  0.24618  0.61093  0.81599  1.0000
  C   C508      1.0  0.21894  0.63639  0.82926  1.0000
  C   C509      1.0  0.26849  0.59546  0.84411  1.0000
  C   C510      1.0  0.27369  0.61179  0.86890  1.0000
  C   C511      1.0  0.29343  0.60145  0.88963  1.0000
  C   C512      1.0  0.30832  0.57482  0.88571  1.0000
  C   C513      1.0  0.30334  0.55847  0.86112  1.0000
  C   C514      1.0  0.28357  0.56873  0.84036  1.0000
  C   C515      1.0  0.21286  0.66279  0.81536  1.0000
  C   C516      1.0  0.19196  0.68248  0.82586  1.0000
  C   C517      1.0  0.17683  0.67599  0.85019  1.0000
  C   C518      1.0  0.18239  0.64956  0.86394  1.0000
  C   C519      1.0  0.20324  0.62970  0.85343  1.0000
  C   C520      1.0  0.27133  0.63106  0.79416  1.0000
  C   C521      1.0  0.26414  0.63438  0.76577  1.0000
  C   C522      1.0  0.28414  0.64900  0.74862  1.0000
  C   C523      1.0  0.31122  0.66067  0.75967  1.0000
  C   C524      1.0  0.31764  0.65902  0.78820  1.0000
  C   C525      1.0  0.29794  0.64401  0.80540  1.0000
  H   H393      1.0  0.15654  0.55620  0.77799  1.0000
  H   H394      1.0  0.18562  0.52685  0.74435  1.0000
  H   H395      1.0  0.24112  0.53327  0.74277  1.0000
  H   H396      1.0  0.26742  0.56889  0.77442  1.0000
  H   H397      1.0  0.18232  0.59190  0.80965  1.0000
  H   H398      1.0  0.26342  0.63310  0.87181  1.0000
  H   H399      1.0  0.29790  0.61460  0.90833  1.0000
  H   H400      1.0  0.32437  0.56725  0.90136  1.0000
  H   H401      1.0  0.31574  0.53837  0.85756  1.0000
  H   H402      1.0  0.28120  0.55624  0.82109  1.0000
  H   H403      1.0  0.22426  0.66850  0.79652  1.0000
  H   H404      1.0  0.18781  0.70295  0.81518  1.0000
  H   H405      1.0  0.16117  0.69169  0.85858  1.0000
  H   H406      1.0  0.17088  0.64471  0.88296  1.0000
  H   H407      1.0  0.20738  0.60930  0.86428  1.0000
  H   H408      1.0  0.24314  0.62561  0.75687  1.0000
  H   H409      1.0  0.27858  0.65110  0.72674  1.0000
  H   H410      1.0  0.32695  0.67137  0.74621  1.0000
  H   H411      1.0  0.33796  0.66921  0.79716  1.0000
  H   H412      1.0  0.30366  0.64260  0.82738  1.0000
  C   C526      1.0  0.36519  0.72387  0.75847  1.0000
  C   C527      1.0  0.38320  0.70089  0.76800  1.0000
  C   C528      1.0  0.40119  0.70489  0.79204  1.0000
  H   H413      1.0  0.35103  0.72068  0.74014  1.0000
  H   H414      1.0  0.38318  0.67989  0.75695  1.0000
  H   H415      1.0  0.41466  0.68694  0.79992  1.0000
  C   C529      1.0  0.24604  0.73263  0.74114  1.0000
  C   C530      1.0  0.27676  0.72926  0.73690  1.0000
  C   C531      1.0  0.29064  0.74474  0.71573  1.0000
  C   C532      1.0  0.27405  0.76416  0.69923  1.0000
  C   C533      1.0  0.24322  0.76798  0.70360  1.0000
  C   C534      1.0  0.22949  0.75242  0.72499  1.0000
  H   H416      1.0  0.23503  0.72015  0.75714  1.0000
  H   H417      1.0  0.28976  0.71502  0.75030  1.0000
  H   H418      1.0  0.31433  0.74217  0.71215  1.0000
  H   H419      1.0  0.39858  0.80128  0.75623  1.0000
  H   H420      1.0  0.20590  0.75554  0.72910  1.0000
  C   C535      1.0  0.45856  0.62086  0.68255  1.0000
  C   C536      1.0  0.34404  0.67981  0.68900  1.0000
  C   C537      1.0  0.03335  0.86804  0.88285  1.0000
  C   C538      1.0  0.40183  0.73203  0.80613  1.0000
  C   C539      1.0  0.20932  0.85595  0.74116  1.0000
  H   H421      1.0  0.32788  0.79515  0.72565  1.0000
  H   H422      1.0  0.00593  0.75934  0.97693  1.0000
  C   C540      1.0  0.10354  0.58653  0.66669  1.0000
  C   C541      1.0  0.44840  0.53131  0.91188  1.0000
  H   H423      1.0  0.21320  0.92772  0.97698  1.0000
  H   H424      1.0  0.43016  0.53372  0.89671  1.0000
  H   H425      1.0  0.21055  0.85774  0.76370  1.0000
  H   H426      1.0  0.22021  0.81013  0.74094  1.0000
  C   C542      1.0  0.09523  0.78286  0.94321  1.0000
  H   H427      1.0  0.19915  0.90177  0.73559  1.0000
  C   C543      1.0  0.21500  0.82891  0.72809  1.0000
  S   S78       1.0  0.00131  0.95744  0.93298  1.0000
  C   C544      1.0  0.20222  0.87865  0.69622  1.0000
  C   C545      1.0  0.20770  0.85160  0.68306  1.0000
  H   H428      1.0  0.38617  0.52194  0.74900  1.0000
  H   H429      1.0  0.28455  0.80092  0.85478  1.0000
  P   P17       1.0  0.22083  0.79169  0.68162  1.0000
  C   C546      1.0  0.33668  0.62153  0.67024  1.0000
  C   C547      1.0  0.00625  0.85061  0.93191  1.0000
  H   H430      1.0  0.44485  0.78025  0.79313  1.0000
  C   C548      1.0  0.38445  0.75548  0.79619  1.0000
  C   C549      1.0  0.02447  0.54525  0.67827  1.0000
  H   H431      1.0  0.35091  0.76836  0.76535  1.0000
  H   H432      1.0  0.05838  0.69698  0.73139  1.0000
  C   C550      1.0  0.02312  0.52362  0.65721  1.0000
  C   C551      1.0  0.32832  0.79654  0.83750  1.0000
  C   C552      1.0  0.30704  0.79255  0.85803  1.0000
  H   H433      1.0  0.12681  0.55474  0.69191  1.0000
  S   S79       1.0  0.41862  0.82029  0.67768  1.0000
  C   C553      1.0  0.15779  0.78641  0.67854  1.0000
  C   C554      1.0  0.39593  0.58166  0.69239  1.0000
  C   C555      1.0  0.31435  0.77678  0.88201  1.0000
  H   H434      1.0  0.29726  0.77253  0.89722  1.0000
  Fe  Fe39      1.0  0.36943  0.80834  0.67203  1.0000
  S   S80       1.0  0.33404  0.84136  0.68374  1.0000
  H   H435      1.0  0.34679  0.88954  0.79274  1.0000
  C   C556      1.0  0.99058  0.71857  0.91205  1.0000
  P   P18       1.0  0.38514  0.79030  0.81470  1.0000
  C   C557      1.0  0.35764  0.78582  0.84133  1.0000
  H   H436      1.0  0.04427  0.87495  0.86406  1.0000
  H   H437      1.0  0.05657  0.77208  0.88149  1.0000
  H   H438      1.0  0.35794  0.84833  0.82410  1.0000
  C   C558      1.0  0.38006  0.55527  0.68602  1.0000
  P   P19       1.0  0.03424  0.79594  0.93385  1.0000
  H   H439      1.0  0.05600  0.82673  0.88384  1.0000
  C   C559      1.0  0.42239  0.79690  0.82945  1.0000
  C   C560      1.0  0.13104  0.74032  0.66838  1.0000
  C   C561      1.0  0.03991  0.84049  0.89419  1.0000
  C   C562      1.0  0.43301  0.63128  0.66806  1.0000
  H   H440      1.0  0.41153  0.56951  0.76102  1.0000
  C   C563      1.0  0.01367  0.88701  0.89622  1.0000
  H   H441      1.0  0.99697  0.96496  0.84653  1.0000
  C   C564      1.0  0.35861  0.87048  0.78501  1.0000
  H   H442      1.0  0.36903  0.55177  0.66586  1.0000
  C   C565      1.0  0.34310  0.76495  0.88545  1.0000
  C   C566      1.0  0.36467  0.76934  0.86514  1.0000
  C   C567      1.0  0.37789  0.82113  0.79221  1.0000
  C   C568      1.0  0.36445  0.84677  0.80258  1.0000
  H   H443      1.0  0.99550  0.84433  0.95096  1.0000
  C   C569      1.0  0.31514  0.66794  0.68441  1.0000
  H   H444      1.0  0.28557  0.77606  0.68322  1.0000
  H   H445      1.0  0.10982  0.68677  0.71588  1.0000
  S   S81       1.0  0.45007  0.76710  0.73300  1.0000
  C   C570      1.0  0.44766  0.79011  0.81375  1.0000
  H   H446      1.0  0.10614  0.75375  0.86789  1.0000
  C   C571      1.0  0.07494  0.77207  0.89679  1.0000
  C   C572      1.0  0.38729  0.82040  0.76454  1.0000
  H   H447      1.0  0.34695  0.70277  0.69477  1.0000
  H   H448      1.0  0.36171  0.88707  0.74331  1.0000
  C   C573      1.0  0.47301  0.50311  0.94890  1.0000
  H   H449      1.0  0.42767  0.71366  0.70566  1.0000
  C   C574      1.0  0.12700  0.76115  0.90842  1.0000
  H   H450      1.0  0.19748  0.89796  0.68390  1.0000
  S   S82       1.0  0.46253  0.63234  0.76386  1.0000
  C   C575      1.0  0.36713  0.86919  0.75725  1.0000
  H   H451      1.0  0.15665  0.83545  0.96504  1.0000
  H   H452      1.0  0.00017  0.56757  0.71038  1.0000
  C   C576      1.0  0.37708  0.53355  0.70621  1.0000
  H   H453      1.0  0.45783  0.60032  0.69371  1.0000
  H   H454      1.0  0.03439  0.73161  0.92825  1.0000
  H   H455      1.0  0.39136  0.67251  0.68791  1.0000
  H   H456      1.0  0.36420  0.51356  0.70143  1.0000
  H   H457      1.0  0.10952  0.78107  0.67921  1.0000
  H   H458      1.0  0.04534  0.55737  0.68267  1.0000
  H   H459      1.0  0.09313  0.79155  0.96413  1.0000
  H   H460      1.0  0.38767  0.84313  0.72547  1.0000
  C   C577      1.0  0.38923  0.53833  0.73305  1.0000
  C   C578      1.0  0.44296  0.67788  0.73143  1.0000
  H   H461      1.0  0.10703  0.60368  0.68235  1.0000
  C   C579      1.0  0.07088  0.78311  0.92389  1.0000
  C   C580      1.0  0.02650  0.83160  0.91893  1.0000
  H   H462      1.0  0.15910  0.70285  0.65964  1.0000
  H   H463      1.0  0.44912  0.84068  0.74791  1.0000
  C   C581      1.0  0.06147  0.68389  0.71262  1.0000
  C   C582      1.0  0.45893  0.66988  0.75562  1.0000
  C   C583      1.0  0.04691  0.82326  0.98508  1.0000
  C   C584      1.0  0.04072  0.65586  0.67304  1.0000
  C   C585      1.0  0.47672  0.79577  0.82463  1.0000
  H   H464      1.0  0.43170  0.48983  0.92727  1.0000
  C   C586      1.0  0.13071  0.77036  0.67539  1.0000
  H   H465      1.0  0.04862  0.95746  0.86594  1.0000
  Fe  Fe40      1.0  0.02659  0.94560  0.97274  1.0000
  C   C587      1.0  0.36933  0.66260  0.68442  1.0000
  C   C588      1.0  0.42651  0.81082  0.85558  1.0000
  C   C589      1.0  0.45219  0.87675  0.71922  1.0000
  P   P20       1.0  0.39776  0.61082  0.66728  1.0000
  H   H466      1.0  0.40728  0.81722  0.86756  1.0000
  C   C590      1.0  0.46889  0.88950  0.69813  1.0000
  C   C591      1.0  0.01253  0.73926  0.92105  1.0000
  H   H467      1.0  0.33334  0.59895  0.66297  1.0000
  C   C592      1.0  0.46227  0.85102  0.73195  1.0000
  C   C593      1.0  0.36580  0.63347  0.67449  1.0000
  H   H468      1.0  0.14889  0.75337  0.90231  1.0000
  C   C594      1.0  0.40644  0.58693  0.71983  1.0000
  H   H469      1.0  0.28920  0.62964  0.67095  1.0000
  H   H470      1.0  0.20663  0.73087  0.66583  1.0000
  C   C595      1.0  0.09055  0.67812  0.70388  1.0000
  C   C596      1.0  0.99905  0.55098  0.69388  1.0000
  H   H471      1.0  0.11014  0.72778  0.66672  1.0000
  H   H472      1.0  0.29556  0.68158  0.68724  1.0000
  C   C597      1.0  0.45365  0.72966  0.74139  1.0000
  C   C598      1.0  0.44937  0.50647  0.92917  1.0000
  H   H473      1.0  0.98505  0.89317  0.93116  1.0000
  C   C599      1.0  0.47100  0.55304  0.91441  1.0000
  C   C600      1.0  0.03655  0.67280  0.69721  1.0000
  H   H474      1.0  0.01400  0.67742  0.70401  1.0000
  C   C601      1.0  0.44033  0.70768  0.72425  1.0000
  H   H475      1.0  0.20682  0.85021  0.66052  1.0000
  C   C602      1.0  0.11484  0.55852  0.67230  1.0000
  H   H476      1.0  0.11771  0.65684  0.67360  1.0000
  H   H477      1.0  0.02107  0.64783  0.66136  1.0000
  H   H478      1.0  0.15705  0.80941  0.68478  1.0000
  H   H479      1.0  0.14194  0.77211  0.95032  1.0000
  C   C603      1.0  0.06995  0.64979  0.66421  1.0000
  C   C604      1.0  0.09485  0.66117  0.67983  1.0000
  H   H480      1.0  0.00930  0.90875  0.88799  1.0000
  C   C605      1.0  0.18551  0.74227  0.66773  1.0000
  C   C606      1.0  0.46998  0.72170  0.76547  1.0000
  H   H481      1.0  0.43116  0.88649  0.72533  1.0000
  H   H482      1.0  0.99566  0.69524  0.91212  1.0000
  C   C607      1.0  0.15847  0.72631  0.66437  1.0000
  C   C608      1.0  0.47253  0.69184  0.77264  1.0000
  H   H483      1.0  0.46081  0.90916  0.68790  1.0000
  C   C609      1.0  0.46229  0.67393  0.65367  1.0000
  H   H484      1.0  0.62714  0.45188  0.02302  1.0000
  Fe  Fe41      1.0  0.52019  0.43653  0.05822  1.0000
  S   S83       1.0  0.57076  0.43808  0.05681  1.0000
  Fe  Fe42      1.0  0.56450  0.42241  0.01241  1.0000
  C   C610      1.0  0.49436  0.25575  0.05105  1.0000
  C   C611      1.0  0.51433  0.33460  0.00485  1.0000
  C   C612      1.0  0.96486  0.02233  0.04053  1.0000
  H   H485      1.0  0.51226  0.26117  0.98895  1.0000
  H   H486      1.0  0.96361  0.45731  0.20783  1.0000
  H   H487      1.0  0.48309  0.20954  0.10525  1.0000
  S   S84       1.0  0.58968  0.38260  0.99677  1.0000
  C   C613      1.0  0.78369  0.46411  0.11420  1.0000
  P   P21       1.0  0.92829  0.01728  0.02351  1.0000
  C   C614      1.0  0.52445  0.26427  0.05683  1.0000
  H   H488      1.0  0.49010  0.28272  0.12642  1.0000
  C   C615      1.0  0.55374  0.41048  0.15932  1.0000
  H   H489      1.0  0.54697  0.34440  0.19132  1.0000
  C   C616      1.0  0.85356  0.99238  0.06618  1.0000
  S   S85       1.0  0.56201  0.46774  0.99446  1.0000
  C   C617      1.0  0.53916  0.25342  0.08082  1.0000
  C   C618      1.0  0.91711  0.04754  0.00148  1.0000
  C   C619      1.0  0.50473  0.34867  0.29959  1.0000
  C   C620      1.0  0.52747  0.35733  0.28173  1.0000
  C   C621      1.0  0.48493  0.26027  0.16533  1.0000
  H   H490      1.0  0.87735  0.04923  0.10864  1.0000
  H   H491      1.0  0.53943  0.36587  0.23973  1.0000
  C   C622      1.0  0.48859  0.28516  0.14883  1.0000
  C   C623      1.0  0.52446  0.23347  0.09801  1.0000
  C   C624      1.0  0.93053  0.98284  0.00435  1.0000
  H   H492      1.0  0.64527  0.44765  0.07206  1.0000
  C   C625      1.0  0.52452  0.42076  0.16255  1.0000
  C   C626      1.0  0.89960  0.01463  0.04927  1.0000
  C   C627      1.0  0.47977  0.23573  0.06824  1.0000
  C   C628      1.0  0.87600  0.99375  0.04633  1.0000
  H   H493      1.0  0.83675  0.01110  0.10411  1.0000
  H   H494      1.0  0.51800  0.44157  0.15340  1.0000
  H   H495      1.0  0.49184  0.33236  0.14800  1.0000
  H   H496      1.0  0.48064  0.41200  0.17780  1.0000
  C   C629      1.0  0.87708  0.03362  0.09135  1.0000
  H   H497      1.0  0.91706  0.05190  0.07363  1.0000
  C   C630      1.0  0.89960  0.03499  0.07157  1.0000
  H   H498      1.0  0.95293  0.99946  0.07812  1.0000
  S   S86       1.0  0.49567  0.41943  0.09576  1.0000
  C   C631      1.0  0.56177  0.38301  0.16985  1.0000
  C   C632      1.0  0.62363  0.24963  0.98995  1.0000
  C   C633      1.0  0.58620  0.24671  0.02562  1.0000
  H   H499      1.0  0.54986  0.36261  0.29008  1.0000
  C   C634      1.0  0.49479  0.22454  0.09165  1.0000
  H   H500      1.0  0.73886  0.98684  0.19160  1.0000
  H   H501      1.0  0.48728  0.10539  0.21652  1.0000
  H   H502      1.0  0.48151  0.26527  0.03410  1.0000
  C   C635      1.0  0.61049  0.23451  0.01176  1.0000
  C   C636      1.0  0.55655  0.32072  0.05837  1.0000
  C   C637      1.0  0.53929  0.32884  0.08129  1.0000
  C   C638      1.0  0.54780  0.35321  0.09801  1.0000
  C   C639      1.0  0.57367  0.36957  0.09209  1.0000
  C   C640      1.0  0.59124  0.36137  0.06965  1.0000
  C   C641      1.0  0.58280  0.33701  0.05289  1.0000
  H   H503      1.0  0.53584  0.22528  0.11654  1.0000
  H   H504      1.0  0.87482  0.97853  0.02875  1.0000
  P   P22       1.0  0.54373  0.29084  0.03549  1.0000
  C   C642      1.0  0.48917  0.31332  0.16112  1.0000
  C   C643      1.0  0.93082  0.07557  0.00458  1.0000
  C   C644      1.0  0.49255  0.35211  0.24201  1.0000
  C   C645      1.0  0.54057  0.36589  0.18370  1.0000
  H   H505      1.0  0.94855  0.07971  0.02005  1.0000
  C   C646      1.0  0.50330  0.40379  0.17649  1.0000
  H   H506      1.0  0.48376  0.23842  0.15584  1.0000
  C   C647      1.0  0.48166  0.29171  0.20633  1.0000
  S   S87       1.0  0.51442  0.41762  0.01514  1.0000
  H   H507      1.0  0.56992  0.42365  0.14818  1.0000
  C   C648      1.0  0.51127  0.37635  0.18754  1.0000
  H   H508      1.0  0.78215  0.46298  0.15907  1.0000
  H   H509      1.0  0.52414  0.35049  0.01963  1.0000
  H   H510      1.0  0.51870  0.31696  0.08582  1.0000
  H   H511      1.0  0.53366  0.36012  0.11489  1.0000
  H   H512      1.0  0.57965  0.38906  0.10443  1.0000
  H   H513      1.0  0.61088  0.37449  0.06455  1.0000
  H   H514      1.0  0.59641  0.33174  0.03524  1.0000
  C   C649      1.0  0.48570  0.31685  0.18995  1.0000
  H   H515      1.0  0.58432  0.37485  0.16695  1.0000
  C   C650      1.0  0.52146  0.35907  0.25304  1.0000
  C   C651      1.0  0.85416  0.01221  0.08875  1.0000
  Fe  Fe43      1.0  0.51211  0.46441  0.00089  1.0000
  P   P23       1.0  0.48403  0.35355  0.20501  1.0000
  C   C652      1.0  0.64702  0.46412  0.03033  1.0000
  C   C653      1.0  0.97043  0.01115  0.06731  1.0000
  C   C654      1.0  0.57496  0.27432  0.01781  1.0000
  H   H516      1.0  0.56194  0.26065  0.08636  1.0000
  H   H517      1.0  0.49022  0.07703  0.26042  1.0000
  H   H518      1.0  0.57645  0.23442  0.04231  1.0000
  C   C655      1.0  0.48155  0.26356  0.19404  1.0000
  H   H519      1.0  0.93305  0.12004  0.98916  1.0000
  H   H520      1.0  0.78037  0.46970  0.07001  1.0000
  H   H521      1.0  0.61934  0.21339  0.01811  1.0000
  C   C656      1.0  0.47896  0.36857  0.06725  1.0000
  C   C657      1.0  0.65739  0.46158  0.05791  1.0000
  H   H522      1.0  0.74583  0.46688  0.02080  1.0000
  H   H523      1.0  0.68570  0.97954  0.17520  1.0000
  C   C658      1.0  0.51952  0.30431  0.00775  1.0000
  C   C659      1.0  0.58807  0.28917  0.99552  1.0000
  C   C660      1.0  0.77288  0.47250  0.14017  1.0000
  H   H524      1.0  0.95125  0.39677  0.30635  1.0000
  H   H525      1.0  0.83564  0.97595  0.06401  1.0000
  H   H526      1.0  0.49208  0.37686  0.05057  1.0000
  H   H527      1.0  0.80137  0.44793  0.11295  1.0000
  H   H528      1.0  0.57988  0.31056  0.98908  1.0000
  C   C661      1.0  0.92170  0.09875  0.98749  1.0000
  C   C662      1.0  0.50785  0.28450  0.98734  1.0000
  H   H529      1.0  0.69749  0.22745  0.63930  1.0000
  C   C663      1.0  0.77852  0.21295  0.65181  1.0000
  C   C664      1.0  0.49894  0.01558  0.44973  1.0000
  S   S88       1.0  0.63419  0.02063  0.54457  1.0000
  H   H530      1.0  0.88295  0.45219  0.33871  1.0000
  C   C665      1.0  0.63629  0.07125  0.62786  1.0000
  C   C666      1.0  0.60954  0.05735  0.61795  1.0000
  C   C667      1.0  0.60888  0.04112  0.59279  1.0000
  C   C668      1.0  0.63496  0.03866  0.57737  1.0000
  C   C669      1.0  0.66193  0.05171  0.58771  1.0000
  C   C670      1.0  0.66260  0.06816  0.61280  1.0000
  P   P24       1.0  0.92601  0.46065  0.38642  1.0000
  H   H531      1.0  0.58806  0.03104  0.58501  1.0000
  H   H532      1.0  0.68232  0.04941  0.57609  1.0000
  C   C671      1.0  0.51478  0.18115  0.55799  1.0000
  C   C672      1.0  0.82519  0.19111  0.63760  1.0000
  H   H533      1.0  0.97428  0.44888  0.42840  1.0000
  H   H534      1.0  0.91451  0.35215  0.37641  1.0000
  C   C673      1.0  0.50295  0.15725  0.41954  1.0000
  H   H535      1.0  0.87665  0.44106  0.47570  1.0000
  C   C674      1.0  0.95886  0.37831  0.57479  1.0000
  C   C675      1.0  0.95859  0.36224  0.59966  1.0000
  H   H536      1.0  0.93782  0.38332  0.56411  1.0000
  Fe  Fe44      1.0  0.59708  0.98710  0.53420  1.0000
  C   C676      1.0  0.73936  0.00418  0.63198  1.0000
  C   C677      1.0  0.52279  0.05535  0.42463  1.0000
  C   C678      1.0  0.52457  0.03259  0.44427  1.0000
  C   C679      1.0  0.95273  0.44742  0.43822  1.0000
  C   C680      1.0  0.55134  0.18017  0.47931  1.0000
  H   H537      1.0  0.50950  0.34713  0.32176  1.0000
  H   H538      1.0  0.54257  0.06860  0.42051  1.0000
  H   H539      1.0  0.48006  0.22838  0.41610  1.0000
  C   C681      1.0  0.71849  0.26106  0.61473  1.0000
  H   H540      1.0  0.61476  0.01405  0.44966  1.0000
  H   H541      1.0  0.92464  0.43071  0.50143  1.0000
  C   C682      1.0  0.79483  0.18795  0.64463  1.0000
  H   H542      1.0  0.51750  0.14191  0.40906  1.0000
  H   H543      1.0  0.68335  0.07860  0.62036  1.0000
  H   H544      1.0  0.93744  0.35504  0.60817  1.0000
  H   H545      1.0  0.47961  0.32242  0.37456  1.0000
  C   C683      1.0  0.70816  0.24911  0.63943  1.0000
  C   C684      1.0  0.48613  0.14789  0.44208  1.0000
  C   C685      1.0  0.93568  0.45799  0.62289  1.0000
  C   C686      1.0  0.49383  0.20177  0.54858  1.0000
  H   H546      1.0  0.54561  0.02818  0.45519  1.0000
  C   C687      1.0  0.60735  0.05428  0.47272  1.0000
  C   C688      1.0  0.60379  0.08498  0.47139  1.0000
  C   C689      1.0  0.60481  0.09883  0.44543  1.0000
  P   P25       1.0  0.59679  0.10577  0.50286  1.0000
  C   C690      1.0  0.56481  0.08806  0.51867  1.0000
  C   C691      1.0  0.62974  0.10739  0.52595  1.0000
  C   C692      1.0  0.62958  0.12524  0.55013  1.0000
  C   C693      1.0  0.65553  0.12841  0.56714  1.0000
  C   C694      1.0  0.68204  0.11435  0.55985  1.0000
  C   C695      1.0  0.68247  0.09668  0.53578  1.0000
  C   C696      1.0  0.65643  0.09308  0.51894  1.0000
  C   C697      1.0  0.54036  0.07801  0.50172  1.0000
  C   C698      1.0  0.51565  0.06381  0.51337  1.0000
  S   S89       1.0  0.92821  0.26994  0.65122  1.0000
  C   C699      1.0  0.53933  0.06931  0.55912  1.0000
  C   C700      1.0  0.56429  0.08315  0.54746  1.0000
  C   C701      1.0  0.58762  0.14339  0.49404  1.0000
  C   C702      1.0  0.55819  0.15094  0.48569  1.0000
  C   C703      1.0  0.57390  0.20195  0.48057  1.0000
  C   C704      1.0  0.60343  0.19451  0.48808  1.0000
  C   C705      1.0  0.61032  0.16536  0.49466  1.0000
  C   C706      1.0  0.92153  0.37239  0.36655  1.0000
  H   H547      1.0  0.92147  0.16880  0.59275  1.0000
  H   H548      1.0  0.92077  0.20489  0.63208  1.0000
  H   H549      1.0  0.60645  0.04315  0.49255  1.0000
  H   H550      1.0  0.60197  0.12240  0.44369  1.0000
  H   H551      1.0  0.60938  0.13671  0.55586  1.0000
  H   H552      1.0  0.65505  0.14144  0.58624  1.0000
  H   H553      1.0  0.70203  0.11652  0.57328  1.0000
  H   H554      1.0  0.70283  0.08518  0.53052  1.0000
  H   H555      1.0  0.65733  0.07902  0.50063  1.0000
  H   H556      1.0  0.54056  0.08075  0.47938  1.0000
  H   H557      1.0  0.86246  0.22157  0.63220  1.0000
  H   H558      1.0  0.74632  0.32664  0.63996  1.0000
  H   H559      1.0  0.53937  0.06508  0.58129  1.0000
  H   H560      1.0  0.58326  0.08921  0.56102  1.0000
  H   H561      1.0  0.54051  0.13439  0.48389  1.0000
  H   H562      1.0  0.62106  0.21132  0.48877  1.0000
  H   H563      1.0  0.63345  0.16006  0.50010  1.0000
  H   H564      1.0  0.88961  0.44209  0.62176  1.0000
  H   H565      1.0  0.50458  0.98525  0.39208  1.0000
  C   C707      1.0  0.93990  0.42457  0.34119  1.0000
  H   H566      1.0  0.96883  0.45625  0.57184  1.0000
  C   C708      1.0  0.92853  0.42569  0.36819  1.0000
  C   C709      1.0  0.49471  0.14550  0.52407  1.0000
  C   C710      1.0  0.92482  0.43712  0.47975  1.0000
  C   C711      1.0  0.83916  0.21918  0.63784  1.0000
  C   C712      1.0  0.91398  0.16189  0.61295  1.0000
  C   C713      1.0  0.58269  0.97505  0.62348  1.0000
  C   C714      1.0  0.89790  0.44293  0.46525  1.0000
  S   S90       1.0  0.77754  0.15270  0.64394  1.0000
  H   H567      1.0  0.87710  0.45430  0.42622  1.0000
  S   S91       1.0  0.49349  0.08987  0.38619  1.0000
  C   C715      1.0  0.97155  0.42736  0.64765  1.0000
  S   S92       1.0  0.54792  0.99263  0.54174  1.0000
  C   C716      1.0  0.61268  0.05158  0.42270  1.0000
  H   H568      1.0  0.49736  0.05526  0.49998  1.0000
  C   C717      1.0  0.91916  0.39940  0.38071  1.0000
  H   H569      1.0  0.49367  0.22365  0.55798  1.0000
  C   C718      1.0  0.61195  0.03771  0.44847  1.0000
  C   C719      1.0  0.60913  0.08212  0.42118  1.0000
  C   C720      1.0  0.82252  0.24430  0.64409  1.0000
  H   H570      1.0  0.83796  0.17186  0.63204  1.0000
  C   C721      1.0  0.89834  0.45081  0.43719  1.0000
  H   H571      1.0  0.60944  0.09280  0.40114  1.0000
  H   H572      1.0  0.58918  0.05947  0.62965  1.0000
  H   H573      1.0  0.51273  0.19281  0.39185  1.0000
  S   S93       1.0  0.83838  0.27999  0.64105  1.0000
  H   H574      1.0  0.56857  0.22454  0.47548  1.0000
  C   C722      1.0  0.51526  0.15306  0.54567  1.0000
  C   C723      1.0  0.73216  0.28905  0.61504  1.0000
  C   C724      1.0  0.91247  0.43813  0.62910  1.0000
  H   H575      1.0  0.74025  0.29829  0.59591  1.0000
  C   C725      1.0  0.73591  0.30490  0.64013  1.0000
  C   C726      1.0  0.90473  0.13268  0.61697  1.0000
  H   H576      1.0  0.61587  0.03862  0.40390  1.0000
  C   C727      1.0  0.92585  0.45366  0.42350  1.0000
  H   H577      1.0  0.90517  0.11685  0.59989  1.0000
  H   H578      1.0  0.55873  0.99572  0.40179  1.0000
  H   H579      1.0  0.53076  0.18695  0.57472  1.0000
  H   H580      1.0  0.56849  0.98694  0.60889  1.0000
  H   H581      1.0  0.76179  0.00616  0.62379  1.0000
  H   H582      1.0  0.67757  0.98446  0.57969  1.0000
  H   H583      1.0  0.71607  0.24854  0.59541  1.0000
  C   C728      1.0  0.72806  0.02693  0.64843  1.0000
  H   H584      1.0  0.52853  0.18593  0.47326  1.0000
  H   H585      1.0  0.90084  0.39757  0.64948  1.0000
  C   C729      1.0  0.95214  0.43925  0.46620  1.0000
  H   H586      1.0  0.53169  0.13718  0.55278  1.0000
  C   C730      1.0  0.93312  0.37143  0.33979  1.0000
  C   C731      1.0  0.94223  0.39752  0.32709  1.0000
  C   C732      1.0  0.49545  0.06101  0.41037  1.0000
  H   H587      1.0  0.97293  0.43459  0.47750  1.0000
  H   H588      1.0  0.91015  0.39962  0.40144  1.0000
  C   C733      1.0  0.50048  0.18609  0.40997  1.0000
  C   C734      1.0  0.51500  0.05969  0.54210  1.0000
  C   C735      1.0  0.96545  0.45266  0.63201  1.0000
  H   H589      1.0  0.49591  0.12391  0.51433  1.0000
  H   H590      1.0  0.96168  0.32376  0.54032  1.0000
  H   H591      1.0  0.88805  0.10110  0.64592  1.0000
  S   S94       1.0  0.49945  0.98712  0.47420  1.0000
  H   H592      1.0  0.49622  0.04794  0.55101  1.0000
  C   C736      1.0  0.91352  0.18225  0.63502  1.0000
  C   C737      1.0  0.89478  0.12389  0.64302  1.0000
  H   H593      1.0  0.48810  0.12524  0.44880  1.0000
  H   H594      1.0  0.74166  0.04653  0.65292  1.0000
  C   C738      1.0  0.79219  0.24106  0.65095  1.0000
  C   C739      1.0  0.87542  0.47025  0.35158  1.0000
  H   H595      1.0  0.93510  0.35045  0.32891  1.0000
  C   C740      1.0  0.91873  0.41308  0.64475  1.0000
  H   H596      1.0  0.94701  0.44461  0.33103  1.0000
  C   C741      1.0  0.68112  0.99964  0.65253  1.0000
  H   H597      1.0  0.62152  0.97764  0.59806  1.0000
  C   C742      1.0  0.48199  0.20603  0.42358  1.0000
  C   C743      1.0  0.72155  0.97914  0.62571  1.0000
  C   C744      1.0  0.69224  0.97672  0.63586  1.0000
  H   H598      1.0  0.68003  0.97593  0.52916  1.0000
  Fe  Fe45      1.0  0.70839  0.35092  0.88481  1.0000
  S   S95       1.0  0.71086  0.30642  0.90458  1.0000
  S   S96       1.0  0.68371  0.39123  0.90032  1.0000
  Fe  Fe46      1.0  0.74796  0.33235  0.83681  1.0000
  S   S97       1.0  0.75396  0.28639  0.85253  1.0000
  S   S98       1.0  0.76465  0.34672  0.79520  1.0000
  Fe  Fe47      1.0  0.70464  0.28807  0.86110  1.0000
  S   S99       1.0  0.67623  0.24735  0.85208  1.0000
  Fe  Fe48      1.0  0.75993  0.30827  0.89436  1.0000
  S   S100      1.0  0.79364  0.29476  0.92741  1.0000
  S   S101      1.0  0.69776  0.33231  0.84196  1.0000
  S   S102      1.0  0.75825  0.35450  0.87804  1.0000
  H   H599      1.0  0.66784  0.40094  0.69493  1.0000
  C   C745      1.0  0.49669  0.34474  0.98245  1.0000
  C   C746      1.0  0.64069  0.44693  0.86510  1.0000
  Fe  Fe49      1.0  0.90758  0.31742  0.71595  1.0000
  S   S103      1.0  0.95477  0.30260  0.70876  1.0000
  S   S104      1.0  0.89782  0.34618  0.75326  1.0000
  C   C747      1.0  0.51568  0.42563  0.92538  1.0000
  C   C748      1.0  0.74633  0.16635  0.81156  1.0000
  Fe  Fe50      1.0  0.93372  0.25908  0.69654  1.0000
  S   S105      1.0  0.95426  0.21609  0.70965  1.0000
  C   C749      1.0  0.82231  0.19936  0.71525  1.0000
  S   S106      1.0  0.88717  0.27262  0.70777  1.0000
  Fe  Fe51      1.0  0.72100  0.11928  0.72624  1.0000
  S   S107      1.0  0.67269  0.13264  0.72157  1.0000
  S   S108      1.0  0.73311  0.09334  0.76457  1.0000
  H   H600      1.0  0.80024  0.03597  0.90133  1.0000
  H   H601      1.0  0.95306  0.38820  0.66608  1.0000
  C   C750      1.0  0.70435  0.13468  0.85433  1.0000
  Fe  Fe52      1.0  0.69128  0.17602  0.70803  1.0000
  S   S109      1.0  0.67209  0.21948  0.72239  1.0000
  C   C751      1.0  0.56422  0.44902  0.91877  1.0000
  C   C752      1.0  0.85394  0.07967  0.71380  1.0000
  S   S110      1.0  0.73966  0.16396  0.71591  1.0000
  C   C753      1.0  0.83958  0.28563  0.83235  1.0000
  Fe  Fe53      1.0  0.93143  0.11048  0.89297  1.0000
  S   S111      1.0  0.93921  0.11820  0.84756  1.0000
  C   C754      1.0  0.66679  0.46297  0.87271  1.0000
  Fe  Fe54      1.0  0.87578  0.14902  0.89344  1.0000
  S   S112      1.0  0.87841  0.16050  0.84842  1.0000
  S   S113      1.0  0.84241  0.16418  0.92480  1.0000
  Fe  Fe55      1.0  0.88875  0.11258  0.84224  1.0000
  S   S114      1.0  0.87019  0.08862  0.80389  1.0000
  Fe  Fe56      1.0  0.92812  0.16529  0.85669  1.0000
  S   S115      1.0  0.95357  0.20447  0.84084  1.0000
  S   S116      1.0  0.88205  0.10031  0.88691  1.0000
  S   S117      1.0  0.92457  0.15845  0.90248  1.0000
  H   H602      1.0  0.74907  0.36348  0.73301  1.0000
  H   H603      1.0  0.62205  0.37374  0.70945  1.0000
  H   H604      1.0  0.66727  0.34314  0.93685  1.0000
  C   C755      1.0  0.80848  0.08288  0.67254  1.0000
  C   C756      1.0  0.76093  0.10769  0.87646  1.0000
  H   H605      1.0  0.71454  0.10805  0.81821  1.0000
  S   S118      1.0  0.72303  0.10113  0.68268  1.0000
  H   H606      1.0  0.72225  0.16800  0.81205  1.0000
  C   C757      1.0  0.51915  0.47031  0.89841  1.0000
  C   C758      1.0  0.77108  0.09429  0.77618  1.0000
  C   C759      1.0  0.79349  0.10683  0.76005  1.0000
  C   C760      1.0  0.82374  0.10642  0.76944  1.0000
  C   C761      1.0  0.83180  0.09341  0.79486  1.0000
  C   C762      1.0  0.80926  0.08141  0.81126  1.0000
  C   C763      1.0  0.77900  0.08173  0.80184  1.0000
  H   H607      1.0  0.78760  0.11662  0.74025  1.0000
  H   H608      1.0  0.84080  0.11640  0.75697  1.0000
  H   H609      1.0  0.81525  0.07105  0.83076  1.0000
  H   H610      1.0  0.76174  0.07177  0.81421  1.0000
  H   H611      1.0  0.83950  0.38206  0.70865  1.0000
  C   C764      1.0  0.94820  0.40782  0.65415  1.0000
  S   S119      1.0  0.63559  0.09250  0.65890  1.0000
  C   C765      1.0  0.80286  0.08338  0.89990  1.0000
  S   S120      1.0  0.90062  0.33355  0.67234  1.0000
  H   H612      1.0  0.48263  0.21959  0.88610  1.0000
  C   C766      1.0  0.95449  0.21274  0.74609  1.0000
  H   H613      1.0  0.76108  0.18291  0.95932  1.0000
  C   C767      1.0  0.96082  0.18274  0.78754  1.0000
  C   C768      1.0  0.95294  0.20679  0.80429  1.0000
  C   C769      1.0  0.94567  0.23357  0.79184  1.0000
  C   C770      1.0  0.94612  0.23652  0.76286  1.0000
  C   C771      1.0  0.52712  0.21953  0.94492  1.0000
  H   H614      1.0  0.59233  0.44607  0.86379  1.0000
  H   H615      1.0  0.94285  0.03895  0.89348  1.0000
  C   C772      1.0  0.88397  0.06687  0.96507  1.0000
  C   C773      1.0  0.67350  0.23922  0.81619  1.0000
  C   C774      1.0  0.66709  0.26140  0.79711  1.0000
  C   C775      1.0  0.66555  0.25476  0.76847  1.0000
  C   C776      1.0  0.67164  0.22624  0.75864  1.0000
  C   C777      1.0  0.67717  0.20381  0.77782  1.0000
  C   C778      1.0  0.67732  0.21024  0.80659  1.0000
  H   H616      1.0  0.66336  0.28370  0.80440  1.0000
  H   H617      1.0  0.66061  0.27206  0.75393  1.0000
  H   H618      1.0  0.68117  0.18156  0.77049  1.0000
  H   H619      1.0  0.68066  0.19292  0.82152  1.0000
  C   C779      1.0  0.80934  0.25933  0.92494  1.0000
  C   C780      1.0  0.81806  0.24549  0.94966  1.0000
  C   C781      1.0  0.82827  0.21642  0.94916  1.0000
  C   C782      1.0  0.83101  0.20122  0.92384  1.0000
  C   C783      1.0  0.82348  0.21533  0.89882  1.0000
  C   C784      1.0  0.81239  0.24437  0.89939  1.0000
  H   H620      1.0  0.52655  0.21339  0.96663  1.0000
  H   H621      1.0  0.83409  0.20565  0.96849  1.0000
  H   H622      1.0  0.82542  0.20365  0.87916  1.0000
  H   H623      1.0  0.80603  0.25502  0.88016  1.0000
  C   C785      1.0  0.80284  0.34160  0.78770  1.0000
  C   C786      1.0  0.81041  0.32334  0.76522  1.0000
  C   C787      1.0  0.83987  0.32356  0.75525  1.0000
  C   C788      1.0  0.86179  0.34243  0.76745  1.0000
  C   C789      1.0  0.85455  0.35979  0.79065  1.0000
  C   C790      1.0  0.82518  0.35928  0.80087  1.0000
  H   H624      1.0  0.79323  0.30991  0.75469  1.0000
  H   H625      1.0  0.84511  0.31024  0.73726  1.0000
  H   H626      1.0  0.87141  0.37449  0.80007  1.0000
  H   H627      1.0  0.81941  0.37375  0.81795  1.0000
  C   C791      1.0  0.66030  0.38928  0.92937  1.0000
  C   C792      1.0  0.64502  0.41465  0.93799  1.0000
  C   C793      1.0  0.62424  0.41322  0.95955  1.0000
  S   S121      1.0  0.69083  0.16305  0.66254  1.0000
  C   C794      1.0  0.63458  0.36130  0.96459  1.0000
  C   C795      1.0  0.65552  0.36273  0.94319  1.0000
  C   C796      1.0  0.83080  0.05838  0.71231  1.0000
  H   H628      1.0  0.61234  0.43273  0.96588  1.0000
  C   C797      1.0  0.61234  0.45894  0.86954  1.0000
  H   H629      1.0  0.64260  0.42483  0.85642  1.0000
  C   C798      1.0  0.89841  0.09438  0.96764  1.0000
  C   C799      1.0  0.93137  0.98228  0.97516  1.0000
  H   H630      1.0  0.50202  0.40878  0.93491  1.0000
  H   H631      1.0  0.79893  0.27900  0.80752  1.0000
  C   C800      1.0  0.59054  0.23385  0.79720  1.0000
  C   C801      1.0  0.60303  0.21372  0.81582  1.0000
  C   C802      1.0  0.60294  0.21952  0.84450  1.0000
  C   C803      1.0  0.59005  0.24546  0.85483  1.0000
  C   C804      1.0  0.57665  0.26514  0.83597  1.0000
  P   P26       1.0  0.58937  0.25297  0.89195  1.0000
  C   C805      1.0  0.55478  0.23867  0.90587  1.0000
  C   C806      1.0  0.62080  0.23511  0.90918  1.0000
  C   C807      1.0  0.61894  0.20487  0.91520  1.0000
  C   C808      1.0  0.64333  0.19067  0.92799  1.0000
  C   C809      1.0  0.66978  0.20652  0.93479  1.0000
  C   C810      1.0  0.67173  0.23661  0.92907  1.0000
  C   C811      1.0  0.64737  0.25089  0.91636  1.0000
  H   H632      1.0  0.95156  0.32226  0.78033  1.0000
  H   H633      1.0  0.64193  0.16728  0.93223  1.0000
  C   C812      1.0  0.55353  0.23149  0.93420  1.0000
  C   C813      1.0  0.59198  0.29246  0.89768  1.0000
  C   C814      1.0  0.61192  0.30947  0.88204  1.0000
  C   C815      1.0  0.61327  0.34014  0.88555  1.0000
  C   C816      1.0  0.59475  0.35405  0.90465  1.0000
  C   C817      1.0  0.57539  0.33725  0.92078  1.0000
  C   C818      1.0  0.57391  0.30655  0.91731  1.0000
  H   H634      1.0  0.61396  0.19419  0.80791  1.0000
  H   H635      1.0  0.61399  0.20425  0.85830  1.0000
  H   H636      1.0  0.56621  0.28513  0.84336  1.0000
  H   H637      1.0  0.59880  0.19215  0.90956  1.0000
  H   H638      1.0  0.63048  0.34062  0.97480  1.0000
  C   C819      1.0  0.72691  0.29240  0.66522  1.0000
  H   H639      1.0  0.69233  0.24892  0.93403  1.0000
  H   H640      1.0  0.64983  0.27401  0.91155  1.0000
  C   C820      1.0  0.85402  0.10327  0.69513  1.0000
  C   C821      1.0  0.92798  0.29917  0.84354  1.0000
  H   H641      1.0  0.62662  0.29900  0.86724  1.0000
  H   H642      1.0  0.62917  0.35315  0.87389  1.0000
  H   H643      1.0  0.59624  0.37779  0.90762  1.0000
  H   H644      1.0  0.56192  0.34809  0.93631  1.0000
  H   H645      1.0  0.55873  0.29406  0.93002  1.0000
  C   C822      1.0  0.66884  0.37749  0.69888  1.0000
  H   H646      1.0  0.62428  0.31978  0.71780  1.0000
  C   C823      1.0  0.76496  0.33632  0.69908  1.0000
  C   C824      1.0  0.76723  0.35940  0.71889  1.0000
  P   P27       1.0  0.73210  0.31240  0.69776  1.0000
  C   C825      1.0  0.64427  0.33184  0.71178  1.0000
  C   C826      1.0  0.73737  0.28799  0.72671  1.0000
  C   C827      1.0  0.75303  0.26149  0.72367  1.0000
  C   C828      1.0  0.75829  0.24355  0.74672  1.0000
  C   C829      1.0  0.74863  0.25226  0.77299  1.0000
  C   C830      1.0  0.73389  0.27900  0.77620  1.0000
  C   C831      1.0  0.72809  0.29673  0.75320  1.0000
  C   C832      1.0  0.69755  0.33230  0.70145  1.0000
  H   H647      1.0  0.88155  0.22524  0.75517  1.0000
  H   H648      1.0  0.62085  0.12576  0.82831  1.0000
  H   H649      1.0  0.58827  0.44943  0.92293  1.0000
  C   C833      1.0  0.96823  0.00287  0.91107  1.0000
  C   C834      1.0  0.67137  0.31692  0.70876  1.0000
  H   H650      1.0  0.82133  0.35746  0.91096  1.0000
  C   C835      1.0  0.89341  0.14447  0.66508  1.0000
  H   H651      1.0  0.81375  0.23012  0.78958  1.0000
  H   H652      1.0  0.76129  0.25472  0.70362  1.0000
  H   H653      1.0  0.76982  0.22293  0.74420  1.0000
  H   H654      1.0  0.75256  0.23849  0.79094  1.0000
  H   H655      1.0  0.72676  0.28611  0.79653  1.0000
  H   H656      1.0  0.71705  0.31762  0.75636  1.0000
  H   H657      1.0  0.89469  0.21112  0.92801  1.0000
  C   C836      1.0  0.69693  0.11793  0.83025  1.0000
  Fe  Fe57      1.0  0.67607  0.11816  0.67681  1.0000
  H   H658      1.0  0.81596  0.25697  0.96939  1.0000
  H   H659      1.0  0.75079  0.03285  0.87595  1.0000
  H   H660      1.0  0.67199  0.29330  0.71202  1.0000
  C   C837      1.0  0.78903  0.10906  0.89056  1.0000
  C   C838      1.0  0.74584  0.17040  0.89013  1.0000
  C   C839      1.0  0.75237  0.16440  0.91827  1.0000
  C   C840      1.0  0.75445  0.18742  0.93795  1.0000
  C   C841      1.0  0.74907  0.21639  0.92985  1.0000
  C   C842      1.0  0.74149  0.22234  0.90212  1.0000
  C   C843      1.0  0.74002  0.19954  0.88227  1.0000
  C   C844      1.0  0.80866  0.16254  0.80824  1.0000
  C   C845      1.0  0.79440  0.15310  0.83225  1.0000
  H   H661      1.0  0.82435  0.08492  0.91108  1.0000
  H   H662      1.0  0.80022  0.13010  0.89452  1.0000
  H   H663      1.0  0.75638  0.14215  0.92512  1.0000
  C   C846      1.0  0.50244  0.22293  0.89954  1.0000
  C   C847      1.0  0.90330  0.17361  0.66099  1.0000
  H   H664      1.0  0.73742  0.24480  0.89586  1.0000
  H   H665      1.0  0.73434  0.20475  0.86081  1.0000
  H   H666      1.0  0.83273  0.16022  0.80638  1.0000
  H   H667      1.0  0.80807  0.14432  0.84901  1.0000
  C   C848      1.0  0.74714  0.07993  0.87147  1.0000
  C   C849      1.0  0.54687  0.42634  0.92998  1.0000
  H   H668      1.0  0.57305  0.23488  0.94795  1.0000
  C   C850      1.0  0.76289  0.15433  0.83385  1.0000
  H   H669      1.0  0.68616  0.16124  0.88763  1.0000
  C   C851      1.0  0.82874  0.24217  0.80383  1.0000
  C   C852      1.0  0.52895  0.23454  0.88866  1.0000
  C   C853      1.0  0.49052  0.29472  0.96479  1.0000
  H   H670      1.0  0.78945  0.04424  0.69137  1.0000
  C   C854      1.0  0.79173  0.17340  0.78586  1.0000
  C   C855      1.0  0.86804  0.21028  0.74202  1.0000
  P   P28       1.0  0.74360  0.14124  0.86412  1.0000
  H   H671      1.0  0.64891  0.43534  0.92763  1.0000
  H   H672      1.0  0.83010  0.04114  0.72771  1.0000
  C   C856      1.0  0.50190  0.44743  0.90939  1.0000
  H   H673      1.0  0.79575  0.39324  0.73795  1.0000
  H   H674      1.0  0.59179  0.22979  0.77495  1.0000
  C   C857      1.0  0.82028  0.26970  0.81406  1.0000
  C   C858      1.0  0.81847  0.36989  0.70547  1.0000
  H   H675      1.0  0.89178  0.11228  0.95410  1.0000
  C   C859      1.0  0.76059  0.17573  0.78776  1.0000
  C   C860      1.0  0.57719  0.25947  0.80727  1.0000
  C   C861      1.0  0.79377  0.37631  0.72184  1.0000
  H   H676      1.0  0.74712  0.18424  0.77072  1.0000
  H   H677      1.0  0.70428  0.25501  0.68353  1.0000
  H   H678      1.0  0.52921  0.24009  0.86682  1.0000
  H   H679      1.0  0.56768  0.27515  0.79278  1.0000
  C   C862      1.0  0.83922  0.21835  0.73287  1.0000
  C   C863      1.0  0.68114  0.14780  0.86927  1.0000
  C   C864      1.0  0.86362  0.16466  0.71484  1.0000
  C   C865      1.0  0.78917  0.05590  0.89458  1.0000
  Fe  Fe58      1.0  0.94618  0.31491  0.66414  1.0000
  H   H680      1.0  0.96659  0.16199  0.79702  1.0000
  H   H681      1.0  0.94279  0.11541  0.68425  1.0000
  C   C866      1.0  0.76132  0.05417  0.88035  1.0000
  H   H682      1.0  0.86345  0.20931  0.80359  1.0000
  C   C867      1.0  0.65110  0.14435  0.86004  1.0000
  C   C868      1.0  0.66697  0.11473  0.82093  1.0000
  H   H683      1.0  0.72568  0.07784  0.86047  1.0000
  C   C869      1.0  0.85666  0.23058  0.81165  1.0000
  H   H684      1.0  0.87081  0.07824  0.73040  1.0000
  H   H685      1.0  0.71562  0.37467  0.68913  1.0000
  C   C870      1.0  0.95286  0.31341  0.80118  1.0000
  H   H686      1.0  0.48155  0.27931  0.94912  1.0000
  C   C871      1.0  0.81662  0.34647  0.68626  1.0000
  C   C872      1.0  0.71227  0.26473  0.66458  1.0000
  H   H687      1.0  0.92112  0.31657  0.91481  1.0000
  H   H688      1.0  0.83252  0.30709  0.83957  1.0000
  C   C873      1.0  0.64403  0.12798  0.83579  1.0000
  H   H689      1.0  0.66179  0.10241  0.80183  1.0000
  H   H690      1.0  0.68871  0.45318  0.86989  1.0000
  H   H691      1.0  0.63338  0.15483  0.87141  1.0000
  H   H692      1.0  0.86598  0.06356  0.94962  1.0000
  C   C874      1.0  0.96202  0.18587  0.75847  1.0000
  H   H693      1.0  0.75141  0.23440  0.94489  1.0000
  H   H694      1.0  0.95848  0.98647  0.89682  1.0000
  H   H695      1.0  0.93179  0.29311  0.96006  1.0000
  C   C875      1.0  0.86766  0.27409  0.84047  1.0000
  C   C876      1.0  0.87620  0.24663  0.82961  1.0000
  C   C877      1.0  0.64303  0.36217  0.70701  1.0000
  H   H696      1.0  0.90303  0.18981  0.67778  1.0000
  Fe  Fe59      1.0  0.73777  0.14720  0.67178  1.0000
  C   C878      1.0  0.87233  0.38313  0.86508  1.0000
  H   H697      1.0  0.79060  0.08471  0.65685  1.0000
  H   H698      1.0  0.55752  0.40980  0.94289  1.0000
  C   C879      1.0  0.92675  0.31099  0.81669  1.0000
  H   H699      1.0  0.93998  0.25726  0.75356  1.0000
  H   H700      1.0  0.83715  0.40388  0.88813  1.0000
  H   H701      1.0  0.68888  0.19545  0.94425  1.0000
  C   C880      1.0  0.84871  0.38350  0.88376  1.0000
  H   H702      1.0  0.89799  0.23761  0.83510  1.0000
  C   C881      1.0  0.79022  0.32945  0.68343  1.0000
  H   H703      1.0  0.97618  0.01544  0.84408  1.0000
  C   C882      1.0  0.89302  0.04362  0.98211  1.0000
  H   H704      1.0  0.89200  0.12578  0.75902  1.0000
  H   H705      1.0  0.93927  0.25197  0.80464  1.0000
  C   C883      1.0  0.96545  0.10416  0.72252  1.0000
  C   C884      1.0  0.94075  0.11386  0.70656  1.0000
  H   H706      1.0  0.95704  0.27826  0.87432  1.0000
  C   C885      1.0  0.91407  0.25058  0.94687  1.0000
  H   H707      1.0  0.64277  0.24037  0.97964  1.0000
  C   C886      1.0  0.83975  0.35745  0.89657  1.0000
  H   H708      1.0  0.87913  0.40325  0.85493  1.0000
  C   C887      1.0  0.85408  0.33100  0.89040  1.0000
  C   C888      1.0  0.91531  0.29351  0.91745  1.0000
  H   H709      1.0  0.84657  0.31085  0.90007  1.0000
  C   C889      1.0  0.61229  0.27682  0.98166  1.0000
  H   H710      1.0  0.91858  0.24027  0.96673  1.0000
  C   C890      1.0  0.91387  0.12158  0.71946  1.0000
  C   C891      1.0  0.69599  0.36258  0.69587  1.0000
  C   C892      1.0  0.83158  0.10416  0.67400  1.0000
  C   C893      1.0  0.88678  0.35665  0.85895  1.0000
  C   C894      1.0  0.92145  0.28029  0.94309  1.0000
  H   H711      1.0  0.90544  0.31783  0.80752  1.0000
  C   C895      1.0  0.87745  0.33030  0.87135  1.0000
  P   P29       1.0  0.89373  0.29516  0.86266  1.0000
  C   C896      1.0  0.91226  0.11962  0.74851  1.0000
  C   C897      1.0  0.83425  0.17249  0.70659  1.0000
  C   C898      1.0  0.95937  0.03251  0.90914  1.0000
  H   H712      1.0  0.90318  0.17874  0.73896  1.0000
  H   H713      1.0  0.90476  0.35693  0.84425  1.0000
  C   C899      1.0  0.90161  0.27713  0.89538  1.0000
  C   C900      1.0  0.80789  0.06016  0.69189  1.0000
  H   H714      1.0  0.80272  0.17937  0.76690  1.0000
  H   H715      1.0  0.83036  0.23963  0.73887  1.0000
  C   C901      1.0  0.90063  0.23410  0.92501  1.0000
  C   C902      1.0  0.95560  0.28888  0.85431  1.0000
  H   H716      1.0  0.82080  0.15861  0.69258  1.0000
  S   S122      1.0  0.96308  0.09133  0.92539  1.0000
  H   H717      1.0  0.62252  0.28854  0.96471  1.0000
  C   C903      1.0  0.89434  0.24726  0.89937  1.0000
  P   P30       1.0  0.88144  0.13312  0.69898  1.0000
  H   H718      1.0  0.80025  0.20571  0.70752  1.0000
  C   C904      1.0  0.61838  0.38633  0.97236  1.0000
  C   C905      1.0  0.93680  0.10960  0.76434  1.0000
  H   H719      1.0  0.88357  0.23396  0.88306  1.0000
  C   C906      1.0  0.88027  0.18371  0.73288  1.0000
  Fe  Fe60      1.0  0.88318  0.28726  0.66353  1.0000
  H   H720      1.0  0.93501  0.10788  0.78670  1.0000
  H   H721      1.0  0.83136  0.12187  0.65910  1.0000
  H   H722      1.0  0.48110  0.20595  0.93591  1.0000
  H   H723      1.0  0.78149  0.46260  0.98252  1.0000
  H   H724      1.0  0.88145  0.02250  0.97995  1.0000
  H   H725      1.0  0.68993  0.04250  0.67108  1.0000
  C   C907      1.0  0.48477  0.32484  0.96245  1.0000
  H   H726      1.0  0.93195  0.00250  0.96344  1.0000
  H   H727      1.0  0.65848  0.99880  0.66034  1.0000
  C   C908      1.0  0.97238  0.05379  0.92723  1.0000
  H   H728      1.0  0.96834  0.16741  0.74551  1.0000
  H   H729      1.0  0.83596  0.34064  0.67422  1.0000
  C   C909      1.0  0.96343  0.10192  0.75141  1.0000
  H   H730      1.0  0.49250  0.36813  0.98047  1.0000
  H   H731      1.0  0.79005  0.31045  0.66958  1.0000
  C   C910      1.0  0.50156  0.21529  0.92761  1.0000
  C   C911      1.0  0.55053  0.47134  0.90299  1.0000
  H   H732      1.0  0.77926  0.26036  0.65554  1.0000
  C   C912      1.0  0.69900  0.02461  0.65875  1.0000
  H   H733      1.0  0.75519  0.21062  0.65742  1.0000
  H   H734      1.0  0.61281  0.51733  0.19694  1.0000
  C   C913      1.0  0.58068  0.60719  0.07493  1.0000
  H   H735      1.0  0.85987  0.51078  0.27748  1.0000
  Fe  Fe61      1.0  0.70134  0.56028  0.17797  1.0000
  S   S123      1.0  0.74965  0.57183  0.16927  1.0000
  S   S124      1.0  0.67567  0.51994  0.16123  1.0000
  Fe  Fe62      1.0  0.69674  0.60903  0.22214  1.0000
  S   S125      1.0  0.74447  0.62429  0.21787  1.0000
  S   S126      1.0  0.66231  0.62767  0.25091  1.0000
  Fe  Fe63      1.0  0.73496  0.61902  0.17201  1.0000
  S   S127      1.0  0.74931  0.65658  0.14496  1.0000
  Fe  Fe64      1.0  0.75534  0.57616  0.21580  1.0000
  S   S128      1.0  0.79731  0.55862  0.23646  1.0000
  S   S129      1.0  0.68605  0.60713  0.17621  1.0000
  S   S130      1.0  0.70839  0.56108  0.22447  1.0000
  Fe  Fe65      1.0  0.88208  0.78390  0.18822  1.0000
  S   S131      1.0  0.92804  0.79999  0.20285  1.0000
  S   S132      1.0  0.83831  0.80767  0.19294  1.0000
  Fe  Fe66      1.0  0.90411  0.72435  0.16994  1.0000
  S   S133      1.0  0.95205  0.73476  0.18320  1.0000
  S   S134      1.0  0.89038  0.67928  0.15334  1.0000
  Fe  Fe67      1.0  0.93227  0.75479  0.22135  1.0000
  C   C914      1.0  0.73954  0.90652  0.28112  1.0000
  Fe  Fe68      1.0  0.94416  0.77895  0.16328  1.0000
  C   C915      1.0  0.86325  0.54902  0.14391  1.0000
  S   S135      1.0  0.88510  0.74065  0.20983  1.0000
  S   S136      1.0  0.89757  0.76660  0.14689  1.0000
  C   C916      1.0  0.71267  0.81298  0.21634  1.0000
  H   H736      1.0  0.93689  0.88350  0.09485  1.0000
  H   H737      1.0  0.94417  0.66255  0.18048  1.0000
  H   H738      1.0  0.93305  0.95601  0.04138  1.0000
  S   S137      1.0  0.59421  0.52325  0.05063  1.0000
  C   C917      1.0  0.69635  0.96331  0.18845  1.0000
  H   H739      1.0  0.53801  0.71871  0.19712  1.0000
  H   H740      1.0  0.87239  0.72665  0.27423  1.0000
  C   C918      1.0  0.69377  0.91734  0.21353  1.0000
  C   C919      1.0  0.69646  0.59692  0.06552  1.0000
  C   C920      1.0  0.95639  0.84505  0.11385  1.0000
  C   C921      1.0  0.74313  0.59811  0.09272  1.0000
  H   H741      1.0  0.93677  0.83994  0.12587  1.0000
  C   C922      1.0  0.78845  0.66311  0.14808  1.0000
  C   C923      1.0  0.79997  0.69206  0.14989  1.0000
  C   C924      1.0  0.83125  0.69725  0.15231  1.0000
  C   C925      1.0  0.85110  0.67352  0.15183  1.0000
  C   C926      1.0  0.83956  0.64466  0.14962  1.0000
  C   C927      1.0  0.80829  0.63943  0.14827  1.0000
  H   H742      1.0  0.78475  0.71050  0.14978  1.0000
  H   H743      1.0  0.84001  0.71963  0.15403  1.0000
  H   H744      1.0  0.85494  0.62640  0.14901  1.0000
  H   H745      1.0  0.79947  0.61714  0.14667  1.0000
  C   C928      1.0  0.61598  0.52258  0.08195  1.0000
  C   C929      1.0  0.61392  0.49898  0.10027  1.0000
  C   C930      1.0  0.63238  0.49848  0.12449  1.0000
  C   C931      1.0  0.65243  0.52193  0.13099  1.0000
  C   C932      1.0  0.65404  0.54590  0.11304  1.0000
  C   C933      1.0  0.63600  0.54605  0.08848  1.0000
  C   C934      1.0  0.77931  0.57051  0.31799  1.0000
  H   H746      1.0  0.50299  0.63359  0.21931  1.0000
  H   H747      1.0  0.66948  0.56405  0.11789  1.0000
  H   H748      1.0  0.63763  0.56436  0.07444  1.0000
  H   H749      1.0  0.89185  0.61713  0.28916  1.0000
  C   C935      1.0  0.77565  0.56556  0.28915  1.0000
  C   C936      1.0  0.80052  0.56787  0.27200  1.0000
  C   C937      1.0  0.82872  0.57603  0.28356  1.0000
  H   H750      1.0  0.63103  0.47993  0.13835  1.0000
  H   H751      1.0  0.75381  0.55923  0.28029  1.0000
  H   H752      1.0  0.84778  0.57831  0.27021  1.0000
  C   C938      1.0  0.94867  0.65946  0.30669  1.0000
  C   C939      1.0  0.53862  0.69485  0.19554  1.0000
  C   C940      1.0  0.94152  0.71244  0.30913  1.0000
  H   H753      1.0  0.77930  0.55534  0.03861  1.0000
  H   H754      1.0  0.94643  0.57937  0.26560  1.0000
  C   C941      1.0  0.96488  0.47903  0.19874  1.0000
  C   C942      1.0  0.92814  0.56362  0.26755  1.0000
  C   C943      1.0  0.91927  0.55624  0.29434  1.0000
  C   C944      1.0  0.76699  0.65700  0.29455  1.0000
  C   C945      1.0  0.74991  0.49315  0.14181  1.0000
  C   C946      1.0  0.66486  0.66465  0.26255  1.0000
  C   C947      1.0  0.69235  0.68023  0.26503  1.0000
  C   C948      1.0  0.51800  0.67768  0.20998  1.0000
  H   H755      1.0  0.75819  0.86619  0.29731  1.0000
  H   H756      1.0  0.67633  0.60785  0.05800  1.0000
  H   H757      1.0  0.80023  0.89109  0.27715  1.0000
  C   C949      1.0  0.94650  0.50159  0.20843  1.0000
  H   H758      1.0  0.81487  0.55048  0.00052  1.0000
  H   H759      1.0  0.71848  0.79761  0.19992  1.0000
  C   C950      1.0  0.79059  0.81473  0.26352  1.0000
  C   C951      1.0  0.79845  0.81060  0.23556  1.0000
  C   C952      1.0  0.82878  0.80997  0.22824  1.0000
  C   C953      1.0  0.85132  0.81292  0.24902  1.0000
  C   C954      1.0  0.84352  0.81799  0.27678  1.0000
  H   H760      1.0  0.76716  0.81555  0.26905  1.0000
  H   H761      1.0  0.78119  0.80766  0.21950  1.0000
  H   H762      1.0  0.87479  0.81240  0.24358  1.0000
  H   H763      1.0  0.57610  0.69487  0.16821  1.0000
  C   C955      1.0  0.75557  0.74801  0.24297  1.0000
  C   C956      1.0  0.74768  0.73181  0.21887  1.0000
  C   C957      1.0  0.76127  0.70475  0.21372  1.0000
  C   C958      1.0  0.78275  0.69387  0.23262  1.0000
  C   C959      1.0  0.79099  0.71016  0.25679  1.0000
  C   C960      1.0  0.77714  0.73730  0.26186  1.0000
  P   P31       1.0  0.81539  0.69448  0.28319  1.0000
  H   H764      1.0  0.56673  0.57359  0.13940  1.0000
  C   C961      1.0  0.84385  0.67123  0.26883  1.0000
  C   C962      1.0  0.85725  0.64968  0.28557  1.0000
  C   C963      1.0  0.89162  0.63785  0.24912  1.0000
  C   C964      1.0  0.87833  0.65911  0.23214  1.0000
  C   C965      1.0  0.85460  0.67591  0.24201  1.0000
  C   C966      1.0  0.86230  0.73543  0.29281  1.0000
  H   H765      1.0  0.57797  0.52390  0.15625  1.0000
  C   C967      1.0  0.69838  0.85236  0.25909  1.0000
  C   C968      1.0  0.69042  0.80541  0.23510  1.0000
  H   H766      1.0  0.74478  0.76876  0.24734  1.0000
  H   H767      1.0  0.73095  0.74008  0.20428  1.0000
  H   H768      1.0  0.75499  0.69199  0.19522  1.0000
  H   H769      1.0  0.79245  0.67249  0.22857  1.0000
  H   H770      1.0  0.78267  0.75014  0.28053  1.0000
  H   H771      1.0  0.91060  0.62556  0.24211  1.0000
  H   H772      1.0  0.88686  0.66317  0.21161  1.0000
  H   H773      1.0  0.84524  0.69296  0.22894  1.0000
  C   C969      1.0  0.56024  0.68126  0.17926  1.0000
  C   C970      1.0  0.70132  0.56736  0.05826  1.0000
  C   C971      1.0  0.68305  0.82526  0.25624  1.0000
  C   C972      1.0  0.62027  0.56393  0.20362  1.0000
  C   C973      1.0  0.73791  0.50560  0.11755  1.0000
  C   C974      1.0  0.61452  0.59223  0.19380  1.0000
  P   P32       1.0  0.58985  0.63292  0.15687  1.0000
  C   C975      1.0  0.62455  0.65441  0.16019  1.0000
  C   C976      1.0  0.59146  0.61084  0.10240  1.0000
  C   C977      1.0  0.64338  0.65802  0.13737  1.0000
  C   C978      1.0  0.67050  0.67400  0.14047  1.0000
  C   C979      1.0  0.67903  0.68656  0.16625  1.0000
  C   C980      1.0  0.66036  0.68338  0.18897  1.0000
  C   C981      1.0  0.63328  0.66735  0.18602  1.0000
  C   C982      1.0  0.88111  0.63314  0.27578  1.0000
  H   H774      1.0  0.63545  0.56117  0.22145  1.0000
  H   H775      1.0  0.62492  0.61090  0.20464  1.0000
  H   H776      1.0  0.61032  0.59781  0.10967  1.0000
  H   H777      1.0  0.71900  0.94873  0.27245  1.0000
  H   H778      1.0  0.63770  0.64810  0.11732  1.0000
  H   H779      1.0  0.68550  0.67597  0.12314  1.0000
  H   H780      1.0  0.70052  0.69810  0.16874  1.0000
  H   H781      1.0  0.66725  0.69270  0.20908  1.0000
  H   H782      1.0  0.61960  0.66452  0.20417  1.0000
  H   H783      1.0  0.54102  0.60936  0.19072  1.0000
  H   H784      1.0  0.71352  0.63503  0.08886  1.0000
  H   H785      1.0  0.67909  0.78406  0.23361  1.0000
  S   S138      1.0  0.80442  0.82761  0.31873  1.0000
  C   C983      1.0  0.74877  0.88747  0.30238  1.0000
  C   C984      1.0  0.83484  0.72407  0.30222  1.0000
  C   C985      1.0  0.93377  0.92931  0.00424  1.0000
  H   H786      1.0  0.86234  0.53891  0.12335  1.0000
  H   H787      1.0  0.84971  0.64593  0.30642  1.0000
  C   C986      1.0  0.59627  0.59616  0.16989  1.0000
  C   C987      1.0  0.71730  0.61224  0.08285  1.0000
  C   C988      1.0  0.95513  0.66188  0.27837  1.0000
  C   C989      1.0  0.54058  0.63323  0.19185  1.0000
  C   C990      1.0  0.74924  0.63966  0.31171  1.0000
  C   C991      1.0  0.60728  0.53930  0.18999  1.0000
  C   C992      1.0  0.58201  0.57135  0.15716  1.0000
  C   C993      1.0  0.58786  0.54302  0.16697  1.0000
  C   C994      1.0  0.57742  0.63047  0.12069  1.0000
  C   C995      1.0  0.56153  0.65034  0.17748  1.0000
  H   H788      1.0  0.75931  0.61002  0.10611  1.0000
  H   H789      1.0  0.65371  0.48497  0.99099  1.0000
  H   H790      1.0  0.93551  0.90883  0.01556  1.0000
  C   C996      1.0  0.55620  0.62360  0.06529  1.0000
  C   C997      1.0  0.55301  0.64711  0.11076  1.0000
  H   H791      1.0  0.68074  0.89822  0.21963  1.0000
  C   C998      1.0  0.95654  0.86969  0.09628  1.0000
  C   C999      1.0  0.74002  0.94648  0.21478  1.0000
  H   H792      1.0  0.93082  0.56613  0.31236  1.0000
  C   C1000     1.0  0.76071  0.48535  0.01654  1.0000
  C   C1001     1.0  0.72702  0.55291  0.06851  1.0000
  C   C1002     1.0  0.66677  0.72225  0.28552  1.0000
  C   C1003     1.0  0.81320  0.81884  0.28412  1.0000
  H   H793      1.0  0.72007  0.52156  0.11922  1.0000
  H   H794      1.0  0.54177  0.66245  0.12429  1.0000
  H   H795      1.0  0.86296  0.87773  0.21249  1.0000
  C   C1004     1.0  0.83913  0.57661  0.18033  1.0000
  H   H796      1.0  0.59834  0.48098  0.09566  1.0000
  C   C1005     1.0  0.79974  0.53228  0.00500  1.0000
  C   C1006     1.0  0.83391  0.88575  0.24689  1.0000
  S   S139      1.0  0.51440  0.48335  0.04436  1.0000
  S   S140      1.0  0.94949  0.75017  0.26575  1.0000
  C   C1007     1.0  0.87702  0.75867  0.30725  1.0000
  C   C1008     1.0  0.68010  0.93831  0.19641  1.0000
  H   H797      1.0  0.68467  0.55577  0.04519  1.0000
  C   C1009     1.0  0.93235  0.95616  0.01882  1.0000
  C   C1010     1.0  0.89498  0.53693  0.29796  1.0000
  C   C1011     1.0  0.72813  0.84002  0.21920  1.0000
  H   H798      1.0  0.69230  0.86725  0.27578  1.0000
  C   C1012     1.0  0.83227  0.58157  0.31226  1.0000
  C   C1013     1.0  0.74797  0.56859  0.08570  1.0000
  C   C1014     1.0  0.94750  0.71488  0.28071  1.0000
  H   H799      1.0  0.69921  0.51287  0.00734  1.0000
  C   C1015     1.0  0.72176  0.85959  0.24112  1.0000
  C   C1016     1.0  0.68297  0.47749  0.06745  1.0000
  H   H800      1.0  0.52349  0.65635  0.07562  1.0000
  H   H801      1.0  0.59091  0.59118  0.06123  1.0000
  H   H802      1.0  0.76105  0.65807  0.27268  1.0000
  C   C1017     1.0  0.88978  0.54810  0.16029  1.0000
  H   H803      1.0  0.74550  0.84506  0.20464  1.0000
  C   C1018     1.0  0.63843  0.67818  0.27098  1.0000
  H   H804      1.0  0.87571  0.52264  0.23022  1.0000
  C   C1019     1.0  0.96817  0.53504  0.17524  1.0000
  C   C1020     1.0  0.75970  0.51150  0.03256  1.0000
  C   C1021     1.0  0.95293  0.64350  0.19127  1.0000
  C   C1022     1.0  0.94809  0.52984  0.19682  1.0000
  H   H805      1.0  0.61864  0.71732  0.28799  1.0000
  H   H806      1.0  0.76799  0.55800  0.09389  1.0000
  C   C1023     1.0  0.63931  0.70699  0.28186  1.0000
  C   C1024     1.0  0.95381  0.68943  0.26522  1.0000
  H   H807      1.0  0.66596  0.81922  0.27095  1.0000
  H   H808      1.0  0.71272  0.67003  0.25817  1.0000
  Fe  Fe69      1.0  0.56467  0.48339  0.03932  1.0000
  P   P33       1.0  0.74169  0.89462  0.24512  1.0000
  H   H809      1.0  0.76318  0.95001  0.22196  1.0000
  H   H810      1.0  0.90913  0.53711  0.15204  1.0000
  H   H811      1.0  0.89795  0.76758  0.29959  1.0000
  H   H812      1.0  0.76966  0.88953  0.19085  1.0000
  H   H813      1.0  0.74121  0.49957  0.16189  1.0000
  C   C1025     1.0  0.88841  0.53190  0.24791  1.0000
  C   C1026     1.0  0.78057  0.89082  0.23511  1.0000
  H   H814      1.0  0.71469  0.72061  0.27966  1.0000
  H   H815      1.0  0.88752  0.53219  0.31875  1.0000
  C   C1027     1.0  0.80426  0.88976  0.25512  1.0000
  C   C1028     1.0  0.69343  0.70884  0.27713  1.0000
  C   C1029     1.0  0.78738  0.88870  0.20674  1.0000
  C   C1030     1.0  0.93559  0.61755  0.19236  1.0000
  C   C1031     1.0  0.91296  0.55127  0.24402  1.0000
  C   C1032     1.0  0.81702  0.88430  0.19863  1.0000
  C   C1033     1.0  0.72390  0.92121  0.22267  1.0000
  H   H816      1.0  0.97669  0.94002  0.12364  1.0000
  C   C1034     1.0  0.84025  0.88267  0.21871  1.0000
  H   H817      1.0  0.96073  0.64239  0.26653  1.0000
  P   P34       1.0  0.73324  0.51444  0.06041  1.0000
  C   C1035     1.0  0.89095  0.56112  0.18703  1.0000
  H   H818      1.0  0.82192  0.88082  0.17686  1.0000
  C   C1036     1.0  0.87954  0.52476  0.27474  1.0000
  S   S141      1.0  0.66588  0.75874  0.29857  1.0000
  H   H819      1.0  0.81961  0.58789  0.18812  1.0000
  C   C1037     1.0  0.94654  0.59313  0.20707  1.0000
  C   C1038     1.0  0.83785  0.56306  0.15403  1.0000
  C   C1039     1.0  0.68774  0.49860  0.02165  1.0000
  H   H820      1.0  0.91350  0.61709  0.18216  1.0000
  H   H821      1.0  0.81722  0.56377  0.14149  1.0000
  C   C1040     1.0  0.77946  0.53494  0.02667  1.0000
  H   H822      1.0  0.65685  0.93517  0.18938  1.0000
  C   C1041     1.0  0.51893  0.64690  0.20807  1.0000
  C   C1042     1.0  0.74891  0.49768  0.09141  1.0000
  H   H823      1.0  0.69026  0.47548  0.08902  1.0000
  P   P35       1.0  0.92456  0.55934  0.20898  1.0000
  H   H824      1.0  0.54768  0.62049  0.04406  1.0000
  C   C1043     1.0  0.86557  0.57585  0.19672  1.0000
  H   H825      1.0  0.85178  0.88348  0.26252  1.0000
  H   H826      1.0  0.86587  0.58641  0.21712  1.0000
  C   C1044     1.0  0.77170  0.47654  0.08985  1.0000
  H   H827      1.0  0.67644  0.66592  0.31954  1.0000
  H   H828      1.0  0.86107  0.82143  0.29259  1.0000
  H   H829      1.0  0.72967  0.62792  0.30296  1.0000
  C   C1045     1.0  0.80047  0.50625  0.98909  1.0000
  C   C1046     1.0  0.69861  0.49579  0.04925  1.0000
  C   C1047     1.0  0.54253  0.64370  0.08313  1.0000
  H   H830      1.0  0.61713  0.66633  0.26909  1.0000
  H   H831      1.0  0.93118  0.49684  0.22496  1.0000
  C   C1048     1.0  0.79251  0.67216  0.30551  1.0000
  C   C1049     1.0  0.72675  0.93371  0.28830  1.0000
  H   H832      1.0  0.96958  0.55657  0.16574  1.0000
  C   C1050     1.0  0.72312  0.94144  0.31634  1.0000
  H   H833      1.0  0.50137  0.68824  0.22273  1.0000
  H   H834      1.0  0.95853  0.69118  0.24334  1.0000
  C   C1051     1.0  0.97554  0.59476  0.21956  1.0000
  C   C1052     1.0  0.72628  0.96741  0.19766  1.0000
  C   C1053     1.0  0.66205  0.48279  0.01226  1.0000
  C   C1054     1.0  0.78097  0.48280  0.99487  1.0000
  H   H835      1.0  0.59274  0.53305  0.98761  1.0000
  Fe  Fe70      1.0  0.76061  0.81080  0.33559  1.0000
  H   H836      1.0  0.95143  0.50732  0.47688  1.0000
  Fe  Fe71      1.0  0.70613  0.83122  0.36868  1.0000
  S   S142      1.0  0.68947  0.78475  0.37404  1.0000
  S   S143      1.0  0.68307  0.87354  0.38170  1.0000
  Fe  Fe72      1.0  0.73828  0.77411  0.38263  1.0000
  S   S144      1.0  0.75349  0.74825  0.41999  1.0000
  C   C1055     1.0  0.61258  0.96918  0.61714  1.0000
  S   S145      1.0  0.75395  0.82114  0.38077  1.0000
  C   C1056     1.0  0.56766  0.95242  0.41786  1.0000
  Fe  Fe73      1.0  0.92081  0.62161  0.36010  1.0000
  S   S146      1.0  0.90100  0.57716  0.36992  1.0000
  Fe  Fe74      1.0  0.89062  0.65201  0.40791  1.0000
  S   S147      1.0  0.86881  0.61030  0.42208  1.0000
  S   S148      1.0  0.88332  0.69361  0.43285  1.0000
  Fe  Fe75      1.0  0.91306  0.58890  0.41434  1.0000
  S   S149      1.0  0.92653  0.55472  0.44604  1.0000
  Fe  Fe76      1.0  0.85849  0.60187  0.37690  1.0000
  S   S150      1.0  0.81221  0.58411  0.36563  1.0000
  S   S151      1.0  0.93635  0.63158  0.40423  1.0000
  S   S152      1.0  0.87695  0.64536  0.36297  1.0000
  Fe  Fe77      1.0  0.54841  0.94569  0.55586  1.0000
  S   S153      1.0  0.59838  0.94168  0.55211  1.0000
  S   S154      1.0  0.52311  0.93559  0.59490  1.0000
  H   H837      1.0  0.67577  0.83301  0.42773  1.0000
  Fe  Fe78      1.0  0.58867  0.92593  0.50824  1.0000
  S   S155      1.0  0.61336  0.88457  0.49527  1.0000
  Fe  Fe79      1.0  0.54069  0.97302  0.49896  1.0000
  S   S156      1.0  0.53852  0.92611  0.51358  1.0000
  H   H838      1.0  0.57097  0.86407  0.58161  1.0000
  C   C1057     1.0  0.97263  0.49137  0.54261  1.0000
  C   C1058     1.0  0.95412  0.51219  0.36754  1.0000
  C   C1059     1.0  0.50650  0.94057  0.40683  1.0000
  C   C1060     1.0  0.55494  0.85030  0.45090  1.0000
  C   C1061     1.0  0.75714  0.63701  0.33990  1.0000
  C   C1062     1.0  0.83713  0.75974  0.34054  1.0000
  C   C1063     1.0  0.89164  0.47901  0.37593  1.0000
  C   C1064     1.0  0.75514  0.64407  0.42598  1.0000
  C   C1065     1.0  0.80277  0.65480  0.44998  1.0000
  H   H839      1.0  0.87567  0.78908  0.34205  1.0000
  C   C1066     1.0  0.63060  0.95260  0.63531  1.0000
  H   H840      1.0  0.59089  0.82643  0.47080  1.0000
  C   C1067     1.0  0.80761  0.57863  0.32953  1.0000
  Fe  Fe80      1.0  0.70096  0.77753  0.32912  1.0000
  H   H841      1.0  0.89372  0.51041  0.41043  1.0000
  C   C1068     1.0  0.95807  0.48324  0.37696  1.0000
  C   C1069     1.0  0.79115  0.73647  0.42023  1.0000
  C   C1070     1.0  0.80093  0.71583  0.40058  1.0000
  C   C1071     1.0  0.82949  0.70293  0.40392  1.0000
  C   C1072     1.0  0.84854  0.71110  0.42656  1.0000
  C   C1073     1.0  0.83916  0.73262  0.44549  1.0000
  C   C1074     1.0  0.81042  0.74492  0.44257  1.0000
  H   H842      1.0  0.78598  0.70888  0.38353  1.0000
  H   H843      1.0  0.83653  0.68624  0.38941  1.0000
  H   H844      1.0  0.85372  0.73907  0.46300  1.0000
  H   H845      1.0  0.80285  0.76061  0.45796  1.0000
  C   C1075     1.0  0.66467  0.87652  0.41379  1.0000
  C   C1076     1.0  0.65007  0.90290  0.42055  1.0000
  C   C1077     1.0  0.63485  0.90589  0.44575  1.0000
  C   C1078     1.0  0.63390  0.88242  0.46427  1.0000
  C   C1079     1.0  0.64904  0.85626  0.45781  1.0000
  C   C1080     1.0  0.66429  0.85325  0.43262  1.0000
  H   H846      1.0  0.65047  0.92104  0.40616  1.0000
  H   H847      1.0  0.62375  0.92624  0.45081  1.0000
  H   H848      1.0  0.64873  0.83814  0.47220  1.0000
  H   H849      1.0  0.74238  0.63120  0.41045  1.0000
  H   H850      1.0  0.73042  0.96185  0.61259  1.0000
  H   H851      1.0  0.81877  0.52020  0.35318  1.0000
  C   C1081     1.0  0.78290  0.65148  0.35082  1.0000
  C   C1082     1.0  0.67723  0.95732  0.54284  1.0000
  C   C1083     1.0  0.73230  0.92219  0.33733  1.0000
  H   H852      1.0  0.84719  0.53602  0.39598  1.0000
  H   H853      1.0  0.66577  0.88311  0.54022  1.0000
  H   H854      1.0  0.72881  0.92767  0.35905  1.0000
  C   C1084     1.0  0.64574  0.60157  0.48089  1.0000
  C   C1085     1.0  0.78920  0.67717  0.46526  1.0000
  C   C1086     1.0  0.67120  0.93822  0.58953  1.0000
  H   H855      1.0  0.78966  0.64873  0.37241  1.0000
  H   H856      1.0  0.71854  0.69744  0.33812  1.0000
  H   H857      1.0  0.82708  0.76953  0.35874  1.0000
  H   H858      1.0  0.75238  0.88034  0.34658  1.0000
  S   S157      1.0  0.59017  0.97121  0.48971  1.0000
  H   H859      1.0  0.74377  0.62315  0.35313  1.0000
  H   H860      1.0  0.79647  0.62123  0.41810  1.0000
  H   H861      1.0  0.96294  0.47825  0.52546  1.0000
  H   H862      1.0  0.97453  0.58708  0.61031  1.0000
  H   H863      1.0  0.71628  0.61331  0.45744  1.0000
  C   C1087     1.0  0.74544  0.89539  0.33033  1.0000
  H   H864      1.0  0.48226  0.91234  0.63455  1.0000
  H   H865      1.0  0.57893  0.90059  0.61991  1.0000
  C   C1088     1.0  0.68000  0.64481  0.45418  1.0000
  C   C1089     1.0  0.64957  0.64972  0.45988  1.0000
  P   P36       1.0  0.70128  0.67267  0.43628  1.0000
  C   C1090     1.0  0.69054  0.70796  0.45077  1.0000
  C   C1091     1.0  0.74121  0.66637  0.44146  1.0000
  C   C1092     1.0  0.75860  0.68311  0.46093  1.0000
  C   C1093     1.0  0.68989  0.71192  0.47982  1.0000
  C   C1094     1.0  0.68120  0.73892  0.49136  1.0000
  C   C1095     1.0  0.67281  0.76208  0.47400  1.0000
  C   C1096     1.0  0.67287  0.75816  0.44512  1.0000
  C   C1097     1.0  0.68157  0.73120  0.43350  1.0000
  C   C1098     1.0  0.69296  0.67052  0.39929  1.0000
  C   C1099     1.0  0.71096  0.68633  0.38091  1.0000
  C   C1100     1.0  0.70472  0.68502  0.35225  1.0000
  C   C1101     1.0  0.68095  0.66733  0.34172  1.0000
  C   C1102     1.0  0.66309  0.65130  0.35978  1.0000
  C   C1103     1.0  0.66896  0.65291  0.38851  1.0000
  C   C1104     1.0  0.66224  0.88725  0.64602  1.0000
  H   H866      1.0  0.63898  0.67018  0.45386  1.0000
  H   H867      1.0  0.74908  0.70143  0.47211  1.0000
  H   H868      1.0  0.80274  0.69079  0.47961  1.0000
  H   H869      1.0  0.69649  0.69422  0.49352  1.0000
  H   H870      1.0  0.68131  0.74204  0.51376  1.0000
  H   H871      1.0  0.66659  0.78319  0.48285  1.0000
  H   H872      1.0  0.66681  0.77625  0.43167  1.0000
  H   H873      1.0  0.68195  0.72897  0.41107  1.0000
  H   H874      1.0  0.72975  0.69979  0.38872  1.0000
  C   C1105     1.0  0.80073  0.66865  0.33365  1.0000
  C   C1106     1.0  0.54940  0.97411  0.40615  1.0000
  H   H875      1.0  0.64470  0.63765  0.35136  1.0000
  H   H876      1.0  0.65481  0.64030  0.40206  1.0000
  H   H877      1.0  0.93690  0.73204  0.32130  1.0000
  C   C1107     1.0  0.96193  0.53797  0.44460  1.0000
  C   C1108     1.0  0.97334  0.61434  0.48451  1.0000
  C   C1109     1.0  0.50232  0.90224  0.59531  1.0000
  C   C1110     1.0  0.94242  0.61970  0.48563  1.0000
  C   C1111     1.0  0.66920  0.90504  0.54917  1.0000
  H   H878      1.0  0.90717  0.65139  0.47893  1.0000
  C   C1112     1.0  0.48987  0.88307  0.45795  1.0000
  H   H879      1.0  0.93221  0.52216  0.36716  1.0000
  H   H880      1.0  0.60914  0.63222  0.47765  1.0000
  H   H881      1.0  0.93647  0.68315  0.34380  1.0000
  H   H882      1.0  0.68614  0.57571  0.48089  1.0000
  C   C1113     1.0  0.78576  0.63822  0.43036  1.0000
  H   H883      1.0  0.82674  0.65108  0.45269  1.0000
  C   C1114     1.0  0.69300  0.61788  0.46172  1.0000
  H   H884      1.0  0.48264  0.93659  0.40289  1.0000
  S   S158      1.0  0.74823  0.76269  0.33822  1.0000
  C   C1115     1.0  0.67379  0.92886  0.53160  1.0000
  C   C1116     1.0  0.48940  0.85405  0.57554  1.0000
  C   C1117     1.0  0.85495  0.51740  0.38378  1.0000
  H   H885      1.0  0.54788  0.81519  0.59106  1.0000
  C   C1118     1.0  0.58717  0.81618  0.42689  1.0000
  H   H886      1.0  0.63255  0.58490  0.49124  1.0000
  C   C1119     1.0  0.67592  0.59640  0.47508  1.0000
  H   H887      1.0  0.49178  0.83766  0.55922  1.0000
  C   C1120     1.0  0.63257  0.62821  0.47326  1.0000
  C   C1121     1.0  0.67581  0.96204  0.57162  1.0000
  H   H888      1.0  0.59130  0.95710  0.42231  1.0000
  H   H889      1.0  0.97533  0.55122  0.35142  1.0000
  C   C1122     1.0  0.57080  0.96508  0.64832  1.0000
  C   C1123     1.0  0.86451  0.77075  0.33115  1.0000
  C   C1124     1.0  0.96848  0.51495  0.46289  1.0000
  H   H890      1.0  0.60626  0.80152  0.42719  1.0000
  H   H891      1.0  0.57893  0.81141  0.38270  1.0000
  C   C1125     1.0  0.66797  0.90961  0.57800  1.0000
  C   C1126     1.0  0.57177  0.82183  0.40182  1.0000
  C   C1127     1.0  0.50443  0.88137  0.57380  1.0000
  H   H892      1.0  0.54979  0.86212  0.46993  1.0000
  H   H893      1.0  0.56996  0.90835  0.43334  1.0000
  H   H894      1.0  0.92689  0.60188  0.49032  1.0000
  C   C1128     1.0  0.54766  0.84142  0.40130  1.0000
  C   C1129     1.0  0.93126  0.64752  0.47915  1.0000
  C   C1130     1.0  0.57853  0.83018  0.45143  1.0000
  C   C1131     1.0  0.53896  0.85573  0.42589  1.0000
  C   C1132     1.0  0.52476  0.91851  0.41839  1.0000
  H   H895      1.0  0.83675  0.47841  0.32463  1.0000
  C   C1133     1.0  0.48431  0.89601  0.61812  1.0000
  C   C1134     1.0  0.57035  0.87868  0.62442  1.0000
  C   C1135     1.0  0.56574  0.85813  0.60276  1.0000
  C   C1136     1.0  0.55273  0.83059  0.60810  1.0000
  H   H896      1.0  0.82116  0.67883  0.34222  1.0000
  H   H897      1.0  0.67387  0.92528  0.50921  1.0000
  C   C1137     1.0  0.55542  0.92474  0.42407  1.0000
  H   H898      1.0  0.51835  0.88586  0.55623  1.0000
  H   H899      1.0  0.94206  0.69132  0.46564  1.0000
  C   C1138     1.0  0.83895  0.50856  0.35958  1.0000
  H   H900      1.0  0.66400  0.89075  0.59086  1.0000
  H   H901      1.0  0.53638  0.84573  0.38159  1.0000
  P   P37       1.0  0.66908  0.94472  0.62678  1.0000
  P   P38       1.0  0.50899  0.88237  0.42513  1.0000
  C   C1139     1.0  0.95102  0.67008  0.47166  1.0000
  C   C1140     1.0  0.88126  0.50283  0.39189  1.0000
  C   C1141     1.0  0.54466  0.82339  0.63516  1.0000
  C   C1142     1.0  0.94140  0.68475  0.32193  1.0000
  H   H902      1.0  0.53407  0.80217  0.63855  1.0000
  H   H903      1.0  0.96826  0.61416  0.56599  1.0000
  C   C1143     1.0  0.48616  0.85702  0.47314  1.0000
  C   C1144     1.0  0.68113  0.91240  0.64555  1.0000
  C   C1145     1.0  0.51886  0.96816  0.40060  1.0000
  H   H904      1.0  0.64036  0.88717  0.63538  1.0000
  S   S159      1.0  0.71412  0.82486  0.32304  1.0000
  H   H905      1.0  0.80090  0.72879  0.33338  1.0000
  H   H906      1.0  0.93035  0.47747  0.61104  1.0000
  C   C1146     1.0  0.97584  0.47902  0.56903  1.0000
  C   C1147     1.0  0.48198  0.87286  0.39751  1.0000
  C   C1148     1.0  0.48753  0.88099  0.36996  1.0000
  H   H907      1.0  0.49451  0.83623  0.46534  1.0000
  S   S160      1.0  0.95058  0.62482  0.32292  1.0000
  C   C1149     1.0  0.56249  0.87151  0.65152  1.0000
  H   H908      1.0  0.76019  0.56820  0.33131  1.0000
  H   H909      1.0  0.50786  0.89318  0.36510  1.0000
  C   C1150     1.0  0.84917  0.48501  0.34349  1.0000
  C   C1151     1.0  0.82227  0.73665  0.32604  1.0000
  H   H910      1.0  0.54740  0.96924  0.65276  1.0000
  H   H911      1.0  0.71273  0.96211  0.32186  1.0000
  H   H912      1.0  0.85412  0.58795  0.32103  1.0000
  H   H913      1.0  0.48019  0.92977  0.45704  1.0000
  C   C1152     1.0  0.58901  0.94972  0.66718  1.0000
  C   C1153     1.0  0.63626  0.50329  0.88905  1.0000
  H   H914      1.0  0.58708  0.49862  0.82991  1.0000
  C   C1154     1.0  0.53782  0.79483  0.69707  1.0000
  H   H915      1.0  0.70703  0.84182  0.68431  1.0000
  C   C1155     1.0  0.52952  0.73452  0.70789  1.0000
  C   C1156     1.0  0.48893  0.83796  0.72351  1.0000
  P   P39       1.0  0.57324  0.50135  0.88979  1.0000
  H   H916      1.0  0.48042  0.73859  0.77874  1.0000
  C   C1157     1.0  0.60993  0.48693  0.88218  1.0000
  H   H917      1.0  0.48493  0.68579  0.79136  1.0000
  H   H918      1.0  0.58863  0.49668  0.94900  1.0000
  C   C1158     1.0  0.96207  0.72793  0.90316  1.0000
  H   H919      1.0  0.48774  0.73810  0.68455  1.0000
  C   C1159     1.0  0.62412  0.86031  0.72406  1.0000
  H   H920      1.0  0.50457  0.62989  0.69566  1.0000
  C   C1160     1.0  0.58383  0.57027  0.96136  1.0000
  H   H921      1.0  0.50325  0.81298  0.85956  1.0000
  H   H922      1.0  0.64726  0.85954  0.71753  1.0000
  C   C1161     1.0  0.95547  0.75801  0.90335  1.0000
  P   P40       1.0  0.54109  0.83432  0.69264  1.0000
  H   H923      1.0  0.49462  0.79105  0.67499  1.0000
  C   C1162     1.0  0.57773  0.52869  0.91752  1.0000
  C   C1163     1.0  0.55558  0.51696  0.85902  1.0000
  C   C1164     1.0  0.52997  0.53459  0.86144  1.0000
  C   C1165     1.0  0.51653  0.54726  0.83793  1.0000
  C   C1166     1.0  0.52837  0.54233  0.81168  1.0000
  C   C1167     1.0  0.55376  0.52467  0.80895  1.0000
  C   C1168     1.0  0.56736  0.51203  0.83251  1.0000
  C   C1169     1.0  0.57489  0.55900  0.91231  1.0000
  H   H924      1.0  0.51417  0.52222  0.96620  1.0000
  C   C1170     1.0  0.50587  0.85063  0.70233  1.0000
  H   H925      1.0  0.49610  0.81784  0.73352  1.0000
  C   C1171     1.0  0.58507  0.51967  0.94467  1.0000
  H   H926      1.0  0.57031  0.56693  0.89151  1.0000
  C   C1172     1.0  0.51212  0.77954  0.68653  1.0000
  H   H927      1.0  0.57940  0.79065  0.72143  1.0000
  H   H928      1.0  0.63501  0.52511  0.89838  1.0000
  C   C1173     1.0  0.66459  0.49124  0.88443  1.0000
  C   C1174     1.0  0.97738  0.77876  0.91232  1.0000
  H   H929      1.0  0.57176  0.73780  0.73082  1.0000
  H   H930      1.0  0.50791  0.67698  0.66994  1.0000
  C   C1175     1.0  0.57764  0.57963  0.93422  1.0000
  C   C1176     1.0  0.60094  0.84837  0.70689  1.0000
  H   H931      1.0  0.63274  0.93207  0.67586  1.0000
  H   H932      1.0  0.52051  0.53889  0.88159  1.0000
  C   C1177     1.0  0.71838  0.88662  0.67380  1.0000
  H   H933      1.0  0.63542  0.88246  0.76303  1.0000
  H   H934      1.0  0.56296  0.52092  0.78857  1.0000
  C   C1178     1.0  0.55537  0.74942  0.71813  1.0000
  H   H935      1.0  0.58249  0.88388  0.77828  1.0000
  C   C1179     1.0  0.56440  0.86219  0.74116  1.0000
  H   H936      1.0  0.60640  0.83826  0.68712  1.0000
  H   H937      1.0  0.50759  0.48741  0.88709  1.0000
  H   H938      1.0  0.54150  0.86302  0.74829  1.0000
  H   H939      1.0  0.51786  0.55233  0.79354  1.0000
  H   H940      1.0  0.52561  0.71156  0.71296  1.0000
  C   C1180     1.0  0.58765  0.87403  0.75831  1.0000
  C   C1181     1.0  0.49575  0.87662  0.68984  1.0000
  H   H941      1.0  0.49697  0.56112  0.84022  1.0000
  H   H942      1.0  0.93329  0.76527  0.89665  1.0000
  C   C1182     1.0  0.93244  0.95534  0.96068  1.0000
  H   H943      1.0  0.58546  0.58617  0.97840  1.0000
  C   C1183     1.0  0.61746  0.87320  0.74972  1.0000
  C   C1184     1.0  0.50816  0.74948  0.69180  1.0000
  C   C1185     1.0  0.58784  0.54032  0.96654  1.0000
  C   C1186     1.0  0.67160  0.86187  0.65984  1.0000
  C   C1187     1.0  0.55958  0.77946  0.71273  1.0000
  H   H944      1.0  0.68489  0.50361  0.89029  1.0000
  C   C1188     1.0  0.57084  0.84961  0.71513  1.0000
  H   H945      1.0  0.93563  0.90815  0.96395  1.0000
  H   H946      1.0  0.50828  0.88687  0.67352  1.0000
  C   C1189     1.0  0.48723  0.66402  0.66906  1.0000
  H   H947      1.0  0.49605  0.78992  0.81251  1.0000
  H   H948      1.0  0.57446  0.60287  0.93017  1.0000
  H   H949      1.0  0.57989  0.94254  0.68669  1.0000
  C   C1190     1.0  0.48072  0.80878  0.85106  1.0000
  C   C1191     1.0  0.49580  0.52465  0.95118  1.0000
  H   H950      1.0  0.81615  0.50426  0.97227  1.0000
  C   C1192     1.0  0.49466  0.54959  0.93410  1.0000
  H   H951      1.0  0.95262  0.53933  0.70069  1.0000
  C   C1193     1.0  0.97094  0.51326  0.66747  1.0000
  H   H952      1.0  0.65717  0.84238  0.65955  1.0000
  H   H953      1.0  0.94504  0.71188  0.89628  1.0000
  H   H954      1.0  0.95006  0.50103  0.66385  1.0000
  H   H955      1.0  0.51218  0.56634  0.93615  1.0000
  C   C1194     1.0  0.48540  0.63744  0.68339  1.0000
  H   H956      1.0  0.97169  0.80190  0.91254  1.0000
  C   C1195     1.0  0.70919  0.91196  0.65977  1.0000
  C   C1196     1.0  0.61887  0.94359  0.66080  1.0000
  C   C1197     1.0  0.93380  0.92889  0.97519  1.0000
  H   H957      1.0  0.56582  0.88787  0.66796  1.0000
  C   C1198     1.0  0.69968  0.86154  0.67372  1.0000
  C   C1199     1.0  0.97229  0.53505  0.68843  1.0000
  H   H958      1.0  0.93347  0.95505  0.93817  1.0000
  H   H959      1.0  0.74015  0.88639  0.68458  1.0000
  C   C1200     1.0  0.54976  0.84370  0.65718  1.0000
  H   H960      1.0  0.72409  0.93105  0.66009  1.0000
