data_image0
_chemical_formula_structural       C2HC4HC3H2C2HCSHCH2C5HSPHCSCSCH2C3FeCHCHCH2C3SHSC2HSCH2CH2C2HCHC4FeHCHC2HCH2C4HC2H2CH3S2HC2SHCHC2HFeH2SPC2H3CH3Fe2HSHC2HCFeCHC2HC2HC2HC2H2C2H3CH2C7H3CFeSPCH2CHCFeC6HCSHFeHC2HCH2C2HC2HSH4CFeSCH2C3HC3HC2SC6HC3HSC2H3CHSHCHC3HCH6C5HSHCH2CH2SFeCSHCHCHC4HCHPHCSFePCHCHCH4CHCSC5H2C2H3C3H2CHC5HCHC4HCH3CH4CHC2H4CH2C2SHSCHC3HCHC9H2CSH3CHC2H2CHCH2CHC2HCFeC2H2SC3SC3H2FeC3HCHCH2C3HC2SC3PHCHFeCH2CHC5HCSCHCH2FeC5HCHC3PCSH2CH3C6HFeC2SHC4SH2CSFeH2SH2CHC3SCH2FeCSHC2HSCHFeC2FeCHCH6CHCHC2HCHC2HC6H2CHSC2HC3H3C5H2CHC5PHC4FeCSC2SC3H5CH4CH3CH4C2H2CHCH2CPHCSC2HC3H2PH4C2HPH2C6HCHC2HCH2SC2H4CHC2HFeSC3HC2HCH3C6HCHC5SH2CHC2HCFeHCHC4SC5SC2HFeSC6HCH2SC4HPH2CHCS2CH7C2FeHFeC3H7CSH7C4HC2HCHSHC2HC2H2C3HSC4SHCHC2HC2HC2FeC5HCHC3PCH2C2HCHCH2SH2C2H2CH4FeCHCH2C2HCHCH2SHC3H6C2H2SC3H3C3HCH3C2HS2HSHSCH2C4H2FeCH2CFeHCH2C2HCHFeH2PH2CHSC3SH3C4H2C3HCHCSHS2FeHC2PC2HSC6HCHS2C2HC4FeHCH5CHCHFeH3C2H2C6H2SHC2H2C2H3SFeC2FeCH2CHS2HC4H2C7FeCHC2H5CHCHCH5C2HSHCHC3HCHC2SPCH2CHC2HC3HSFeCHC3HCH3C2HC2H2CHCH2CH4SC3HCSHC5HC3H2C3FeH2CHC6SH2CH2CH2CH2SPCHPCH3C3HC3H2CH2C4HC2HCH2C5H2CH2C2HCSCHC5H5C2HC2HCHCH2C2H2C3FeCHCHC5HSC2H2C2H2CH2SHCH2CH2CHC2SCH2C2H2C4HC3HC4PCSHCH4PCHC2HC2PFeSC3FeCH4C2H3C2HC4H3C4SH2C2HCHCHC3H2C2S2C3PCH2C3H3CHC3HC3H6FeCH2C2HCH3CSHC2HC7HCSHC2HC2HCFeH3CH2CFeCHC2HCHFeC2PHCSH2CHCHCHCH2C4PCSCHC7HCHCH2C2SHC3H2CH2CPHCHSHC2HCH3CH3C6HSCHCFeCHC2HCH2C5HCHSH2C2HCPH4C4PC3H2C2HCH2PC2SFeHC3HC3FeH2CSHC3HSHCHC3SCSH3CSHSC2H2C6H2CHFeCHC3HCHSCHCPHCH2C2H2CH3C3FeHS2H3CHCH4CH3C2FeC4H7C2PSH2C2HCH2CFeC4HCHC3HC2H2CH3CH2C2H3CHCSC3HSCHCHSHCFeCH2C3HCHCH2FeCHSCHC2HSCFeC2H2C4H2CH4C2H3CHCHCH2C3HPSC8SCHCFeSH2C3HSHC2H2C3SPCHSC2H3FeH2C2H2SCSC5Fe2HCSFeHCHCFe2HC3H2SC3HSC5HC2HCSHCH3SHCHCSFeH3CH3CSHSC2FeCSCHC2HC2H2CSC2FeC2HS2H3CHFeS2C2HSH3C2H4C2HCHFeCSCH4SH2CHPH3CHC3H3CHCPCHSCHCHC3HC2HCH2CH3CH2C2H2SC5HPSCH2C2HC3H2CHC6H2CHCHC11HC2H3C3H2C2HC2H4C6HCH2C7HC2H8CHCSCHC2H3FeHSHCHC2HC2HC3S2CHCSCHFe2CSC2SH2C3H3CS2C2HC4H2C3HC2HSHC3PFeC3HSH2CFeCHFeH2C3HC3H5FeC2HCH2C8HFeH3CH5CH2PSH2C3HSC3HCHC2FeH2C3FeC3H2C4FeCH3CHC2HC4H2C2HC3H3C2H5C3HC2HCH3SH3C3HCH2PHCHCHCPH2C2HCHCHC6H2C5HC3HC3SH2C3H4PCH2CH2CHC3SHSC2HCH2C2HCHCH2C4
_chemical_formula_sum              "C1200 H960 S160 P40 Fe80"
_cell_length_a       34.3394
_cell_length_b       34.2423
_cell_length_c       27.3661
_cell_angle_alpha    88.8869
_cell_angle_beta     91.1902
_cell_angle_gamma    91.8828

_space_group_name_H-M_alt    "P 1"
_space_group_IT_number       1

loop_
  _space_group_symop_operation_xyz
  'x, y, z'

loop_
  _atom_site_type_symbol
  _atom_site_label
  _atom_site_symmetry_multiplicity
  _atom_site_fract_x
  _atom_site_fract_y
  _atom_site_fract_z
  _atom_site_occupancy
  C   C1        1.0  0.47177  0.54618  0.64136  1.0000
  C   C2        1.0  0.11141  0.49268  0.77798  1.0000
  H   H1        1.0  0.11948  0.37054  0.60171  1.0000
  C   C3        1.0  0.31020  0.12936  0.58038  1.0000
  C   C4        1.0  0.48673  0.47890  0.66012  1.0000
  C   C5        1.0  0.36349  0.13907  0.80711  1.0000
  C   C6        1.0  0.41523  0.10958  0.70142  1.0000
  H   H2        1.0  0.56445  0.53927  0.68717  1.0000
  C   C7        1.0  0.52415  0.49088  0.67595  1.0000
  C   C8        1.0  0.43899  0.06417  0.76369  1.0000
  C   C9        1.0  0.35266  0.25680  0.69551  1.0000
  H   H3        1.0  0.33376  0.23346  0.62655  1.0000
  H   H4        1.0  0.42382  0.41621  0.71145  1.0000
  C   C10       1.0  0.52848  0.35204  0.77122  1.0000
  C   C11       1.0  0.39517  0.40231  0.71345  1.0000
  H   H5        1.0  0.19212  0.28323  0.81123  1.0000
  C   C12       1.0  0.33742  0.38263  0.75830  1.0000
  S   S1        1.0  0.49326  0.08527  0.63229  1.0000
  H   H6        1.0  0.46926  0.53693  0.75481  1.0000
  C   C13       1.0  0.47690  0.43503  0.81787  1.0000
  H   H7        1.0  0.33078  0.35123  0.64108  1.0000
  H   H8        1.0  0.29325  0.27819  0.78864  1.0000
  C   C14       1.0  0.29971  0.15350  0.77355  1.0000
  C   C15       1.0  0.37951  0.38408  0.67186  1.0000
  C   C16       1.0  0.53558  0.53052  0.67410  1.0000
  C   C17       1.0  0.44067  0.44756  0.80046  1.0000
  C   C18       1.0  0.09343  0.32985  0.65351  1.0000
  H   H9        1.0  0.09635  0.06343  0.68964  1.0000
  S   S2        1.0  0.17197  0.54324  0.75485  1.0000
  P   P1        1.0  0.24880  0.22012  0.63198  1.0000
  H   H10       1.0  0.43126  0.49726  0.63139  1.0000
  C   C19       1.0  0.18054  0.21727  0.68572  1.0000
  S   S3        1.0  0.57372  0.13593  0.62157  1.0000
  C   C20       1.0  0.48202  0.31865  0.63835  1.0000
  S   S4        1.0  0.17195  0.44405  0.68273  1.0000
  C   C21       1.0  0.37838  0.09121  0.70277  1.0000
  H   H11       1.0  0.17147  0.08876  0.58707  1.0000
  H   H12       1.0  0.09706  0.49488  0.67965  1.0000
  C   C22       1.0  0.12392  0.35282  0.63430  1.0000
  C   C23       1.0  0.34296  0.36504  0.67348  1.0000
  C   C24       1.0  0.20898  0.19545  0.66352  1.0000
  Fe  Fe1       1.0  0.21360  0.45590  0.62216  1.0000
  C   C25       1.0  0.34026  0.15569  0.77021  1.0000
  H   H13       1.0  0.36318  0.28119  0.76677  1.0000
  C   C26       1.0  0.12315  0.53124  0.76661  1.0000
  H   H14       1.0  0.41053  0.49472  0.76368  1.0000
  C   C27       1.0  0.43833  0.48437  0.77729  1.0000
  H   H15       1.0  0.56554  0.15674  0.73705  1.0000
  H   H16       1.0  0.15492  0.39106  0.79727  1.0000
  C   C28       1.0  0.09571  0.56056  0.76462  1.0000
  C   C29       1.0  0.12604  0.37765  0.79790  1.0000
  C   C30       1.0  0.22889  0.26067  0.59737  1.0000
  S   S5        1.0  0.48704  0.18893  0.67769  1.0000
  H   H17       1.0  0.42070  0.13390  0.67628  1.0000
  S   S6        1.0  0.34400  0.49092  0.69423  1.0000
  C   C31       1.0  0.57119  0.46165  0.58558  1.0000
  C   C32       1.0  0.55385  0.33746  0.73719  1.0000
  H   H18       1.0  0.50838  0.37430  0.75972  1.0000
  S   S7        1.0  0.48176  0.36909  0.62614  1.0000
  C   C33       1.0  0.47277  0.26469  0.69604  1.0000
  H   H19       1.0  0.55907  0.22726  0.72206  1.0000
  H   H20       1.0  0.18395  0.37109  0.64272  1.0000
  C   C34       1.0  0.50949  0.55843  0.65639  1.0000
  H   H21       1.0  0.30864  0.16136  0.64684  1.0000
  H   H22       1.0  0.53367  0.51418  0.78505  1.0000
  C   C35       1.0  0.28517  0.23870  0.67520  1.0000
  C   C36       1.0  0.17391  0.13574  0.68832  1.0000
  H   H23       1.0  0.28164  0.16612  0.74485  1.0000
  C   C37       1.0  0.16042  0.35332  0.65776  1.0000
  H   H24       1.0  0.38642  0.55502  0.64949  1.0000
  C   C38       1.0  0.57940  0.29343  0.79951  1.0000
  C   C39       1.0  0.47123  0.30461  0.68457  1.0000
  C   C40       1.0  0.33938  0.54144  0.69791  1.0000
  C   C41       1.0  0.49550  0.25242  0.61472  1.0000
  Fe  Fe2       1.0  0.55591  0.07252  0.62463  1.0000
  H   H25       1.0  0.17087  0.10418  0.68832  1.0000
  C   C42       1.0  0.29744  0.15927  0.60969  1.0000
  H   H26       1.0  0.46463  0.25403  0.73202  1.0000
  C   C43       1.0  0.14592  0.15763  0.71061  1.0000
  C   C44       1.0  0.30218  0.26731  0.75377  1.0000
  H   H27       1.0  0.19278  0.21200  0.79971  1.0000
  C   C45       1.0  0.57975  0.30829  0.75125  1.0000
  H   H28       1.0  0.55535  0.43667  0.60136  1.0000
  H   H29       1.0  0.09777  0.10620  0.61621  1.0000
  C   C46       1.0  0.13367  0.56232  0.61915  1.0000
  C   C47       1.0  0.28244  0.13568  0.81447  1.0000
  C   C48       1.0  0.44541  0.09625  0.73189  1.0000
  C   C49       1.0  0.08677  0.07633  0.61327  1.0000
  H   H30       1.0  0.29349  0.34960  0.71793  1.0000
  C   C50       1.0  0.14921  0.19840  0.70927  1.0000
  C   C51       1.0  0.50775  0.49566  0.78951  1.0000
  H   H31       1.0  0.32098  0.38123  0.79165  1.0000
  H   H32       1.0  0.47393  0.11048  0.72949  1.0000
  C   C52       1.0  0.48504  0.23857  0.66128  1.0000
  H   H33       1.0  0.55277  0.34881  0.70004  1.0000
  H   H34       1.0  0.39585  0.38464  0.63835  1.0000
  H   H35       1.0  0.13278  0.47021  0.78061  1.0000
  S   S8        1.0  0.09030  0.22796  0.61332  1.0000
  S   S9        1.0  0.20689  0.34436  0.73825  1.0000
  H   H36       1.0  0.14019  0.29097  0.75246  1.0000
  C   C53       1.0  0.24872  0.29721  0.59573  1.0000
  C   C54       1.0  0.51047  0.45860  0.81135  1.0000
  S   S10       1.0  0.23973  0.50908  0.65702  1.0000
  H   H37       1.0  0.22637  0.13649  0.64803  1.0000
  C   C55       1.0  0.13631  0.30722  0.71878  1.0000
  H   H38       1.0  0.46154  0.32461  0.71150  1.0000
  C   C56       1.0  0.09317  0.47456  0.60584  1.0000
  C   C57       1.0  0.30882  0.55637  0.72410  1.0000
  H   H39       1.0  0.12143  0.14286  0.72824  1.0000
  Fe  Fe3       1.0  0.51041  0.14837  0.62286  1.0000
  H   H40       1.0  0.32364  0.45938  0.78815  1.0000
  H   H41       1.0  0.24386  0.25205  0.73101  1.0000
  S   S11       1.0  0.25900  0.41663  0.65299  1.0000
  P   P2        1.0  0.39625  0.41991  0.81275  1.0000
  C   C58       1.0  0.10013  0.30540  0.69416  1.0000
  C   C59       1.0  0.47162  0.50854  0.77256  1.0000
  H   H42       1.0  0.10693  0.41084  0.73461  1.0000
  H   H43       1.0  0.35383  0.17031  0.73916  1.0000
  H   H44       1.0  0.50514  0.23234  0.58781  1.0000
  C   C60       1.0  0.51761  0.07963  0.81159  1.0000
  H   H45       1.0  0.27664  0.30163  0.61412  1.0000
  H   H46       1.0  0.39501  0.14091  0.80469  1.0000
  H   H47       1.0  0.12420  0.47786  0.59975  1.0000
  Fe  Fe4       1.0  0.20205  0.49393  0.72074  1.0000
  Fe  Fe5       1.0  0.28201  0.46885  0.69322  1.0000
  H   H48       1.0  0.43931  0.34992  0.79499  1.0000
  S   S12       1.0  0.24559  0.45629  0.75916  1.0000
  H   H49       1.0  0.35513  0.10117  0.67889  1.0000
  C   C61       1.0  0.49379  0.29255  0.60316  1.0000
  C   C62       1.0  0.27412  0.25225  0.72086  1.0000
  H   H50       1.0  0.47794  0.44822  0.66128  1.0000
  C   C63       1.0  0.15901  0.56040  0.58010  1.0000
  Fe  Fe6       1.0  0.21911  0.40696  0.71552  1.0000
  C   C64       1.0  0.20548  0.15442  0.66526  1.0000
  H   H51       1.0  0.54423  0.46930  0.68960  1.0000
  C   C65       1.0  0.16595  0.33258  0.70164  1.0000
  C   C66       1.0  0.46052  0.50656  0.64294  1.0000
  H   H52       1.0  0.28943  0.53685  0.74426  1.0000
  C   C67       1.0  0.09898  0.38893  0.76190  1.0000
  C   C68       1.0  0.34149  0.26926  0.74132  1.0000
  H   H53       1.0  0.38308  0.25914  0.68544  1.0000
  C   C69       1.0  0.32197  0.36424  0.71673  1.0000
  C   C70       1.0  0.37401  0.40212  0.75687  1.0000
  H   H54       1.0  0.18223  0.24890  0.68399  1.0000
  C   C71       1.0  0.32461  0.24194  0.66236  1.0000
  C   C72       1.0  0.55660  0.06848  0.81612  1.0000
  H   H55       1.0  0.25097  0.13490  0.81705  1.0000
  H   H56       1.0  0.12701  0.21544  0.72556  1.0000
  C   C73       1.0  0.26919  0.18507  0.59176  1.0000
  C   C74       1.0  0.52867  0.33734  0.81929  1.0000
  H   H57       1.0  0.14143  0.54895  0.65410  1.0000
  H   H58       1.0  0.18549  0.54441  0.58529  1.0000
  H   H59       1.0  0.53852  0.44820  0.82363  1.0000
  C   C75       1.0  0.50872  0.11844  0.82071  1.0000
  H   H60       1.0  0.47906  0.12797  0.81693  1.0000
  H   H61       1.0  0.33148  0.10909  0.59441  1.0000
  C   C76       1.0  0.33473  0.47040  0.82253  1.0000
  C   C77       1.0  0.38479  0.36984  0.89361  1.0000
  C   C78       1.0  0.38685  0.21565  0.86819  1.0000
  C   C79       1.0  0.22687  0.20121  0.93557  1.0000
  C   C80       1.0  0.15295  0.19842  0.85785  1.0000
  C   C81       1.0  0.19133  0.14793  0.97526  1.0000
  C   C82       1.0  0.11108  0.49053  0.90058  1.0000
  H   H62       1.0  0.27620  0.18609  0.89442  1.0000
  H   H63       1.0  0.28950  0.51227  0.82816  1.0000
  H   H64       1.0  0.31501  0.16017  0.97385  1.0000
  C   C83       1.0  0.15341  0.27945  0.87263  1.0000
  Fe  Fe7       1.0  0.49479  0.17439  0.95201  1.0000
  S   S13       1.0  0.48348  0.20231  0.02337  1.0000
  P   P3        1.0  0.41950  0.44325  0.06139  1.0000
  C   C84       1.0  0.20229  0.42417  0.02719  1.0000
  H   H65       1.0  0.23083  0.23222  0.92815  1.0000
  H   H66       1.0  0.13485  0.47108  0.89601  1.0000
  C   C85       1.0  0.15565  0.33166  0.97961  1.0000
  H   H67       1.0  0.21207  0.09071  0.96508  1.0000
  C   C86       1.0  0.17527  0.22366  0.82814  1.0000
  Fe  Fe8       1.0  0.58076  0.16262  0.97960  1.0000
  C   C87       1.0  0.14340  0.34031  0.02643  1.0000
  C   C88       1.0  0.24547  0.37302  0.05253  1.0000
  C   C89       1.0  0.09868  0.09853  0.92006  1.0000
  C   C90       1.0  0.34638  0.12143  0.84821  1.0000
  C   C91       1.0  0.35287  0.13115  0.02472  1.0000
  C   C92       1.0  0.31572  0.42076  0.98942  1.0000
  H   H68       1.0  0.37887  0.51693  0.93998  1.0000
  C   C93       1.0  0.27004  0.39754  0.87750  1.0000
  S   S14       1.0  0.54252  0.29958  0.02367  1.0000
  H   H69       1.0  0.49572  0.48265  0.03742  1.0000
  Fe  Fe9       1.0  0.51868  0.15459  0.05711  1.0000
  H   H70       1.0  0.16132  0.33287  0.05811  1.0000
  C   C94       1.0  0.33156  0.51740  0.88724  1.0000
  C   C95       1.0  0.39654  0.20091  0.95421  1.0000
  H   H71       1.0  0.16831  0.13768  0.99905  1.0000
  C   C96       1.0  0.11615  0.34808  0.83213  1.0000
  H   H72       1.0  0.17329  0.41436  0.87852  1.0000
  H   H73       1.0  0.43280  0.52703  0.03913  1.0000
  C   C97       1.0  0.44919  0.40529  0.98218  1.0000
  C   C98       1.0  0.38408  0.47188  0.88689  1.0000
  H   H74       1.0  0.17898  0.20879  0.98301  1.0000
  C   C99       1.0  0.24708  0.13451  0.92601  1.0000
  C   C100      1.0  0.35436  0.48591  0.02951  1.0000
  H   H75       1.0  0.22907  0.38567  0.97772  1.0000
  S   S15       1.0  0.18180  0.45291  0.98102  1.0000
  H   H76       1.0  0.23667  0.44979  0.87838  1.0000
  H   H77       1.0  0.41159  0.18551  0.98322  1.0000
  H   H78       1.0  0.29514  0.34063  0.88002  1.0000
  H   H79       1.0  0.50940  0.34841  0.84605  1.0000
  C   C101      1.0  0.57392  0.32526  0.98367  1.0000
  Fe  Fe10      1.0  0.18188  0.51266  0.01168  1.0000
  S   S16       1.0  0.54965  0.20984  0.93822  1.0000
  C   C102      1.0  0.31584  0.50084  0.84468  1.0000
  H   H80       1.0  0.09873  0.36535  0.06856  1.0000
  H   H81       1.0  0.53051  0.41779  0.91470  1.0000
  C   C103      1.0  0.19724  0.18790  0.96623  1.0000
  C   C104      1.0  0.50905  0.42370  0.94171  1.0000
  C   C105      1.0  0.57593  0.13324  0.84364  1.0000
  H   H82       1.0  0.11354  0.26495  0.93128  1.0000
  C   C106      1.0  0.31919  0.09928  0.95656  1.0000
  C   C107      1.0  0.13101  0.25388  0.90240  1.0000
  C   C108      1.0  0.13092  0.21355  0.89506  1.0000
  H   H83       1.0  0.33795  0.25147  0.84997  1.0000
  C   C109      1.0  0.39061  0.33542  0.92081  1.0000
  C   C110      1.0  0.09802  0.36113  0.94462  1.0000
  S   S17       1.0  0.23149  0.27670  0.04938  1.0000
  C   C111      1.0  0.30568  0.11998  0.85244  1.0000
  C   C112      1.0  0.08486  0.55488  0.89187  1.0000
  C   C113      1.0  0.26848  0.35674  0.87832  1.0000
  C   C114      1.0  0.19963  0.39796  0.87701  1.0000
  C   C115      1.0  0.19763  0.35697  0.87609  1.0000
  C   C116      1.0  0.40797  0.19727  0.90589  1.0000
  H   H84       1.0  0.30061  0.39523  0.97463  1.0000
  C   C117      1.0  0.51566  0.45386  0.97483  1.0000
  C   C118      1.0  0.21624  0.12129  0.95554  1.0000
  C   C119      1.0  0.11529  0.52958  0.88571  1.0000
  H   H85       1.0  0.35634  0.22636  0.00271  1.0000
  S   S18       1.0  0.28073  0.19716  0.05352  1.0000
  C   C120      1.0  0.10744  0.20104  0.03167  1.0000
  C   C121      1.0  0.34329  0.24134  0.92749  1.0000
  H   H86       1.0  0.39598  0.21360  0.83077  1.0000
  H   H87       1.0  0.36528  0.39103  0.90726  1.0000
  H   H88       1.0  0.30369  0.51764  0.00623  1.0000
  C   C122      1.0  0.35425  0.23733  0.87897  1.0000
  H   H89       1.0  0.26962  0.45983  0.97021  1.0000
  S   S19       1.0  0.30322  0.26907  0.94113  1.0000
  H   H90       1.0  0.29784  0.41316  0.87850  1.0000
  C   C123      1.0  0.41582  0.30763  0.90415  1.0000
  H   H91       1.0  0.26517  0.35056  0.04313  1.0000
  C   C124      1.0  0.09202  0.07600  0.00451  1.0000
  C   C125      1.0  0.36985  0.09613  0.03820  1.0000
  C   C126      1.0  0.23246  0.33647  0.87829  1.0000
  H   H92       1.0  0.42501  0.38478  0.98651  1.0000
  C   C127      1.0  0.53771  0.14513  0.83639  1.0000
  H   H93       1.0  0.09055  0.11811  0.89029  1.0000
  H   H94       1.0  0.55326  0.29590  0.87021  1.0000
  H   H95       1.0  0.31728  0.54147  0.90390  1.0000
  H   H96       1.0  0.36382  0.38799  0.01575  1.0000
  H   H97       1.0  0.55596  0.38124  0.00714  1.0000
  H   H98       1.0  0.54258  0.47126  0.97433  1.0000
  C   C128      1.0  0.13309  0.21373  0.06894  1.0000
  C   C129      1.0  0.55369  0.30771  0.83317  1.0000
  C   C130      1.0  0.36603  0.50330  0.90787  1.0000
  C   C131      1.0  0.13315  0.34215  0.93839  1.0000
  C   C132      1.0  0.37206  0.44947  0.03233  1.0000
  H   H99       1.0  0.42116  0.28152  0.92599  1.0000
  S   S20       1.0  0.22502  0.53271  0.06937  1.0000
  H   H100      1.0  0.37551  0.32999  0.95485  1.0000
  C   C133      1.0  0.58265  0.54020  0.07004  1.0000
  H   H101      1.0  0.14213  0.54021  0.86922  1.0000
  H   H102      1.0  0.23225  0.30497  0.88119  1.0000
  C   C134      1.0  0.57463  0.36603  0.98302  1.0000
  H   H103      1.0  0.46858  0.08247  0.89415  1.0000
  H   H104      1.0  0.15371  0.09552  0.06537  1.0000
  S   S21       1.0  0.13170  0.53828  0.04781  1.0000
  Fe  Fe11      1.0  0.53985  0.23504  0.01159  1.0000
  C   C135      1.0  0.25196  0.17475  0.91571  1.0000
  S   S22       1.0  0.52670  0.12428  0.98620  1.0000
  H   H105      1.0  0.18310  0.31756  0.97541  1.0000
  C   C136      1.0  0.22554  0.39325  0.01546  1.0000
  H   H106      1.0  0.36813  0.51168  0.04479  1.0000
  C   C137      1.0  0.36847  0.45518  0.84398  1.0000
  H   H107      1.0  0.45074  0.28994  0.84468  1.0000
  C   C138      1.0  0.23564  0.41815  0.87734  1.0000
  C   C139      1.0  0.35204  0.41685  0.01243  1.0000
  C   C140      1.0  0.32780  0.13276  0.98389  1.0000
  C   C141      1.0  0.31743  0.48952  0.00760  1.0000
  H   H108      1.0  0.53009  0.17489  0.84359  1.0000
  C   C142      1.0  0.45463  0.43647  0.01431  1.0000
  H   H109      1.0  0.35907  0.15699  0.04623  1.0000
  P   P4        1.0  0.15056  0.33179  0.87852  1.0000
  H   H110      1.0  0.47262  0.37378  0.92290  1.0000
  C   C143      1.0  0.36463  0.22339  0.96512  1.0000
  S   S23       1.0  0.44879  0.17026  0.89244  1.0000
  Fe  Fe12      1.0  0.28743  0.25692  0.01926  1.0000
  P   P5        1.0  0.28326  0.10107  0.90754  1.0000
  C   C144      1.0  0.42652  0.34666  0.83076  1.0000
  H   H111      1.0  0.11202  0.17376  0.01394  1.0000
  C   C145      1.0  0.47624  0.39893  0.94607  1.0000
  H   H112      1.0  0.36517  0.11014  0.87709  1.0000
  C   C146      1.0  0.29826  0.45702  0.98715  1.0000
  H   H113      1.0  0.11419  0.19397  0.91877  1.0000
  H   H114      1.0  0.15341  0.16712  0.85268  1.0000
  H   H115      1.0  0.41098  0.46151  0.90311  1.0000
  H   H116      1.0  0.53005  0.52131  0.90259  1.0000
  C   C147      1.0  0.48870  0.46019  0.01111  1.0000
  H   H117      1.0  0.50518  0.06479  0.05457  1.0000
  C   C148      1.0  0.10829  0.35889  0.03235  1.0000
  S   S24       1.0  0.57434  0.19029  0.05259  1.0000
  C   C149      1.0  0.55921  0.52748  0.88944  1.0000
  C   C150      1.0  0.17519  0.26399  0.83516  1.0000
  C   C151      1.0  0.12550  0.06956  0.91213  1.0000
  C   C152      1.0  0.40386  0.37626  0.84913  1.0000
  C   C153      1.0  0.43290  0.31268  0.85854  1.0000
  H   H118      1.0  0.57727  0.46792  0.89746  1.0000
  H   H119      1.0  0.47925  0.40747  0.83706  1.0000
  C   C154      1.0  0.33767  0.06449  0.96915  1.0000
  C   C155      1.0  0.08540  0.36879  0.99154  1.0000
  H   H120      1.0  0.13811  0.06669  0.87634  1.0000
  H   H121      1.0  0.38894  0.09501  0.07010  1.0000
  H   H122      1.0  0.44597  0.44924  0.16386  1.0000
  C   C156      1.0  0.52885  0.21399  0.18017  1.0000
  C   C157      1.0  0.21204  0.37650  0.30087  1.0000
  C   C158      1.0  0.45097  0.55354  0.10633  1.0000
  H   H123      1.0  0.46766  0.50492  0.21383  1.0000
  H   H124      1.0  0.39964  0.29878  0.16552  1.0000
  C   C159      1.0  0.24492  0.54110  0.21093  1.0000
  H   H125      1.0  0.23247  0.33420  0.25095  1.0000
  C   C160      1.0  0.44048  0.07212  0.14608  1.0000
  C   C161      1.0  0.10912  0.48070  0.26773  1.0000
  C   C162      1.0  0.45901  0.50982  0.17604  1.0000
  C   C163      1.0  0.37038  0.40186  0.28517  1.0000
  C   C164      1.0  0.51625  0.26957  0.22976  1.0000
  H   H126      1.0  0.46108  0.31367  0.12171  1.0000
  C   C165      1.0  0.27704  0.37768  0.26833  1.0000
  H   H127      1.0  0.36158  0.28933  0.24609  1.0000
  C   C166      1.0  0.50604  0.55885  0.27501  1.0000
  C   C167      1.0  0.55360  0.55689  0.09695  1.0000
  C   C168      1.0  0.44780  0.09631  0.29566  1.0000
  C   C169      1.0  0.28632  0.41241  0.29297  1.0000
  H   H128      1.0  0.24096  0.52473  0.17770  1.0000
  C   C170      1.0  0.22905  0.16883  0.25182  1.0000
  H   H129      1.0  0.10190  0.38939  0.15028  1.0000
  H   H130      1.0  0.13519  0.16632  0.18117  1.0000
  H   H131      1.0  0.17958  0.45791  0.08462  1.0000
  C   C171      1.0  0.43508  0.48420  0.09850  1.0000
  H   H132      1.0  0.39275  0.14250  0.23278  1.0000
  H   H133      1.0  0.36348  0.08538  0.27800  1.0000
  H   H134      1.0  0.10807  0.54365  0.26246  1.0000
  H   H135      1.0  0.56614  0.06856  0.09212  1.0000
  C   C172      1.0  0.41524  0.39911  0.09852  1.0000
  H   H136      1.0  0.18294  0.36343  0.30237  1.0000
  C   C173      1.0  0.34165  0.15155  0.18802  1.0000
  C   C174      1.0  0.10614  0.07624  0.11184  1.0000
  H   H137      1.0  0.43327  0.09123  0.17531  1.0000
  H   H138      1.0  0.28592  0.19585  0.25658  1.0000
  H   H139      1.0  0.32430  0.52356  0.28797  1.0000
  H   H140      1.0  0.34887  0.34863  0.16848  1.0000
  C   C175      1.0  0.54389  0.56043  0.25675  1.0000
  H   H141      1.0  0.15980  0.42351  0.19368  1.0000
  H   H142      1.0  0.32309  0.52569  0.10538  1.0000
  C   C176      1.0  0.09042  0.34357  0.20906  1.0000
  C   C177      1.0  0.12675  0.24886  0.09222  1.0000
  S   S25       1.0  0.36134  0.19340  0.15897  1.0000
  H   H143      1.0  0.31253  0.25867  0.30044  1.0000
  S   S26       1.0  0.26025  0.24052  0.15547  1.0000
  C   C178      1.0  0.49588  0.53157  0.31161  1.0000
  H   H144      1.0  0.42550  0.25870  0.23630  1.0000
  C   C179      1.0  0.38116  0.39105  0.12495  1.0000
  C   C180      1.0  0.09302  0.26948  0.08122  1.0000
  C   C181      1.0  0.09767  0.25258  0.25581  1.0000
  H   H145      1.0  0.14709  0.25950  0.11986  1.0000
  C   C182      1.0  0.36808  0.26255  0.26587  1.0000
  H   H146      1.0  0.43267  0.08438  0.26391  1.0000
  C   C183      1.0  0.52138  0.24656  0.27208  1.0000
  C   C184      1.0  0.34020  0.24488  0.29634  1.0000
  C   C185      1.0  0.40453  0.32722  0.14825  1.0000
  C   C186      1.0  0.40411  0.24548  0.26058  1.0000
  C   C187      1.0  0.47205  0.08194  0.11614  1.0000
  C   C188      1.0  0.41227  0.21074  0.28570  1.0000
  C   C189      1.0  0.53028  0.20677  0.26882  1.0000
  C   C190      1.0  0.43872  0.52198  0.07770  1.0000
  C   C191      1.0  0.24378  0.52168  0.25616  1.0000
  H   H147      1.0  0.17715  0.22546  0.19357  1.0000
  H   H148      1.0  0.21462  0.42128  0.15086  1.0000
  C   C192      1.0  0.13499  0.25478  0.23569  1.0000
  S   S27       1.0  0.26203  0.35427  0.14750  1.0000
  H   H149      1.0  0.27790  0.46898  0.11832  1.0000
  H   H150      1.0  0.51844  0.26035  0.30703  1.0000
  H   H151      1.0  0.51602  0.27093  0.15082  1.0000
  C   C193      1.0  0.47805  0.12417  0.28943  1.0000
  H   H152      1.0  0.11207  0.32430  0.19618  1.0000
  C   C194      1.0  0.44462  0.37148  0.09893  1.0000
  C   C195      1.0  0.32645  0.50722  0.13754  1.0000
  H   H153      1.0  0.48529  0.13326  0.25261  1.0000
  H   H154      1.0  0.29800  0.36507  0.24468  1.0000
  C   C196      1.0  0.37584  0.35519  0.14960  1.0000
  H   H155      1.0  0.25932  0.09346  0.18992  1.0000
  C   C197      1.0  0.57231  0.53617  0.27710  1.0000
  H   H156      1.0  0.18610  0.07536  0.21505  1.0000
  H   H157      1.0  0.38275  0.49960  0.24032  1.0000
  C   C198      1.0  0.51992  0.25326  0.18379  1.0000
  H   H158      1.0  0.28160  0.43009  0.19446  1.0000
  C   C199      1.0  0.33205  0.46235  0.22394  1.0000
  C   C200      1.0  0.16363  0.07646  0.18667  1.0000
  H   H159      1.0  0.23949  0.49020  0.25763  1.0000
  C   C201      1.0  0.14509  0.08673  0.10173  1.0000
  Fe  Fe13      1.0  0.22779  0.21925  0.08877  1.0000
  C   C202      1.0  0.44631  0.47824  0.14761  1.0000
  C   C203      1.0  0.21748  0.41353  0.11313  1.0000
  H   H160      1.0  0.22653  0.17357  0.21264  1.0000
  H   H161      1.0  0.53126  0.20135  0.14447  1.0000
  S   S28       1.0  0.50050  0.12433  0.12721  1.0000
  C   C204      1.0  0.26273  0.18167  0.27718  1.0000
  C   C205      1.0  0.40254  0.40554  0.25440  1.0000
  C   C206      1.0  0.36334  0.13231  0.22434  1.0000
  S   S29       1.0  0.10759  0.40034  0.26998  1.0000
  C   C207      1.0  0.24772  0.54299  0.29911  1.0000
  C   C208      1.0  0.46086  0.54751  0.15552  1.0000
  C   C209      1.0  0.53415  0.19083  0.22232  1.0000
  H   H162      1.0  0.45677  0.38123  0.23349  1.0000
  H   H163      1.0  0.47143  0.37701  0.07937  1.0000
  Fe  Fe14      1.0  0.31375  0.22279  0.11728  1.0000
  C   C210      1.0  0.28808  0.10465  0.20004  1.0000
  C   C211      1.0  0.24076  0.38263  0.10136  1.0000
  C   C212      1.0  0.56206  0.50947  0.31464  1.0000
  H   H164      1.0  0.28722  0.15216  0.14742  1.0000
  C   C213      1.0  0.30294  0.45351  0.18865  1.0000
  H   H165      1.0  0.43994  0.19733  0.28066  1.0000
  C   C214      1.0  0.14847  0.22356  0.20937  1.0000
  H   H166      1.0  0.40511  0.42944  0.22837  1.0000
  H   H167      1.0  0.35808  0.41188  0.12522  1.0000
  C   C215      1.0  0.34694  0.10006  0.24964  1.0000
  C   C216      1.0  0.30938  0.08621  0.23737  1.0000
  C   C217      1.0  0.12390  0.44681  0.24837  1.0000
  H   H168      1.0  0.15393  0.28037  0.24098  1.0000
  C   C218      1.0  0.42953  0.34717  0.29098  1.0000
  C   C219      1.0  0.35964  0.49252  0.21408  1.0000
  S   S30       1.0  0.17157  0.18437  0.08809  1.0000
  C   C220      1.0  0.09614  0.06709  0.16036  1.0000
  C   C221      1.0  0.11956  0.51748  0.24755  1.0000
  C   C222      1.0  0.14888  0.44981  0.20877  1.0000
  P   P6        1.0  0.33265  0.43749  0.28282  1.0000
  H   H169      1.0  0.55612  0.33596  0.29569  1.0000
  C   C223      1.0  0.43190  0.37818  0.25715  1.0000
  H   H170      1.0  0.17774  0.48869  0.15714  1.0000
  Fe  Fe15      1.0  0.26849  0.29652  0.11331  1.0000
  C   C224      1.0  0.35649  0.51514  0.17133  1.0000
  H   H171      1.0  0.17342  0.13841  0.25677  1.0000
  H   H172      1.0  0.37693  0.53938  0.16488  1.0000
  C   C225      1.0  0.12470  0.19022  0.20218  1.0000
  H   H173      1.0  0.54117  0.16045  0.21831  1.0000
  C   C226      1.0  0.23992  0.36002  0.27192  1.0000
  C   C227      1.0  0.30050  0.47568  0.14537  1.0000
  C   C228      1.0  0.43905  0.33554  0.12336  1.0000
  C   C229      1.0  0.17367  0.08652  0.13881  1.0000
  C   C230      1.0  0.14393  0.52028  0.20716  1.0000
  H   H174      1.0  0.53280  0.53814  0.11592  1.0000
  C   C231      1.0  0.19933  0.14848  0.27648  1.0000
  S   S31       1.0  0.32460  0.28086  0.08042  1.0000
  C   C232      1.0  0.15867  0.48646  0.18794  1.0000
  H   H175      1.0  0.50949  0.30012  0.23271  1.0000
  C   C233      1.0  0.30397  0.13772  0.17584  1.0000
  H   H176      1.0  0.20364  0.09432  0.13019  1.0000
  H   H177      1.0  0.08703  0.29539  0.10131  1.0000
  Fe  Fe16      1.0  0.17469  0.56264  0.10223  1.0000
  C   C234      1.0  0.12476  0.06742  0.19760  1.0000
  C   C235      1.0  0.34773  0.20932  0.32062  1.0000
  C   C236      1.0  0.25864  0.42802  0.32355  1.0000
  C   C237      1.0  0.36808  0.37033  0.31872  1.0000
  C   C238      1.0  0.08735  0.18796  0.22144  1.0000
  H   H178      1.0  0.08916  0.47842  0.29778  1.0000
  C   C239      1.0  0.38419  0.19255  0.31556  1.0000
  H   H179      1.0  0.45261  0.32637  0.29382  1.0000
  C   C240      1.0  0.19810  0.43429  0.07593  1.0000
  C   C241      1.0  0.08441  0.38185  0.18170  1.0000
  C   C242      1.0  0.39779  0.34343  0.32200  1.0000
  P   P7        1.0  0.53658  0.17672  0.32372  1.0000
  C   C243      1.0  0.33372  0.51235  0.32326  1.0000
  S   S32       1.0  0.50222  0.14811  0.54134  1.0000
  H   H180      1.0  0.13328  0.44839  0.36448  1.0000
  H   H181      1.0  0.35585  0.29168  0.47279  1.0000
  C   C244      1.0  0.26227  0.25701  0.46206  1.0000
  H   H182      1.0  0.39089  0.16517  0.33373  1.0000
  H   H183      1.0  0.19801  0.08560  0.43451  1.0000
  H   H184      1.0  0.50273  0.13730  0.40966  1.0000
  C   C245      1.0  0.29423  0.27974  0.47851  1.0000
  C   C246      1.0  0.36027  0.07514  0.43035  1.0000
  C   C247      1.0  0.33111  0.27383  0.46016  1.0000
  C   C248      1.0  0.35645  0.48529  0.41609  1.0000
  C   C249      1.0  0.22160  0.41007  0.32735  1.0000
  C   C250      1.0  0.33599  0.24597  0.42446  1.0000
  H   H185      1.0  0.09396  0.35957  0.35592  1.0000
  Fe  Fe17      1.0  0.46699  0.38273  0.54753  1.0000
  C   C251      1.0  0.56920  0.22430  0.39631  1.0000
  C   C252      1.0  0.30067  0.39721  0.47339  1.0000
  S   S33       1.0  0.42445  0.43005  0.53146  1.0000
  H   H186      1.0  0.33463  0.42277  0.53231  1.0000
  C   C253      1.0  0.26709  0.22862  0.42673  1.0000
  C   C254      1.0  0.30608  0.41963  0.51515  1.0000
  C   C255      1.0  0.34761  0.52442  0.40866  1.0000
  C   C256      1.0  0.32004  0.10698  0.36911  1.0000
  S   S34       1.0  0.44009  0.41524  0.41629  1.0000
  H   H187      1.0  0.25472  0.14655  0.47867  1.0000
  H   H188      1.0  0.53020  0.28031  0.48313  1.0000
  C   C257      1.0  0.35478  0.14553  0.43019  1.0000
  S   S35       1.0  0.51179  0.40616  0.49531  1.0000
  Fe  Fe18      1.0  0.56495  0.13099  0.54053  1.0000
  H   H189      1.0  0.24237  0.51814  0.46073  1.0000
  H   H190      1.0  0.47157  0.20883  0.37636  1.0000
  S   S36       1.0  0.55086  0.06656  0.54312  1.0000
  H   H191      1.0  0.36520  0.47469  0.45212  1.0000
  H   H192      1.0  0.27863  0.45524  0.56735  1.0000
  C   C258      1.0  0.14313  0.50482  0.46534  1.0000
  H   H193      1.0  0.20133  0.26993  0.39230  1.0000
  C   C259      1.0  0.14215  0.47295  0.38709  1.0000
  C   C260      1.0  0.27418  0.43738  0.53551  1.0000
  C   C261      1.0  0.43679  0.08429  0.34259  1.0000
  S   S37       1.0  0.49065  0.51201  0.46093  1.0000
  C   C262      1.0  0.19585  0.32440  0.54741  1.0000
  H   H194      1.0  0.09428  0.33215  0.50726  1.0000
  H   H195      1.0  0.16803  0.15013  0.42146  1.0000
  Fe  Fe19      1.0  0.48895  0.08378  0.55107  1.0000
  C   C263      1.0  0.17668  0.53530  0.39684  1.0000
  S   S38       1.0  0.43961  0.34098  0.49361  1.0000
  H   H196      1.0  0.36484  0.24255  0.41016  1.0000
  C   C264      1.0  0.15221  0.15552  0.49622  1.0000
  C   C265      1.0  0.53161  0.25993  0.45354  1.0000
  H   H197      1.0  0.38940  0.11330  0.48227  1.0000
  S   S39       1.0  0.33929  0.37236  0.44921  1.0000
  C   C266      1.0  0.14971  0.27960  0.34882  1.0000
  H   H198      1.0  0.24046  0.14495  0.39014  1.0000
  Fe  Fe20      1.0  0.46786  0.45094  0.47581  1.0000
  C   C267      1.0  0.49860  0.21938  0.39321  1.0000
  C   C268      1.0  0.53473  0.20848  0.37540  1.0000
  Fe  Fe21      1.0  0.40031  0.38989  0.47333  1.0000
  C   C269      1.0  0.16483  0.50386  0.36755  1.0000
  H   H199      1.0  0.51614  0.48629  0.36057  1.0000
  C   C270      1.0  0.48753  0.12639  0.37734  1.0000
  H   H200      1.0  0.56288  0.35486  0.45001  1.0000
  H   H201      1.0  0.56982  0.12320  0.39631  1.0000
  H   H202      1.0  0.30649  0.50472  0.49771  1.0000
  H   H203      1.0  0.25966  0.37639  0.41851  1.0000
  H   H204      1.0  0.29052  0.30247  0.50484  1.0000
  H   H205      1.0  0.26533  0.45415  0.34408  1.0000
  C   C271      1.0  0.33520  0.07293  0.38965  1.0000
  H   H206      1.0  0.30349  0.10084  0.51111  1.0000
  C   C272      1.0  0.11960  0.30520  0.33693  1.0000
  H   H207      1.0  0.20329  0.40883  0.45421  1.0000
  C   C273      1.0  0.45704  0.09886  0.38336  1.0000
  C   C274      1.0  0.18560  0.10025  0.46491  1.0000
  H   H208      1.0  0.18283  0.34932  0.52922  1.0000
  C   C275      1.0  0.13134  0.47342  0.43597  1.0000
  H   H209      1.0  0.36307  0.17322  0.44632  1.0000
  C   C276      1.0  0.15313  0.13835  0.54310  1.0000
  C   C277      1.0  0.30403  0.22304  0.40733  1.0000
  H   H210      1.0  0.11465  0.44899  0.45154  1.0000
  C   C278      1.0  0.16886  0.13667  0.45744  1.0000
  C   C279      1.0  0.56759  0.24998  0.43515  1.0000
  C   C280      1.0  0.18655  0.08288  0.51160  1.0000
  C   C281      1.0  0.17601  0.28811  0.54867  1.0000
  C   C282      1.0  0.57714  0.35239  0.41556  1.0000
  C   C283      1.0  0.23712  0.15287  0.35185  1.0000
  H   H211      1.0  0.23368  0.26159  0.47656  1.0000
  H   H212      1.0  0.46934  0.25350  0.44584  1.0000
  C   C284      1.0  0.34184  0.47263  0.33053  1.0000
  H   H213      1.0  0.50241  0.30340  0.56749  1.0000
  S   S40       1.0  0.50463  0.33689  0.37663  1.0000
  C   C285      1.0  0.17657  0.32496  0.40843  1.0000
  C   C286      1.0  0.35348  0.45957  0.37716  1.0000
  H   H214      1.0  0.24181  0.21162  0.41465  1.0000
  C   C287      1.0  0.25390  0.18018  0.54422  1.0000
  C   C288      1.0  0.43064  0.54950  0.50299  1.0000
  C   C289      1.0  0.29469  0.12479  0.53322  1.0000
  H   H215      1.0  0.24757  0.52786  0.33423  1.0000
  H   H216      1.0  0.23096  0.19830  0.53001  1.0000
  H   H217      1.0  0.14766  0.28447  0.53090  1.0000
  C   C290      1.0  0.30399  0.54932  0.55142  1.0000
  C   C291      1.0  0.45423  0.54641  0.46218  1.0000
  C   C292      1.0  0.33695  0.53819  0.36218  1.0000
  C   C293      1.0  0.49715  0.24468  0.43252  1.0000
  C   C294      1.0  0.32944  0.14353  0.38937  1.0000
  H   H218      1.0  0.18100  0.12310  0.34492  1.0000
  H   H219      1.0  0.44909  0.08893  0.41978  1.0000
  C   C295      1.0  0.52393  0.50702  0.33159  1.0000
  H   H220      1.0  0.13548  0.50396  0.50352  1.0000
  C   C296      1.0  0.16596  0.53597  0.44603  1.0000
  C   C297      1.0  0.28974  0.52818  0.51141  1.0000
  C   C298      1.0  0.49767  0.14015  0.33034  1.0000
  C   C299      1.0  0.17823  0.28974  0.38385  1.0000
  C   C300      1.0  0.26699  0.15047  0.51499  1.0000
  P   P8        1.0  0.31154  0.18751  0.36063  1.0000
  H   H221      1.0  0.14434  0.37712  0.41760  1.0000
  C   C301      1.0  0.58224  0.15160  0.32672  1.0000
  C   C302      1.0  0.23697  0.43297  0.51411  1.0000
  C   C303      1.0  0.23189  0.41190  0.47111  1.0000
  C   C304      1.0  0.36998  0.11144  0.45064  1.0000
  Fe  Fe22      1.0  0.48064  0.36864  0.43958  1.0000
  C   C305      1.0  0.25336  0.53618  0.49028  1.0000
  S   S41       1.0  0.19659  0.45141  0.54302  1.0000
  C   C306      1.0  0.26678  0.17442  0.32774  1.0000
  C   C307      1.0  0.14616  0.35009  0.39801  1.0000
  S   S42       1.0  0.13037  0.20042  0.48469  1.0000
  C   C308      1.0  0.17061  0.10205  0.55090  1.0000
  C   C309      1.0  0.11779  0.34020  0.36254  1.0000
  C   C310      1.0  0.26368  0.39360  0.45108  1.0000
  H   H222      1.0  0.35974  0.42934  0.38365  1.0000
  H   H223      1.0  0.34869  0.54403  0.43904  1.0000
  H   H224      1.0  0.19865  0.33251  0.43582  1.0000
  H   H225      1.0  0.39644  0.31991  0.34907  1.0000
  H   H226      1.0  0.43448  0.53005  0.53421  1.0000
  C   C311      1.0  0.55500  0.34436  0.37338  1.0000
  H   H227      1.0  0.20017  0.42228  0.35050  1.0000
  H   H228      1.0  0.30116  0.10463  0.33714  1.0000
  H   H229      1.0  0.34369  0.36689  0.34310  1.0000
  H   H230      1.0  0.55374  0.54706  0.52598  1.0000
  C   C312      1.0  0.55082  0.49288  0.56536  1.0000
  H   H231      1.0  0.15095  0.25133  0.33211  1.0000
  H   H232      1.0  0.19461  0.55883  0.38139  1.0000
  H   H233      1.0  0.33142  0.54191  0.56896  1.0000
  C   C313      1.0  0.57082  0.52447  0.54329  1.0000
  H   H234      1.0  0.41259  0.06368  0.34746  1.0000
  H   H235      1.0  0.17347  0.50323  0.32971  1.0000
  H   H236      1.0  0.51922  0.49200  0.56494  1.0000
  H   H237      1.0  0.57987  0.55092  0.40883  1.0000
  C   C314      1.0  0.57328  0.34158  0.32851  1.0000
  C   C315      1.0  0.23226  0.32885  0.57069  1.0000
  H   H238      1.0  0.24746  0.35711  0.56995  1.0000
  H   H239      1.0  0.14076  0.15323  0.57334  1.0000
  C   C316      1.0  0.19240  0.25640  0.57358  1.0000
  H   H240      1.0  0.17635  0.22862  0.57458  1.0000
  C   C317      1.0  0.20351  0.14015  0.32634  1.0000
  H   H241      1.0  0.46629  0.52947  0.32468  1.0000
  H   H242      1.0  0.58354  0.49035  0.33067  1.0000
  C   C318      1.0  0.21777  0.68514  0.65838  1.0000
  P   P9        1.0  0.47861  0.04400  0.79962  1.0000
  H   H243      1.0  0.15023  0.65643  0.76573  1.0000
  C   C319      1.0  0.35777  0.75687  0.74044  1.0000
  S   S43       1.0  0.16046  0.04517  0.75962  1.0000
  C   C320      1.0  0.14643  0.74093  0.81530  1.0000
  C   C321      1.0  0.08999  0.81788  0.73945  1.0000
  H   H244      1.0  0.40323  0.66437  0.72817  1.0000
  C   C322      1.0  0.09557  0.94718  0.78635  1.0000
  C   C323      1.0  0.52664  0.93819  0.72120  1.0000
  C   C324      1.0  0.11117  0.73001  0.79159  1.0000
  H   H245      1.0  0.52805  0.60040  0.76664  1.0000
  H   H246      1.0  0.09540  0.88398  0.61311  1.0000
  P   P10       1.0  0.42273  0.85573  0.77266  1.0000
  H   H247      1.0  0.49442  0.87944  0.61858  1.0000
  H   H248      1.0  0.15351  0.96163  0.76318  1.0000
  H   H249      1.0  0.55284  0.92267  0.79046  1.0000
  H   H250      1.0  0.27750  0.60763  0.74128  1.0000
  C   C325      1.0  0.35673  0.60680  0.66885  1.0000
  C   C326      1.0  0.37137  0.06018  0.73550  1.0000
  H   H251      1.0  0.34260  0.04635  0.73700  1.0000
  P   P11       1.0  0.19288  0.72773  0.79150  1.0000
  H   H252      1.0  0.37504  0.62593  0.64699  1.0000
  H   H253      1.0  0.15692  0.61159  0.69813  1.0000
  C   C327      1.0  0.12171  0.01334  0.77634  1.0000
  C   C328      1.0  0.21025  0.80444  0.76161  1.0000
  C   C329      1.0  0.50948  0.63701  0.60513  1.0000
  C   C330      1.0  0.09318  0.76136  0.59201  1.0000
  C   C331      1.0  0.13481  0.69277  0.58479  1.0000
  C   C332      1.0  0.26250  0.77171  0.80469  1.0000
  H   H254      1.0  0.48886  0.85822  0.70432  1.0000
  C   C333      1.0  0.51961  0.97492  0.79501  1.0000
  H   H255      1.0  0.20096  0.79647  0.65726  1.0000
  C   C334      1.0  0.49700  0.82877  0.79526  1.0000
  C   C335      1.0  0.24742  0.67178  0.81465  1.0000
  H   H256      1.0  0.15051  0.66613  0.58122  1.0000
  C   C336      1.0  0.37548  0.79409  0.73766  1.0000
  H   H257      1.0  0.46375  0.72603  0.72309  1.0000
  H   H258      1.0  0.33624  0.74815  0.71297  1.0000
  S   S44       1.0  0.33439  0.76121  0.60203  1.0000
  C   C337      1.0  0.08601  0.02776  0.79058  1.0000
  C   C338      1.0  0.19508  0.84828  0.61233  1.0000
  H   H259      1.0  0.39577  0.02151  0.78915  1.0000
  H   H260      1.0  0.55348  0.80644  0.81344  1.0000
  H   H261      1.0  0.18104  0.80449  0.74586  1.0000
  H   H262      1.0  0.29095  0.86455  0.77136  1.0000
  C   C339      1.0  0.51486  0.75701  0.69678  1.0000
  H   H263      1.0  0.44720  0.65019  0.66181  1.0000
  C   C340      1.0  0.20685  0.81018  0.62222  1.0000
  C   C341      1.0  0.30215  0.59650  0.72258  1.0000
  H   H264      1.0  0.36714  0.81333  0.70775  1.0000
  Fe  Fe23      1.0  0.33300  0.69657  0.61702  1.0000
  S   S45       1.0  0.22670  0.95944  0.72023  1.0000
  C   C342      1.0  0.19771  0.64899  0.65942  1.0000
  C   C343      1.0  0.46680  0.88135  0.63668  1.0000
  C   C344      1.0  0.12622  0.97306  0.77398  1.0000
  H   H265      1.0  0.56726  0.65678  0.73304  1.0000
  C   C345      1.0  0.10021  0.69233  0.61079  1.0000
  C   C346      1.0  0.08915  0.80448  0.69153  1.0000
  H   H266      1.0  0.39564  0.93659  0.75699  1.0000
  C   C347      1.0  0.49186  0.62575  0.70946  1.0000
  H   H267      1.0  0.37354  0.90742  0.61360  1.0000
  H   H268      1.0  0.22350  0.86374  0.73787  1.0000
  H   H269      1.0  0.09987  0.91616  0.78529  1.0000
  C   C348      1.0  0.41268  0.77996  0.81170  1.0000
  C   C349      1.0  0.36759  0.73101  0.77845  1.0000
  C   C350      1.0  0.49741  0.00249  0.76899  1.0000
  C   C351      1.0  0.42777  0.87168  0.70939  1.0000
  C   C352      1.0  0.50423  0.96519  0.69525  1.0000
  C   C353      1.0  0.23427  0.83808  0.75685  1.0000
  H   H270      1.0  0.21831  0.99729  0.80933  1.0000
  C   C354      1.0  0.34460  0.01491  0.59820  1.0000
  H   H271      1.0  0.10983  0.78291  0.68199  1.0000
  C   C355      1.0  0.39865  0.89667  0.63362  1.0000
  C   C356      1.0  0.42587  0.01178  0.60344  1.0000
  C   C357      1.0  0.09797  0.58032  0.61288  1.0000
  C   C358      1.0  0.38840  0.88501  0.80390  1.0000
  C   C359      1.0  0.39520  0.74249  0.81397  1.0000
  S   S46       1.0  0.24252  0.04145  0.65822  1.0000
  H   H272      1.0  0.10474  0.59048  0.75647  1.0000
  H   H273      1.0  0.34426  0.97282  0.79571  1.0000
  C   C360      1.0  0.47620  0.62360  0.79577  1.0000
  H   H274      1.0  0.45092  0.56742  0.62886  1.0000
  C   C361      1.0  0.35162  0.94418  0.80999  1.0000
  C   C362      1.0  0.38039  0.92315  0.78760  1.0000
  H   H275      1.0  0.53903  0.91411  0.70233  1.0000
  C   C363      1.0  0.16774  0.66574  0.73483  1.0000
  Fe  Fe24      1.0  0.19448  0.01421  0.70348  1.0000
  H   H276      1.0  0.35385  0.70204  0.78003  1.0000
  C   C364      1.0  0.18873  0.70166  0.73508  1.0000
  H   H277      1.0  0.36703  0.88659  0.69926  1.0000
  C   C365      1.0  0.47552  0.74506  0.69475  1.0000
  C   C366      1.0  0.50588  0.79495  0.62185  1.0000
  C   C367      1.0  0.51375  0.67791  0.60473  1.0000
  C   C368      1.0  0.46348  0.86944  0.68567  1.0000
  S   S47       1.0  0.54610  0.73841  0.74251  1.0000
  C   C369      1.0  0.17196  0.63980  0.69688  1.0000
  C   C370      1.0  0.53220  0.82792  0.82182  1.0000
  C   C371      1.0  0.22409  0.77107  0.78598  1.0000
  C   C372      1.0  0.22698  0.79010  0.58701  1.0000
  C   C373      1.0  0.27233  0.83857  0.77584  1.0000
  S   S48       1.0  0.24406  0.95655  0.60378  1.0000
  C   C374      1.0  0.45606  0.64310  0.69905  1.0000
  C   C375      1.0  0.40161  0.04637  0.76538  1.0000
  H   H278      1.0  0.47367  0.01857  0.69795  1.0000
  Fe  Fe25      1.0  0.19651  0.93595  0.65349  1.0000
  S   S49       1.0  0.17256  0.87438  0.65734  1.0000
  C   C376      1.0  0.52959  0.78290  0.66106  1.0000
  C   C377      1.0  0.43080  0.65100  0.73675  1.0000
  C   C378      1.0  0.08579  0.05222  0.65490  1.0000
  C   C379      1.0  0.32580  0.62168  0.69443  1.0000
  C   C380      1.0  0.40319  0.80602  0.77321  1.0000
  C   C381      1.0  0.36265  0.99614  0.63804  1.0000
  H   H279      1.0  0.23144  0.73799  0.69641  1.0000
  C   C382      1.0  0.36367  0.56672  0.67087  1.0000
  H   H280      1.0  0.26042  0.67941  0.77980  1.0000
  H   H281      1.0  0.29374  0.59631  0.60001  1.0000
  S   S50       1.0  0.33486  0.97507  0.68523  1.0000
  C   C383      1.0  0.40320  0.99432  0.64041  1.0000
  C   C384      1.0  0.39526  0.88512  0.68261  1.0000
  C   C385      1.0  0.57299  0.61980  0.67022  1.0000
  C   C386      1.0  0.43437  0.89474  0.61062  1.0000
  H   H282      1.0  0.23660  0.76086  0.59490  1.0000
  P   P12       1.0  0.52150  0.60998  0.66032  1.0000
  H   H283      1.0  0.51804  0.81365  0.59330  1.0000
  H   H284      1.0  0.42111  0.64737  0.81413  1.0000
  C   C387      1.0  0.21339  0.71148  0.69612  1.0000
  H   H285      1.0  0.11087  0.80697  0.76587  1.0000
  C   C388      1.0  0.44089  0.64140  0.78509  1.0000
  S   S51       1.0  0.31525  0.67129  0.68970  1.0000
  S   S52       1.0  0.16145  0.98890  0.63928  1.0000
  C   C389      1.0  0.28641  0.80536  0.79977  1.0000
  H   H286      1.0  0.08942  0.66567  0.62856  1.0000
  H   H287      1.0  0.11064  0.71475  0.75735  1.0000
  H   H288      1.0  0.56488  0.03924  0.80778  1.0000
  H   H289      1.0  0.20255  0.62764  0.63193  1.0000
  H   H290      1.0  0.31607  0.80540  0.81383  1.0000
  H   H291      1.0  0.57181  0.99613  0.58617  1.0000
  H   H292      1.0  0.31323  0.01649  0.59617  1.0000
  C   C390      1.0  0.48996  0.99739  0.71895  1.0000
  C   C391      1.0  0.46916  0.85646  0.80545  1.0000
  Fe  Fe26      1.0  0.21163  0.01204  0.59522  1.0000
  H   H293      1.0  0.49133  0.80748  0.76707  1.0000
  Fe  Fe27      1.0  0.27166  0.98409  0.66955  1.0000
  C   C392      1.0  0.50141  0.61537  0.75805  1.0000
  C   C393      1.0  0.46720  0.78127  0.61825  1.0000
  C   C394      1.0  0.45170  0.75693  0.65523  1.0000
  H   H294      1.0  0.49903  0.96188  0.65636  1.0000
  H   H295      1.0  0.41697  0.97928  0.67088  1.0000
  H   H296      1.0  0.42162  0.74670  0.65299  1.0000
  H   H297      1.0  0.52496  0.69295  0.63678  1.0000
  H   H298      1.0  0.55954  0.79308  0.66266  1.0000
  H   H299      1.0  0.23846  0.69183  0.62990  1.0000
  H   H300      1.0  0.45719  0.01017  0.60558  1.0000
  C   C395      1.0  0.53451  0.94315  0.77096  1.0000
  S   S53       1.0  0.38984  0.68640  0.58094  1.0000
  H   H301      1.0  0.25221  0.06062  0.81997  1.0000
  H   H302      1.0  0.27431  0.74630  0.82274  1.0000
  H   H303      1.0  0.48375  0.61578  0.83322  1.0000
  H   H304      1.0  0.40310  0.72237  0.84328  1.0000
  H   H305      1.0  0.19519  0.89123  0.00742  1.0000
  H   H306      1.0  0.45577  0.90395  0.85273  1.0000
  H   H307      1.0  0.12632  0.93552  0.03021  1.0000
  C   C396      1.0  0.42413  0.00195  0.94470  1.0000
  C   C397      1.0  0.24504  0.62917  0.88594  1.0000
  C   C398      1.0  0.12323  0.94701  0.06623  1.0000
  C   C399      1.0  0.29425  0.90027  0.98560  1.0000
  H   H308      1.0  0.33272  0.03847  0.94784  1.0000
  C   C400      1.0  0.24694  0.74837  0.98316  1.0000
  C   C401      1.0  0.25272  0.02827  0.93876  1.0000
  H   H309      1.0  0.10910  0.78679  0.91301  1.0000
  C   C402      1.0  0.26055  0.05328  0.89845  1.0000
  H   H310      1.0  0.14486  0.92075  0.95387  1.0000
  S   S54       1.0  0.18515  0.61828  0.05921  1.0000
  H   H311      1.0  0.50578  0.97997  0.95286  1.0000
  C   C403      1.0  0.42469  0.97686  0.90517  1.0000
  C   C404      1.0  0.19176  0.88181  0.96988  1.0000
  H   H312      1.0  0.22781  0.97295  0.96320  1.0000
  C   C405      1.0  0.26096  0.71267  0.96871  1.0000
  C   C406      1.0  0.45876  0.02729  0.85722  1.0000
  H   H313      1.0  0.12736  0.02689  0.02522  1.0000
  H   H314      1.0  0.44129  0.97016  0.83078  1.0000
  C   C407      1.0  0.24801  0.04170  0.85164  1.0000
  C   C408      1.0  0.19153  0.81315  0.05762  1.0000
  C   C409      1.0  0.47691  0.88283  0.84342  1.0000
  H   H315      1.0  0.13537  0.89966  0.86853  1.0000
  S   S55       1.0  0.09003  0.62285  0.97842  1.0000
  C   C410      1.0  0.36888  0.86935  0.84477  1.0000
  C   C411      1.0  0.33155  0.92793  0.84971  1.0000
  C   C412      1.0  0.36411  0.90584  0.99974  1.0000
  C   C413      1.0  0.21529  0.85277  0.95175  1.0000
  S   S56       1.0  0.08724  0.80177  0.02808  1.0000
  H   H316      1.0  0.24852  0.68560  0.98358  1.0000
  C   C414      1.0  0.54452  0.98282  0.01566  1.0000
  H   H317      1.0  0.15649  0.02144  0.94426  1.0000
  C   C415      1.0  0.29185  0.71168  0.93644  1.0000
  C   C416      1.0  0.22223  0.98042  0.88514  1.0000
  H   H318      1.0  0.17796  0.85021  0.83512  1.0000
  C   C417      1.0  0.19810  0.68007  0.87538  1.0000
  C   C418      1.0  0.08805  0.75169  0.01613  1.0000
  H   H319      1.0  0.43345  0.78846  0.84014  1.0000
  C   C419      1.0  0.30820  0.74651  0.91754  1.0000
  C   C420      1.0  0.18196  0.85891  0.87275  1.0000
  Fe  Fe28      1.0  0.23155  0.58632  0.02159  1.0000
  C   C421      1.0  0.26462  0.78355  0.96649  1.0000
  C   C422      1.0  0.44185  0.98951  0.86155  1.0000
  C   C423      1.0  0.53192  0.99356  0.96854  1.0000
  C   C424      1.0  0.10978  0.77126  0.87883  1.0000
  C   C425      1.0  0.08988  0.67209  0.99438  1.0000
  H   H320      1.0  0.15120  0.68257  0.98299  1.0000
  C   C426      1.0  0.23406  0.99184  0.93195  1.0000
  H   H321      1.0  0.52747  0.96096  0.03554  1.0000
  C   C427      1.0  0.57067  0.56561  0.87593  1.0000
  C   C428      1.0  0.55237  0.02259  0.94223  1.0000
  C   C429      1.0  0.15788  0.88681  0.89150  1.0000
  P   P13       1.0  0.25098  0.82958  0.99131  1.0000
  C   C430      1.0  0.26229  0.64065  0.84206  1.0000
  H   H322      1.0  0.54204  0.03165  0.90632  1.0000
  H   H323      1.0  0.39080  0.92347  0.00198  1.0000
  C   C431      1.0  0.23188  0.81854  0.05142  1.0000
  C   C432      1.0  0.32138  0.61728  0.05264  1.0000
  H   H324      1.0  0.52607  0.97844  0.83358  1.0000
  C   C433      1.0  0.32885  0.92307  0.98716  1.0000
  H   H325      1.0  0.22882  0.82032  0.88730  1.0000
  C   C434      1.0  0.53989  0.85451  0.85914  1.0000
  H   H326      1.0  0.54643  0.84163  0.01089  1.0000
  H   H327      1.0  0.41150  0.94775  0.90823  1.0000
  S   S57       1.0  0.19102  0.56420  0.96218  1.0000
  H   H328      1.0  0.32491  0.87799  0.89795  1.0000
  H   H329      1.0  0.51804  0.90229  0.89926  1.0000
  C   C435      1.0  0.44025  0.03987  0.94046  1.0000
  C   C436      1.0  0.29481  0.86007  0.99676  1.0000
  H   H330      1.0  0.46500  0.00524  0.03920  1.0000
  H   H331      1.0  0.22331  0.74824  0.00871  1.0000
  C   C437      1.0  0.13584  0.04402  0.95028  1.0000
  H   H332      1.0  0.17253  0.69364  0.88868  1.0000
  H   H333      1.0  0.39207  0.85299  0.02266  1.0000
  H   H334      1.0  0.17115  0.81885  0.02786  1.0000
  H   H335      1.0  0.30906  0.94422  0.86669  1.0000
  Fe  Fe29      1.0  0.14395  0.59232  0.00355  1.0000
  C   C438      1.0  0.11924  0.04720  0.99619  1.0000
  H   H336      1.0  0.25624  0.60464  0.90677  1.0000
  C   C439      1.0  0.12417  0.69523  0.99311  1.0000
  H   H337      1.0  0.37502  0.03581  0.02128  1.0000
  H   H338      1.0  0.57187  0.90919  0.99411  1.0000
  C   C440      1.0  0.21328  0.64922  0.90275  1.0000
  C   C441      1.0  0.45713  0.05269  0.89675  1.0000
  H   H339      1.0  0.37525  0.84052  0.85901  1.0000
  C   C442      1.0  0.33039  0.84327  0.01025  1.0000
  H   H340      1.0  0.29624  0.71904  0.06096  1.0000
  C   C443      1.0  0.16313  0.89858  0.93981  1.0000
  H   H341      1.0  0.20715  0.95259  0.87973  1.0000
  H   H342      1.0  0.14937  0.75322  0.00070  1.0000
  S   S58       1.0  0.19956  0.97073  0.05998  1.0000
  H   H343      1.0  0.55045  0.58904  0.87868  1.0000
  C   C444      1.0  0.51214  0.88184  0.87012  1.0000
  C   C445      1.0  0.36484  0.86605  0.01147  1.0000
  C   C446      1.0  0.34042  0.89063  0.86725  1.0000
  H   H344      1.0  0.17218  0.77005  0.87814  1.0000
  H   H345      1.0  0.26722  0.91424  0.97649  1.0000
  H   H346      1.0  0.33169  0.81250  0.01991  1.0000
  H   H347      1.0  0.33195  0.74565  0.89221  1.0000
  H   H348      1.0  0.30310  0.68378  0.92636  1.0000
  H   H349      1.0  0.30774  0.80910  0.91771  1.0000
  C   C447      1.0  0.14542  0.76198  0.85882  1.0000
  C   C448      1.0  0.21070  0.84203  0.90260  1.0000
  H   H350      1.0  0.20014  0.64108  0.93712  1.0000
  H   H351      1.0  0.32821  0.95430  0.98007  1.0000
  S   S59       1.0  0.28985  0.61316  0.00177  1.0000
  C   C449      1.0  0.29437  0.78237  0.93208  1.0000
  C   C450      1.0  0.35924  0.63275  0.04711  1.0000
  C   C451      1.0  0.12310  0.73517  0.00316  1.0000
  H   H352      1.0  0.36897  0.64248  0.01142  1.0000
  H   H353      1.0  0.26042  0.03707  0.97567  1.0000
  H   H354      1.0  0.41113  0.99203  0.97861  1.0000
  C   C452      1.0  0.22890  0.00548  0.84523  1.0000
  C   C453      1.0  0.57803  0.00085  0.03677  1.0000
  C   C454      1.0  0.36217  0.06288  0.01046  1.0000
  H   H355      1.0  0.43954  0.05963  0.97096  1.0000
  C   C455      1.0  0.57629  0.84673  0.99954  1.0000
  H   H356      1.0  0.28664  0.62485  0.82875  1.0000
  H   H357      1.0  0.56738  0.85382  0.87942  1.0000
  H   H358      1.0  0.08858  0.58525  0.88079  1.0000
  C   C456      1.0  0.21512  0.69176  0.83112  1.0000
  C   C457      1.0  0.45789  0.02403  0.06870  1.0000
  H   H359      1.0  0.57309  0.66915  0.87105  1.0000
  S   S60       1.0  0.29503  0.92648  0.10277  1.0000
  S   S61       1.0  0.29310  0.01948  0.12519  1.0000
  H   H360      1.0  0.17487  0.99546  0.15465  1.0000
  S   S62       1.0  0.40387  0.62495  0.18531  1.0000
  H   H361      1.0  0.56385  0.90697  0.10275  1.0000
  S   S63       1.0  0.24410  0.95433  0.19414  1.0000
  C   C458      1.0  0.17621  0.65021  0.26049  1.0000
  H   H362      1.0  0.09677  0.90338  0.22409  1.0000
  H   H363      1.0  0.13396  0.70480  0.11631  1.0000
  C   C459      1.0  0.48390  0.82896  0.24539  1.0000
  C   C460      1.0  0.31681  0.70693  0.13391  1.0000
  C   C461      1.0  0.42545  0.01504  0.09724  1.0000
  C   C462      1.0  0.33108  0.65575  0.29140  1.0000
  H   H364      1.0  0.55076  0.58027  0.22675  1.0000
  H   H365      1.0  0.14569  0.79490  0.10633  1.0000
  Fe  Fe30      1.0  0.29016  0.00125  0.20442  1.0000
  C   C463      1.0  0.52636  0.98756  0.15347  1.0000
  H   H366      1.0  0.33040  0.69200  0.20777  1.0000
  H   H367      1.0  0.23025  0.73503  0.25501  1.0000
  C   C464      1.0  0.11485  0.97547  0.16024  1.0000
  Fe  Fe31      1.0  0.53629  0.68786  0.13940  1.0000
  H   H368      1.0  0.42025  0.87803  0.10941  1.0000
  C   C465      1.0  0.20238  0.78945  0.14053  1.0000
  H   H369      1.0  0.33852  0.63646  0.26224  1.0000
  H   H370      1.0  0.23246  0.80010  0.27636  1.0000
  C   C466      1.0  0.25105  0.69235  0.10528  1.0000
  C   C467      1.0  0.25337  0.60339  0.25119  1.0000
  H   H371      1.0  0.41399  0.64672  0.08297  1.0000
  C   C468      1.0  0.18598  0.87537  0.18993  1.0000
  H   H372      1.0  0.17851  0.61882  0.25877  1.0000
  Fe  Fe32      1.0  0.33859  0.97416  0.12068  1.0000
  H   H373      1.0  0.44001  0.00394  0.30278  1.0000
  H   H374      1.0  0.23244  0.86057  0.23869  1.0000
  P   P14       1.0  0.25700  0.65608  0.24871  1.0000
  H   H375      1.0  0.50209  0.87752  0.13296  1.0000
  H   H376      1.0  0.41152  0.80162  0.30157  1.0000
  C   C469      1.0  0.41671  0.03894  0.13617  1.0000
  H   H377      1.0  0.48434  0.57849  0.26056  1.0000
  S   S64       1.0  0.51535  0.65542  0.20692  1.0000
  C   C470      1.0  0.37240  0.62265  0.13393  1.0000
  C   C471      1.0  0.53477  0.86504  0.29030  1.0000
  C   C472      1.0  0.16785  0.73117  0.26078  1.0000
  S   S65       1.0  0.33948  0.96073  0.20057  1.0000
  H   H378      1.0  0.11692  0.05943  0.23467  1.0000
  H   H379      1.0  0.28847  0.81351  0.08766  1.0000
  H   H380      1.0  0.47040  0.98854  0.18737  1.0000
  C   C473      1.0  0.45952  0.86057  0.24775  1.0000
  C   C474      1.0  0.30769  0.69144  0.18000  1.0000
  C   C475      1.0  0.25386  0.80737  0.30441  1.0000
  C   C476      1.0  0.10557  0.65109  0.14081  1.0000
  H   H381      1.0  0.11378  0.64611  0.26015  1.0000
  H   H382      1.0  0.23634  0.93320  0.30592  1.0000
  C   C477      1.0  0.13485  0.70622  0.26166  1.0000
  C   C478      1.0  0.17690  0.79889  0.10204  1.0000
  C   C479      1.0  0.50920  0.90816  0.13906  1.0000
  H   H383      1.0  0.36108  0.89720  0.14974  1.0000
  C   C480      1.0  0.40266  0.85628  0.12889  1.0000
  H   H384      1.0  0.12592  0.89141  0.30580  1.0000
  C   C481      1.0  0.41412  0.81769  0.13222  1.0000
  S   S66       1.0  0.15461  0.56606  0.18005  1.0000
  H   H385      1.0  0.10602  0.71835  0.26122  1.0000
  S   S67       1.0  0.58195  0.67222  0.08654  1.0000
  S   S68       1.0  0.29065  0.04348  0.26528  1.0000
  Fe  Fe33      1.0  0.45532  0.66677  0.17690  1.0000
  H   H386      1.0  0.47402  0.80300  0.22638  1.0000
  C   C482      1.0  0.24250  0.79508  0.13501  1.0000
  C   C483      1.0  0.08794  0.94111  0.09035  1.0000
  P   P15       1.0  0.58388  0.86758  0.31621  1.0000
  C   C484      1.0  0.50986  0.89675  0.29262  1.0000
  C   C485      1.0  0.37881  0.98932  0.30773  1.0000
  H   H387      1.0  0.12863  0.63303  0.12911  1.0000
  S   S69       1.0  0.53900  0.74625  0.17524  1.0000
  C   C486      1.0  0.34633  0.83954  0.17810  1.0000
  C   C487      1.0  0.20951  0.67511  0.25926  1.0000
  C   C488      1.0  0.48240  0.93128  0.16178  1.0000
  C   C489      1.0  0.35707  0.80055  0.17999  1.0000
  C   C490      1.0  0.15060  0.98052  0.13654  1.0000
  C   C491      1.0  0.27028  0.67514  0.18886  1.0000
  H   H388      1.0  0.43068  0.85884  0.23086  1.0000
  C   C492      1.0  0.28946  0.78870  0.30534  1.0000
  H   H389      1.0  0.24734  0.59635  0.17319  1.0000
  S   S70       1.0  0.39521  0.97500  0.08165  1.0000
  S   S71       1.0  0.30484  0.85374  0.20825  1.0000
  C   C493      1.0  0.12627  0.89332  0.22751  1.0000
  C   C494      1.0  0.47233  0.89430  0.27180  1.0000
  H   H390      1.0  0.29579  0.76795  0.27744  1.0000
  C   C495      1.0  0.30901  0.60466  0.09869  1.0000
  C   C496      1.0  0.52100  0.83078  0.26734  1.0000
  C   C497      1.0  0.13911  0.66574  0.26130  1.0000
  C   C498      1.0  0.25278  0.58369  0.29672  1.0000
  Fe  Fe34      1.0  0.29401  0.91495  0.18308  1.0000
  H   H391      1.0  0.53158  0.01864  0.15795  1.0000
  C   C499      1.0  0.20244  0.86812  0.23611  1.0000
  H   H392      1.0  0.45427  0.91892  0.17215  1.0000
  H   H393      1.0  0.47065  0.57217  0.17715  1.0000
  H   H394      1.0  0.32498  0.59716  0.17488  1.0000
  H   H395      1.0  0.33943  0.77889  0.19945  1.0000
  H   H396      1.0  0.21279  0.66395  0.15687  1.0000
  C   C500      1.0  0.29322  0.66977  0.29448  1.0000
  H   H397      1.0  0.12633  0.81675  0.30755  1.0000
  C   C501      1.0  0.20498  0.71566  0.25879  1.0000
  H   H398      1.0  0.45335  0.91886  0.27310  1.0000
  Fe  Fe35      1.0  0.24938  0.97005  0.11438  1.0000
  H   H399      1.0  0.51897  0.92352  0.30993  1.0000
  H   H400      1.0  0.26236  0.78802  0.16494  1.0000
  H   H401      1.0  0.34613  0.71787  0.12678  1.0000
  C   C502      1.0  0.54432  0.92490  0.12248  1.0000
  C   C503      1.0  0.24897  0.58182  0.20842  1.0000
  H   H402      1.0  0.20324  0.87276  0.15747  1.0000
  H   H403      1.0  0.37032  0.01045  0.27976  1.0000
  C   C504      1.0  0.36889  0.86716  0.15188  1.0000
  C   C505      1.0  0.10867  0.69157  0.13391  1.0000
  C   C506      1.0  0.14287  0.88644  0.27372  1.0000
  C   C507      1.0  0.14766  0.88720  0.18559  1.0000
  C   C508      1.0  0.28860  0.70741  0.09662  1.0000
  C   C509      1.0  0.55283  0.96496  0.12879  1.0000
  H   H404      1.0  0.38948  0.65744  0.32152  1.0000
  H   H405      1.0  0.16449  0.76253  0.25987  1.0000
  S   S72       1.0  0.52325  0.72994  0.31889  1.0000
  H   H406      1.0  0.39852  0.75942  0.15675  1.0000
  C   C510      1.0  0.49140  0.97064  0.17011  1.0000
  C   C511      1.0  0.39079  0.78961  0.15652  1.0000
  H   H407      1.0  0.45347  0.58270  0.09035  1.0000
  H   H408      1.0  0.53034  0.61028  0.12231  1.0000
  C   C512      1.0  0.18054  0.87194  0.27823  1.0000
  C   C513      1.0  0.55250  0.59760  0.10087  1.0000
  H   H409      1.0  0.53884  0.80532  0.26607  1.0000
  H   H410      1.0  0.11193  0.98549  0.19714  1.0000
  H   H411      1.0  0.27983  0.59279  0.10278  1.0000
  S   S73       1.0  0.45182  0.72360  0.21474  1.0000
  Fe  Fe36      1.0  0.47771  0.75075  0.14715  1.0000
  C   C514      1.0  0.33453  0.60714  0.13926  1.0000
  C   C515      1.0  0.25725  0.80978  0.09084  1.0000
  Fe  Fe37      1.0  0.51309  0.71464  0.24012  1.0000
  C   C516      1.0  0.15481  0.96614  0.08954  1.0000
  H   H412      1.0  0.13492  0.89237  0.14966  1.0000
  H   H413      1.0  0.39133  0.03237  0.15798  1.0000
  C   C517      1.0  0.24194  0.67602  0.15106  1.0000
  H   H414      1.0  0.19098  0.77830  0.17475  1.0000
  S   S74       1.0  0.47658  0.69469  0.10727  1.0000
  S   S75       1.0  0.45886  0.80543  0.10891  1.0000
  H   H415      1.0  0.32018  0.96740  0.31861  1.0000
  C   C518      1.0  0.38470  0.63546  0.08774  1.0000
  C   C519      1.0  0.48071  0.05780  0.07750  1.0000
  C   C520      1.0  0.41803  0.98584  0.32095  1.0000
  C   C521      1.0  0.58054  0.62164  0.07775  1.0000
  H   H416      1.0  0.22915  0.69286  0.07631  1.0000
  H   H417      1.0  0.47593  0.62577  0.48826  1.0000
  C   C522      1.0  0.15244  0.66373  0.38890  1.0000
  C   C523      1.0  0.45830  0.95164  0.49159  1.0000
  C   C524      1.0  0.11968  0.98246  0.38826  1.0000
  C   C525      1.0  0.12143  0.76627  0.41487  1.0000
  C   C526      1.0  0.45904  0.92191  0.45705  1.0000
  C   C527      1.0  0.13175  0.00454  0.42855  1.0000
  C   C528      1.0  0.57701  0.57868  0.42606  1.0000
  Fe  Fe38      1.0  0.30310  0.74668  0.53182  1.0000
  C   C529      1.0  0.17798  0.81038  0.41496  1.0000
  H   H418      1.0  0.16119  0.01683  0.43075  1.0000
  C   C530      1.0  0.54732  0.64183  0.42524  1.0000
  C   C531      1.0  0.23374  0.80759  0.54127  1.0000
  H   H419      1.0  0.23763  0.64463  0.48030  1.0000
  H   H420      1.0  0.37834  0.83679  0.48818  1.0000
  H   H421      1.0  0.45937  0.95769  0.36797  1.0000
  H   H422      1.0  0.16436  0.77015  0.47346  1.0000
  H   H423      1.0  0.35307  0.04651  0.53038  1.0000
  C   C532      1.0  0.22834  0.93622  0.34374  1.0000
  H   H424      1.0  0.10351  0.86268  0.43500  1.0000
  C   C533      1.0  0.50340  0.69970  0.56299  1.0000
  H   H425      1.0  0.52627  0.80542  0.46449  1.0000
  C   C534      1.0  0.48569  0.64020  0.52114  1.0000
  H   H426      1.0  0.12152  0.93602  0.55947  1.0000
  H   H427      1.0  0.49236  0.99266  0.53483  1.0000
  H   H428      1.0  0.55756  0.91871  0.44477  1.0000
  H   H429      1.0  0.18391  0.88719  0.43797  1.0000
  H   H430      1.0  0.52730  0.82196  0.37615  1.0000
  C   C535      1.0  0.22173  0.84555  0.53131  1.0000
  C   C536      1.0  0.36402  0.86353  0.49600  1.0000
  H   H431      1.0  0.20409  0.94782  0.48040  1.0000
  S   S76       1.0  0.43624  0.05334  0.51765  1.0000
  H   H432      1.0  0.53496  0.59767  0.37186  1.0000
  C   C537      1.0  0.40795  0.03080  0.56369  1.0000
  H   H433      1.0  0.12605  0.92577  0.47055  1.0000
  C   C538      1.0  0.10099  0.86724  0.47383  1.0000
  C   C539      1.0  0.23126  0.56617  0.50866  1.0000
  C   C540      1.0  0.11135  0.77954  0.36784  1.0000
  H   H434      1.0  0.32359  0.83376  0.54418  1.0000
  C   C541      1.0  0.44956  0.57187  0.42217  1.0000
  H   H435      1.0  0.36507  0.96156  0.47068  1.0000
  C   C542      1.0  0.23907  0.97070  0.36776  1.0000
  C   C543      1.0  0.49307  0.96943  0.50864  1.0000
  S   S77       1.0  0.25673  0.78201  0.49617  1.0000
  P   P16       1.0  0.18294  0.57565  0.48445  1.0000
  C   C544      1.0  0.33293  0.86158  0.52818  1.0000
  H   H436      1.0  0.13991  0.97750  0.35926  1.0000
  H   H437      1.0  0.30577  0.72149  0.39921  1.0000
  C   C545      1.0  0.37584  0.89944  0.47439  1.0000
  H   H438      1.0  0.49649  0.88829  0.41243  1.0000
  C   C546      1.0  0.31373  0.89537  0.53970  1.0000
  C   C547      1.0  0.32556  0.93131  0.51899  1.0000
  H   H439      1.0  0.33064  0.82991  0.40668  1.0000
  C   C548      1.0  0.49514  0.91032  0.44003  1.0000
  C   C549      1.0  0.15282  0.62847  0.41556  1.0000
  C   C550      1.0  0.31289  0.70377  0.36845  1.0000
  H   H440      1.0  0.37346  0.70007  0.38996  1.0000
  S   S78       1.0  0.35592  0.63162  0.45692  1.0000
  Fe  Fe39      1.0  0.35305  0.67742  0.51334  1.0000
  C   C551      1.0  0.27449  0.84394  0.37575  1.0000
  H   H441      1.0  0.41535  0.61724  0.38943  1.0000
  C   C552      1.0  0.23066  0.97460  0.41707  1.0000
  C   C553      1.0  0.28261  0.57974  0.56915  1.0000
  C   C554      1.0  0.39651  0.60234  0.46215  1.0000
  H   H442      1.0  0.45053  0.83292  0.47233  1.0000
  C   C555      1.0  0.40049  0.93555  0.38122  1.0000
  H   H443      1.0  0.38414  0.58086  0.53488  1.0000
  H   H444      1.0  0.26912  0.86454  0.40416  1.0000
  H   H445      1.0  0.18248  0.71893  0.37440  1.0000
  C   C556      1.0  0.24666  0.58842  0.54751  1.0000
  C   C557      1.0  0.21267  0.68480  0.42909  1.0000
  H   H446      1.0  0.50690  0.73117  0.56260  1.0000
  C   C558      1.0  0.42886  0.95937  0.35788  1.0000
  C   C559      1.0  0.13430  0.80855  0.34465  1.0000
  H   H447      1.0  0.37251  0.04877  0.44582  1.0000
  H   H448      1.0  0.43109  0.96186  0.50486  1.0000
  C   C560      1.0  0.36124  0.93808  0.36628  1.0000
  H   H449      1.0  0.55940  0.74700  0.41099  1.0000
  C   C561      1.0  0.16748  0.82500  0.36859  1.0000
  H   H450      1.0  0.22851  0.85967  0.49680  1.0000
  H   H451      1.0  0.25433  0.99426  0.34821  1.0000
  C   C562      1.0  0.55055  0.82241  0.44959  1.0000
  H   H452      1.0  0.33891  0.91934  0.38277  1.0000
  H   H453      1.0  0.10398  0.74344  0.43268  1.0000
  H   H454      1.0  0.55539  0.97273  0.50348  1.0000
  H   H455      1.0  0.25490  0.70316  0.33827  1.0000
  S   S79       1.0  0.35741  0.74035  0.48990  1.0000
  C   C563      1.0  0.52871  0.95803  0.49114  1.0000
  C   C564      1.0  0.11111  0.90864  0.54384  1.0000
  C   C565      1.0  0.35646  0.93340  0.48647  1.0000
  H   H456      1.0  0.17726  0.72826  0.54592  1.0000
  C   C566      1.0  0.10588  0.01130  0.46602  1.0000
  S   S80       1.0  0.43993  0.79180  0.56517  1.0000
  H   H457      1.0  0.14119  0.78923  0.55322  1.0000
  C   C567      1.0  0.31720  0.79708  0.34193  1.0000
  C   C568      1.0  0.55133  0.60524  0.40477  1.0000
  C   C569      1.0  0.18319  0.62106  0.44934  1.0000
  C   C570      1.0  0.41984  0.80863  0.33891  1.0000
  C   C571      1.0  0.20266  0.86601  0.56695  1.0000
  H   H458      1.0  0.33089  0.56887  0.35668  1.0000
  C   C572      1.0  0.11375  0.59614  0.52867  1.0000
  C   C573      1.0  0.42001  0.59896  0.42151  1.0000
  C   C574      1.0  0.18247  0.69178  0.39544  1.0000
  H   H459      1.0  0.56753  0.94294  0.36020  1.0000
  H   H460      1.0  0.23062  0.61221  0.56144  1.0000
  C   C575      1.0  0.30956  0.82432  0.37747  1.0000
  C   C576      1.0  0.55117  0.83215  0.39963  1.0000
  C   C577      1.0  0.35048  0.96518  0.32997  1.0000
  Fe  Fe40      1.0  0.38860  0.75024  0.56122  1.0000
  H   H461      1.0  0.58145  0.82579  0.51897  1.0000
  H   H462      1.0  0.12949  0.60690  0.40971  1.0000
  C   C578      1.0  0.44901  0.78964  0.41656  1.0000
  H   H463      1.0  0.52812  0.66274  0.40793  1.0000
  C   C579      1.0  0.42306  0.85457  0.40565  1.0000
  C   C580      1.0  0.52982  0.92803  0.45749  1.0000
  C   C581      1.0  0.35108  0.69177  0.36327  1.0000
  C   C582      1.0  0.21056  0.94446  0.44207  1.0000
  C   C583      1.0  0.56788  0.65131  0.46819  1.0000
  C   C584      1.0  0.11383  0.90276  0.49375  1.0000
  S   S81       1.0  0.20735  0.03695  0.51899  1.0000
  H   H464      1.0  0.28990  0.89357  0.56505  1.0000
  H   H465      1.0  0.10533  0.60916  0.49396  1.0000
  C   C585      1.0  0.43846  0.78087  0.36836  1.0000
  H   H466      1.0  0.19372  0.89550  0.55930  1.0000
  H   H467      1.0  0.49499  0.58665  0.56034  1.0000
  C   C586      1.0  0.40240  0.57829  0.50350  1.0000
  H   H468      1.0  0.32777  0.04495  0.37345  1.0000
  H   H469      1.0  0.11610  0.02870  0.49662  1.0000
  C   C587      1.0  0.36723  0.03184  0.56079  1.0000
  H   H470      1.0  0.31081  0.95760  0.52824  1.0000
  H   H471      1.0  0.56485  0.67972  0.48415  1.0000
  S   S82       1.0  0.29628  0.68322  0.55041  1.0000
  P   P17       1.0  0.20018  0.85969  0.33806  1.0000
  C   C588      1.0  0.12901  0.76216  0.56831  1.0000
  H   H472      1.0  0.12893  0.66928  0.36303  1.0000
  P   P18       1.0  0.41430  0.90217  0.43005  1.0000
  C   C589      1.0  0.14979  0.57818  0.53483  1.0000
  H   H473      1.0  0.46839  0.57036  0.39136  1.0000
  H   H474      1.0  0.44486  0.75259  0.35377  1.0000
  H   H475      1.0  0.39708  0.86611  0.33398  1.0000
  C   C590      1.0  0.41181  0.84526  0.35750  1.0000
  C   C591      1.0  0.14958  0.72775  0.56432  1.0000
  C   C592      1.0  0.48842  0.68092  0.52163  1.0000
  H   H476      1.0  0.46305  0.76794  0.43962  1.0000
  C   C593      1.0  0.21331  0.64947  0.45553  1.0000
  C   C594      1.0  0.44170  0.82643  0.43502  1.0000
  C   C595      1.0  0.15504  0.78146  0.43811  1.0000
  H   H477      1.0  0.47987  0.69783  0.48952  1.0000
  H   H478      1.0  0.20468  0.82060  0.43264  1.0000
  C   C596      1.0  0.49660  0.61815  0.56239  1.0000
  H   H479      1.0  0.23962  0.00110  0.43588  1.0000
  H   H480      1.0  0.23584  0.70672  0.43467  1.0000
  C   C597      1.0  0.19911  0.91017  0.41785  1.0000
  C   C598      1.0  0.20830  0.90564  0.36858  1.0000
  C   C599      1.0  0.24653  0.83605  0.33860  1.0000
  C   C600      1.0  0.57033  0.72161  0.34153  1.0000
  H   H481      1.0  0.34431  0.78188  0.34315  1.0000
  C   C601      1.0  0.28406  0.69311  0.33393  1.0000
  C   C602      1.0  0.58062  0.73346  0.38881  1.0000
  H   H482      1.0  0.25588  0.59980  0.33036  1.0000
  C   C603      1.0  0.58265  0.85429  0.38043  1.0000
  H   H483      1.0  0.08615  0.76696  0.34864  1.0000
  H   H484      1.0  0.43678  0.90309  0.57247  1.0000
  C   C604      1.0  0.08551  0.83747  0.50414  1.0000
  C   C605      1.0  0.58172  0.83370  0.48034  1.0000
  C   C606      1.0  0.09596  0.87887  0.57426  1.0000
  C   C607      1.0  0.08784  0.59688  0.56749  1.0000
  C   C608      1.0  0.36008  0.66749  0.32498  1.0000
  H   H485      1.0  0.64175  0.52011  0.67491  1.0000
  H   H486      1.0  0.93204  0.19851  0.73183  1.0000
  C   C609      1.0  0.85557  0.07083  0.73142  1.0000
  H   H487      1.0  0.97957  0.38676  0.66140  1.0000
  H   H488      1.0  0.69423  0.47271  0.82033  1.0000
  C   C610      1.0  0.68878  0.55675  0.77608  1.0000
  C   C611      1.0  0.97030  0.25912  0.78985  1.0000
  H   H489      1.0  0.06287  0.45389  0.79672  1.0000
  C   C612      1.0  0.73151  0.10982  0.62366  1.0000
  S   S83       1.0  0.04078  0.14621  0.69534  1.0000
  C   C613      1.0  0.07793  0.48401  0.65084  1.0000
  H   H490      1.0  0.87012  0.20209  0.59439  1.0000
  C   C614      1.0  0.66499  0.09299  0.64582  1.0000
  C   C615      1.0  0.65766  0.07745  0.59960  1.0000
  C   C616      1.0  0.60236  0.29855  0.64601  1.0000
  C   C617      1.0  0.83861  0.09905  0.70100  1.0000
  C   C618      1.0  0.88986  0.36912  0.59729  1.0000
  H   H491      1.0  0.02340  0.32729  0.79091  1.0000
  H   H492      1.0  0.85322  0.10294  0.59863  1.0000
  H   H493      1.0  0.68445  0.24222  0.72230  1.0000
  H   H494      1.0  0.95215  0.08387  0.77372  1.0000
  H   H495      1.0  0.85206  0.12803  0.69852  1.0000
  C   C619      1.0  0.96212  0.40777  0.73106  1.0000
  C   C620      1.0  0.02845  0.45425  0.57692  1.0000
  H   H496      1.0  0.98242  0.46210  0.62866  1.0000
  C   C621      1.0  0.94936  0.09486  0.81018  1.0000
  C   C622      1.0  0.04455  0.51266  0.78411  1.0000
  H   H497      1.0  0.59915  0.27100  0.81143  1.0000
  C   C623      1.0  0.03795  0.47988  0.65842  1.0000
  H   H498      1.0  0.67653  0.27098  0.80758  1.0000
  C   C624      1.0  0.94730  0.39749  0.77685  1.0000
  H   H499      1.0  0.98815  0.14455  0.79762  1.0000
  H   H500      1.0  0.86401  0.35408  0.61099  1.0000
  C   C625      1.0  0.66437  0.34702  0.75652  1.0000
  C   C626      1.0  0.88700  0.27273  0.80825  1.0000
  H   H501      1.0  0.78196  0.26867  0.68136  1.0000
  H   H502      1.0  0.99343  0.24718  0.71898  1.0000
  C   C627      1.0  0.61176  0.46213  0.58391  1.0000
  C   C628      1.0  0.59672  0.26634  0.61529  1.0000
  C   C629      1.0  0.77396  0.23201  0.74563  1.0000
  Fe  Fe41      1.0  0.04116  0.18583  0.62976  1.0000
  C   C630      1.0  0.72238  0.34348  0.68656  1.0000
  H   H503      1.0  0.04184  0.37931  0.73075  1.0000
  C   C631      1.0  0.89135  0.40989  0.59343  1.0000
  H   H504      1.0  0.85959  0.32730  0.78952  1.0000
  C   C632      1.0  0.69720  0.37222  0.75908  1.0000
  C   C633      1.0  0.58795  0.21561  0.72656  1.0000
  C   C634      1.0  0.79527  0.50746  0.61782  1.0000
  C   C635      1.0  0.94604  0.09240  0.63527  1.0000
  C   C636      1.0  0.70049  0.54382  0.67676  1.0000
  H   H505      1.0  0.87893  0.30495  0.68131  1.0000
  S   S84       1.0  0.99471  0.22944  0.61888  1.0000
  C   C637      1.0  0.78510  0.48427  0.57774  1.0000
  C   C638      1.0  0.93608  0.35862  0.78747  1.0000
  H   H506      1.0  0.83931  0.54544  0.65083  1.0000
  H   H507      1.0  0.76902  0.13275  0.74642  1.0000
  C   C639      1.0  0.87166  0.25562  0.63447  1.0000
  C   C640      1.0  0.77745  0.16902  0.68140  1.0000
  H   H508      1.0  0.85456  0.27125  0.60713  1.0000
  H   H509      1.0  0.69023  0.17217  0.74122  1.0000
  C   C641      1.0  0.66173  0.18424  0.73693  1.0000
  H   H510      1.0  0.96038  0.31837  0.67949  1.0000
  H   H511      1.0  0.63105  0.53106  0.76230  1.0000
  S   S85       1.0  0.89993  0.53783  0.72804  1.0000
  H   H512      1.0  0.02726  0.06731  0.73024  1.0000
  C   C642      1.0  0.97530  0.12018  0.64687  1.0000
  H   H513      1.0  0.69969  0.39344  0.78793  1.0000
  H   H514      1.0  0.07671  0.28685  0.70825  1.0000
  C   C643      1.0  0.65830  0.22416  0.72677  1.0000
  H   H515      1.0  0.70562  0.53738  0.63902  1.0000
  H   H516      1.0  0.64219  0.34948  0.78376  1.0000
  C   C644      1.0  0.90887  0.25482  0.71102  1.0000
  H   H517      1.0  0.64209  0.09242  0.67240  1.0000
  C   C645      1.0  0.78160  0.20770  0.66393  1.0000
  C   C646      1.0  0.05185  0.34159  0.79347  1.0000
  S   S86       1.0  0.99500  0.50040  0.79012  1.0000
  C   C647      1.0  0.70179  0.10882  0.65796  1.0000
  H   H518      1.0  0.75114  0.39078  0.72534  1.0000
  H   H519      1.0  0.97509  0.14856  0.62920  1.0000
  C   C648      1.0  0.01324  0.46503  0.62170  1.0000
  C   C649      1.0  0.99813  0.24551  0.75810  1.0000
  H   H520      1.0  0.76618  0.18819  0.80237  1.0000
  H   H521      1.0  0.78641  0.21419  0.62578  1.0000
  C   C650      1.0  0.83177  0.52715  0.62009  1.0000
  C   C651      1.0  0.00460  0.07436  0.70385  1.0000
  C   C652      1.0  0.91548  0.21495  0.70485  1.0000
  C   C653      1.0  0.62130  0.24020  0.72252  1.0000
  H   H522      1.0  0.77512  0.50989  0.64724  1.0000
  C   C654      1.0  0.80417  0.08996  0.67453  1.0000
  C   C655      1.0  0.68950  0.31840  0.68377  1.0000
  C   C656      1.0  0.65860  0.54033  0.74677  1.0000
  H   H523      1.0  0.86676  0.42651  0.60444  1.0000
  C   C657      1.0  0.05635  0.55119  0.77275  1.0000
  C   C658      1.0  0.85849  0.30090  0.81199  1.0000
  C   C659      1.0  0.95547  0.34024  0.70663  1.0000
  C   C660      1.0  0.06196  0.37109  0.75978  1.0000
  P   P19       1.0  0.61542  0.29152  0.70971  1.0000
  C   C661      1.0  0.88574  0.27466  0.67633  1.0000
  S   S87       1.0  0.90408  0.54730  0.58444  1.0000
  H   H524      1.0  0.59616  0.23668  0.62956  1.0000
  C   C662      1.0  0.77049  0.19364  0.76369  1.0000
  H   H525      1.0  0.90763  0.16572  0.65732  1.0000
  H   H526      1.0  0.63095  0.12884  0.74796  1.0000
  H   H527      1.0  0.60876  0.36167  0.64808  1.0000
  H   H528      1.0  0.69282  0.20286  0.62019  1.0000
  P   P20       1.0  0.77973  0.12804  0.64058  1.0000
  C   C663      1.0  0.60349  0.33646  0.62534  1.0000
  H   H529      1.0  0.05357  0.21876  0.75175  1.0000
  C   C664      1.0  0.93909  0.32988  0.75188  1.0000
  C   C665      1.0  0.90139  0.19606  0.66290  1.0000
  H   H530      1.0  0.77226  0.25635  0.77011  1.0000
  C   C666      1.0  0.96652  0.37910  0.69617  1.0000
  C   C667      1.0  0.03254  0.22986  0.77662  1.0000
  P   P21       1.0  0.92600  0.27939  0.76552  1.0000
  Fe  Fe42      1.0  0.96178  0.54825  0.75301  1.0000
  S   S88       1.0  0.04751  0.32987  0.62526  1.0000
  C   C668      1.0  0.62840  0.15990  0.74094  1.0000
  C   C669      1.0  0.72617  0.37057  0.72406  1.0000
  C   C670      1.0  0.66013  0.32006  0.71852  1.0000
  Fe  Fe43      1.0  0.04309  0.26997  0.59666  1.0000
  C   C671      1.0  0.00435  0.11131  0.68151  1.0000
  H   H531      1.0  0.74426  0.34266  0.65856  1.0000
  H   H532      1.0  0.02599  0.48805  0.69282  1.0000
  H   H533      1.0  0.92343  0.09948  0.60886  1.0000
  H   H534      1.0  0.88240  0.07769  0.75107  1.0000
  C   C672      1.0  0.88000  0.21651  0.62746  1.0000
  C   C673      1.0  0.77210  0.16228  0.73177  1.0000
  H   H535      1.0  0.97098  0.43786  0.72304  1.0000
  H   H536      1.0  0.62774  0.43749  0.59826  1.0000
  H   H537      1.0  0.70711  0.11954  0.69433  1.0000
  C   C674      1.0  0.66459  0.53372  0.69728  1.0000
  C   C675      1.0  0.77951  0.23898  0.69579  1.0000
  H   H538      1.0  0.68630  0.29856  0.65344  1.0000
  C   C676      1.0  0.07209  0.48350  0.78734  1.0000
  C   C677      1.0  0.85820  0.52339  0.58231  1.0000
  C   C678      1.0  0.59154  0.17559  0.73527  1.0000
  C   C679      1.0  0.73010  0.56141  0.70522  1.0000
  H   H539      1.0  0.92027  0.31617  0.58471  1.0000
  H   H540      1.0  0.64372  0.15764  0.58292  1.0000
  H   H541      1.0  0.94496  0.41987  0.80411  1.0000
  C   C680      1.0  0.92143  0.34780  0.58252  1.0000
  C   C681      1.0  0.59958  0.34198  0.57479  1.0000
  C   C682      1.0  0.80469  0.14087  0.58483  1.0000
  C   C683      1.0  0.68395  0.20682  0.58230  1.0000
  S   S89       1.0  0.73535  0.26928  0.58064  1.0000
  H   H542      1.0  0.62916  0.06484  0.59061  1.0000
  H   H543      1.0  0.92546  0.35113  0.82352  1.0000
  C   C684      1.0  0.96959  0.12908  0.82378  1.0000
  C   C685      1.0  0.72406  0.09383  0.57726  1.0000
  H   H544      1.0  0.05501  0.21290  0.99008  1.0000
  C   C686      1.0  0.01327  0.24395  0.85886  1.0000
  H   H545      1.0  0.68851  0.21191  0.94636  1.0000
  C   C687      1.0  0.97854  0.25924  0.84038  1.0000
  H   H546      1.0  0.05787  0.38237  0.99624  1.0000
  C   C688      1.0  0.58555  0.49741  0.88640  1.0000
  C   C689      1.0  0.77297  0.19492  0.05091  1.0000
  C   C690      1.0  0.88940  0.55015  0.93950  1.0000
  H   H547      1.0  0.97214  0.53065  0.87983  1.0000
  H   H548      1.0  0.85042  0.20494  0.88962  1.0000
  C   C691      1.0  0.95961  0.51115  0.95375  1.0000
  C   C692      1.0  0.62613  0.32696  0.92498  1.0000
  S   S90       1.0  0.66804  0.39422  0.90184  1.0000
  S   S91       1.0  0.63829  0.13788  0.95940  1.0000
  C   C693      1.0  0.04565  0.50202  0.92811  1.0000
  C   C694      1.0  0.63561  0.54371  0.85859  1.0000
  C   C695      1.0  0.98003  0.35419  0.94273  1.0000
  P   P22       1.0  0.74881  0.25973  0.99635  1.0000
  C   C696      1.0  0.97889  0.41117  0.99374  1.0000
  H   H549      1.0  0.97333  0.42372  0.02883  1.0000
  H   H550      1.0  0.06142  0.12448  0.97127  1.0000
  C   C697      1.0  0.71640  0.29841  0.85900  1.0000
  C   C698      1.0  0.04166  0.12134  0.06984  1.0000
  C   C699      1.0  0.62785  0.36777  0.92588  1.0000
  H   H551      1.0  0.04977  0.44072  0.03631  1.0000
  H   H552      1.0  0.63303  0.55172  0.02579  1.0000
  H   H553      1.0  0.94289  0.13235  0.94210  1.0000
  C   C700      1.0  0.01991  0.53424  0.04233  1.0000
  H   H554      1.0  0.65436  0.19307  0.03509  1.0000
  C   C701      1.0  0.87969  0.11930  0.99747  1.0000
  C   C702      1.0  0.93156  0.51038  0.99053  1.0000
  C   C703      1.0  0.89667  0.08278  0.99322  1.0000
  H   H555      1.0  0.81437  0.38923  0.01634  1.0000
  C   C704      1.0  0.76825  0.18589  0.96343  1.0000
  C   C705      1.0  0.07885  0.33002  0.82943  1.0000
  C   C706      1.0  0.78629  0.13213  0.01683  1.0000
  H   H556      1.0  0.75266  0.32027  0.91741  1.0000
  H   H557      1.0  0.99834  0.36495  0.86863  1.0000
  H   H558      1.0  0.79329  0.10174  0.02243  1.0000
  H   H559      1.0  0.78013  0.12807  0.93878  1.0000
  H   H560      1.0  0.95909  0.16338  0.02581  1.0000
  H   H561      1.0  0.83377  0.24763  0.99607  1.0000
  Fe  Fe44      1.0  0.68562  0.43168  0.96595  1.0000
  C   C707      1.0  0.74655  0.45523  0.85746  1.0000
  H   H562      1.0  0.08042  0.37046  0.91369  1.0000
  H   H563      1.0  0.93660  0.49451  0.02464  1.0000
  C   C708      1.0  0.58549  0.09508  0.83279  1.0000
  C   C709      1.0  0.77863  0.46687  0.88642  1.0000
  H   H564      1.0  0.89055  0.29306  0.00586  1.0000
  C   C710      1.0  0.66791  0.16611  0.04554  1.0000
  H   H565      1.0  0.65870  0.21569  0.86385  1.0000
  H   H566      1.0  0.59815  0.15369  0.85729  1.0000
  H   H567      1.0  0.99740  0.10416  0.01632  1.0000
  C   C711      1.0  0.72080  0.52048  0.86136  1.0000
  S   S92       1.0  0.65979  0.41046  0.03659  1.0000
  H   H568      1.0  0.90425  0.21491  0.83180  1.0000
  C   C712      1.0  0.69674  0.23611  0.92212  1.0000
  C   C713      1.0  0.07663  0.47683  0.92212  1.0000
  H   H569      1.0  0.61525  0.08601  0.83781  1.0000
  C   C714      1.0  0.59932  0.30569  0.95398  1.0000
  C   C715      1.0  0.88345  0.23773  0.83569  1.0000
  C   C716      1.0  0.82897  0.27846  0.99996  1.0000
  C   C717      1.0  0.76402  0.20986  0.00413  1.0000
  C   C718      1.0  0.78441  0.15637  0.05698  1.0000
  C   C719      1.0  0.05034  0.54134  0.91363  1.0000
  C   C720      1.0  0.95162  0.53063  0.90926  1.0000
  H   H570      1.0  0.72302  0.32328  0.83527  1.0000
  C   C721      1.0  0.71648  0.27225  0.04462  1.0000
  S   S93       1.0  0.66756  0.49324  0.97459  1.0000
  H   H571      1.0  0.86803  0.16669  0.04530  1.0000
  C   C722      1.0  0.79101  0.29264  0.00071  1.0000
  C   C723      1.0  0.98510  0.15927  0.04791  1.0000
  H   H572      1.0  0.59978  0.27425  0.95521  1.0000
  C   C724      1.0  0.85284  0.23184  0.86819  1.0000
  C   C725      1.0  0.72414  0.26498  0.93755  1.0000
  H   H573      1.0  0.00887  0.43596  0.87881  1.0000
  C   C726      1.0  0.77869  0.14699  0.96992  1.0000
  Fe  Fe45      1.0  0.64432  0.47252  0.04637  1.0000
  H   H574      1.0  0.87510  0.52931  0.01189  1.0000
  H   H575      1.0  0.95840  0.27142  0.86543  1.0000
  H   H576      1.0  0.96279  0.35276  0.01800  1.0000
  C   C727      1.0  0.91475  0.06556  0.03420  1.0000
  H   H577      1.0  0.66325  0.26719  0.00082  1.0000
  H   H578      1.0  0.68622  0.07678  0.00096  1.0000
  C   C728      1.0  0.91668  0.55018  0.90234  1.0000
  Fe  Fe46      1.0  0.71722  0.42615  0.07048  1.0000
  C   C729      1.0  0.82806  0.29505  0.84479  1.0000
  H   H579      1.0  0.98317  0.16843  0.88247  1.0000
  C   C730      1.0  0.67611  0.27406  0.03601  1.0000
  C   C731      1.0  0.92617  0.07417  0.84384  1.0000
  H   H580      1.0  0.88098  0.36394  0.01624  1.0000
  C   C732      1.0  0.78233  0.50534  0.90212  1.0000
  H   H581      1.0  0.80050  0.44610  0.89702  1.0000
  Fe  Fe47      1.0  0.72425  0.50369  0.01525  1.0000
  C   C733      1.0  0.99332  0.43469  0.95523  1.0000
  C   C734      1.0  0.82535  0.26061  0.87297  1.0000
  P   P23       1.0  0.68519  0.55573  0.84159  1.0000
  H   H582      1.0  0.60263  0.41876  0.95532  1.0000
  C   C735      1.0  0.73304  0.29670  0.90601  1.0000
  S   S94       1.0  0.58473  0.48922  0.06789  1.0000
  H   H583      1.0  0.01969  0.24414  0.89788  1.0000
  H   H584      1.0  0.06652  0.21634  0.84078  1.0000
  C   C736      1.0  0.06733  0.25670  0.04412  1.0000
  H   H585      1.0  0.75705  0.34436  0.00898  1.0000
  C   C737      1.0  0.92234  0.08774  0.89139  1.0000
  H   H586      1.0  0.86530  0.13280  0.96620  1.0000
  C   C738      1.0  0.99900  0.41798  0.90955  1.0000
  H   H587      1.0  0.80187  0.25612  0.89835  1.0000
  C   C739      1.0  0.07520  0.22317  0.01819  1.0000
  H   H588      1.0  0.76274  0.19667  0.92669  1.0000
  H   H589      1.0  0.07079  0.30702  0.85525  1.0000
  C   C740      1.0  0.02209  0.49610  0.02500  1.0000
  C   C741      1.0  0.62340  0.50533  0.87060  1.0000
  C   C742      1.0  0.67997  0.23802  0.87518  1.0000
  C   C743      1.0  0.89668  0.52997  0.98347  1.0000
  P   P24       1.0  0.00454  0.48589  0.96408  1.0000
  C   C744      1.0  0.81844  0.35835  0.01123  1.0000
  S   S95       1.0  0.74496  0.44351  0.99942  1.0000
  C   C745      1.0  0.94337  0.12193  0.90517  1.0000
  H   H590      1.0  0.07493  0.44697  0.93562  1.0000
  C   C746      1.0  0.60101  0.38724  0.95350  1.0000
  C   C747      1.0  0.86133  0.30411  0.00529  1.0000
  C   C748      1.0  0.04486  0.46912  0.05097  1.0000
  C   C749      1.0  0.69010  0.26898  0.84346  1.0000
  C   C750      1.0  0.00716  0.12611  0.04221  1.0000
  C   C751      1.0  0.78602  0.33279  0.00684  1.0000
  C   C752      1.0  0.96668  0.14252  0.87139  1.0000
  H   H591      1.0  0.84892  0.06690  0.84138  1.0000
  C   C753      1.0  0.66665  0.13485  0.01350  1.0000
  H   H592      1.0  0.80656  0.31725  0.84826  1.0000
  C   C754      1.0  0.85604  0.34405  0.01100  1.0000
  H   H593      1.0  0.64320  0.48151  0.87012  1.0000
  H   H594      1.0  0.74356  0.42531  0.84567  1.0000
  C   C755      1.0  0.88113  0.13855  0.04208  1.0000
  C   C756      1.0  0.68646  0.10081  0.02603  1.0000
  S   S96       1.0  0.02359  0.28037  0.03319  1.0000
  H   H595      1.0  0.97630  0.32287  0.93874  1.0000
  C   C757      1.0  0.75391  0.53214  0.88920  1.0000
  C   C758      1.0  0.97259  0.37100  0.98758  1.0000
  C   C759      1.0  0.99273  0.37776  0.90352  1.0000
  H   H596      1.0  0.64705  0.31178  0.90450  1.0000
  H   H597      1.0  0.80709  0.51451  0.92472  1.0000
  C   C760      1.0  0.71809  0.48202  0.84424  1.0000
  H   H598      1.0  0.75847  0.56194  0.90086  1.0000
  H   H599      1.0  0.00522  0.55650  0.02094  1.0000
  C   C761      1.0  0.03990  0.22867  0.82693  1.0000
  P   P25       1.0  0.06911  0.07765  0.06358  1.0000
  H   H600      1.0  0.02809  0.56184  0.92097  1.0000
  C   C762      1.0  0.08200  0.10182  0.96605  1.0000
  H   H601      1.0  0.60117  0.06363  0.94267  1.0000
  S   S97       1.0  0.75786  0.56169  0.01031  1.0000
  H   H602      1.0  0.62069  0.28806  0.06554  1.0000
  C   C763      1.0  0.70548  0.09735  0.07190  1.0000
  C   C764      1.0  0.65169  0.28583  0.07284  1.0000
  H   H603      1.0  0.01430  0.42250  0.26076  1.0000
  C   C765      1.0  0.94868  0.19034  0.20572  1.0000
  H   H604      1.0  0.96905  0.13606  0.17828  1.0000
  H   H605      1.0  0.78994  0.14461  0.09326  1.0000
  H   H606      1.0  0.07608  0.52585  0.14548  1.0000
  C   C766      1.0  0.60145  0.10208  0.14204  1.0000
  H   H607      1.0  0.73303  0.31430  0.29020  1.0000
  H   H608      1.0  0.72403  0.47604  0.23563  1.0000
  H   H609      1.0  0.73601  0.40706  0.21736  1.0000
  C   C767      1.0  0.97095  0.47843  0.31904  1.0000
  C   C768      1.0  0.82914  0.24635  0.17192  1.0000
  C   C769      1.0  0.00318  0.27671  0.31889  1.0000
  C   C770      1.0  0.65724  0.42517  0.25434  1.0000
  C   C771      1.0  0.70697  0.23782  0.26730  1.0000
  C   C772      1.0  0.92054  0.20772  0.23360  1.0000
  H   H610      1.0  0.67477  0.06734  0.21405  1.0000
  S   S98       1.0  0.94275  0.31041  0.11525  1.0000
  C   C773      1.0  0.75186  0.46387  0.24507  1.0000
  H   H611      1.0  0.85679  0.46888  0.08646  1.0000
  C   C774      1.0  0.81649  0.17692  0.18292  1.0000
  Fe  Fe48      1.0  0.95882  0.29567  0.19280  1.0000
  C   C775      1.0  0.86539  0.53823  0.24382  1.0000
  H   H612      1.0  0.02536  0.35761  0.30820  1.0000
  C   C776      1.0  0.62140  0.43752  0.17890  1.0000
  C   C777      1.0  0.03977  0.36293  0.27396  1.0000
  H   H613      1.0  0.62792  0.34458  0.29124  1.0000
  C   C778      1.0  0.88983  0.14396  0.24961  1.0000
  H   H614      1.0  0.87052  0.19810  0.27830  1.0000
  H   H615      1.0  0.76288  0.28141  0.09862  1.0000
  C   C779      1.0  0.87303  0.54549  0.15585  1.0000
  C   C780      1.0  0.01323  0.51833  0.21568  1.0000
  C   C781      1.0  0.06014  0.51723  0.11268  1.0000
  C   C782      1.0  0.81865  0.47290  0.27428  1.0000
  C   C783      1.0  0.01632  0.55897  0.22003  1.0000
  H   H616      1.0  0.68817  0.18737  0.11517  1.0000
  C   C784      1.0  0.98662  0.50157  0.18230  1.0000
  H   H617      1.0  0.97112  0.20827  0.18841  1.0000
  S   S99       1.0  0.72890  0.12550  0.16213  1.0000
  H   H618      1.0  0.81201  0.33923  0.15174  1.0000
  H   H619      1.0  0.97948  0.21292  0.08680  1.0000
  C   C785      1.0  0.94750  0.14958  0.20015  1.0000
  C   C786      1.0  0.86174  0.37750  0.13692  1.0000
  H   H620      1.0  0.84420  0.27051  0.15343  1.0000
  C   C787      1.0  0.64693  0.14024  0.29621  1.0000
  P   P26       1.0  0.62193  0.53825  0.25664  1.0000
  H   H621      1.0  0.88256  0.35692  0.15076  1.0000
  H   H622      1.0  0.64850  0.30601  0.14657  1.0000
  H   H623      1.0  0.71945  0.30144  0.16318  1.0000
  H   H624      1.0  0.77018  0.21243  0.08303  1.0000
  C   C788      1.0  0.69470  0.22403  0.22123  1.0000
  C   C789      1.0  0.82187  0.36758  0.13797  1.0000
  C   C790      1.0  0.91743  0.12652  0.22108  1.0000
  C   C791      1.0  0.73181  0.28154  0.09113  1.0000
  P   P27       1.0  0.85692  0.50584  0.29592  1.0000
  C   C792      1.0  0.99645  0.18712  0.08242  1.0000
  C   C793      1.0  0.61067  0.15760  0.29098  1.0000
  C   C794      1.0  0.90042  0.48035  0.31259  1.0000
  H   H625      1.0  0.89965  0.13562  0.11771  1.0000
  H   H626      1.0  0.94011  0.52492  0.28330  1.0000
  C   C795      1.0  0.63000  0.24759  0.23368  1.0000
  C   C796      1.0  0.77553  0.54447  0.10467  1.0000
  H   H627      1.0  0.66303  0.47329  0.30319  1.0000
  C   C797      1.0  0.79478  0.39455  0.12119  1.0000
  H   H628      1.0  0.64715  0.21900  0.16869  1.0000
  H   H629      1.0  0.66639  0.53349  0.16649  1.0000
  P   P28       1.0  0.08128  0.29154  0.29335  1.0000
  C   C798      1.0  0.68701  0.16283  0.09099  1.0000
  C   C799      1.0  0.84720  0.44083  0.10139  1.0000
  S   S100      1.0  0.69934  0.48645  0.08824  1.0000
  Fe  Fe49      1.0  0.76840  0.07495  0.17173  1.0000
  H   H630      1.0  0.77554  0.51736  0.27447  1.0000
  C   C800      1.0  0.63190  0.10190  0.17645  1.0000
  C   C801      1.0  0.65640  0.22912  0.20449  1.0000
  C   C802      1.0  0.79208  0.18400  0.22180  1.0000
  H   H631      1.0  0.78634  0.45182  0.09102  1.0000
  C   C803      1.0  0.89908  0.12119  0.08282  1.0000
  C   C804      1.0  0.06366  0.47961  0.09475  1.0000
  C   C805      1.0  0.83530  0.20801  0.15826  1.0000
  Fe  Fe50      1.0  0.03297  0.35542  0.20033  1.0000
  H   H632      1.0  0.58725  0.12907  0.13272  1.0000
  H   H633      1.0  0.08018  0.14754  0.12457  1.0000
  C   C806      1.0  0.96407  0.52549  0.15208  1.0000
  S   S101      1.0  0.02253  0.28973  0.18000  1.0000
  H   H634      1.0  0.80176  0.38106  0.23125  1.0000
  C   C807      1.0  0.05548  0.41076  0.20028  1.0000
  C   C808      1.0  0.03358  0.40138  0.24655  1.0000
  C   C809      1.0  0.87434  0.41389  0.11783  1.0000
  H   H635      1.0  0.64816  0.38299  0.19736  1.0000
  S   S102      1.0  0.91918  0.25852  0.23937  1.0000
  H   H636      1.0  0.66924  0.14592  0.26927  1.0000
  C   C810      1.0  0.03045  0.18235  0.11043  1.0000
  H   H637      1.0  0.99476  0.29518  0.28830  1.0000
  C   C811      1.0  0.06833  0.33394  0.25571  1.0000
  C   C812      1.0  0.03888  0.54472  0.08590  1.0000
  C   C813      1.0  0.75896  0.42530  0.23360  1.0000
  S   S103      1.0  0.91387  0.07618  0.21020  1.0000
  C   C814      1.0  0.80492  0.25352  0.21097  1.0000
  S   S104      1.0  0.82102  0.06841  0.12602  1.0000
  H   H638      1.0  0.64212  0.12907  0.19239  1.0000
  H   H639      1.0  0.98404  0.47008  0.17872  1.0000
  H   H640      1.0  0.99939  0.49184  0.31281  1.0000
  C   C815      1.0  0.61493  0.47559  0.19374  1.0000
  S   S105      1.0  0.96609  0.35779  0.21460  1.0000
  H   H641      1.0  0.71460  0.20956  0.19790  1.0000
  S   S106      1.0  0.74512  0.38249  0.12056  1.0000
  C   C816      1.0  0.78129  0.48730  0.26641  1.0000
  C   C817      1.0  0.87161  0.52181  0.19806  1.0000
  H   H642      1.0  0.87351  0.49044  0.19452  1.0000
  H   H643      1.0  0.78019  0.52760  0.18006  1.0000
  C   C818      1.0  0.64135  0.25952  0.28042  1.0000
  C   C819      1.0  0.64278  0.41235  0.20909  1.0000
  C   C820      1.0  0.82622  0.43469  0.26017  1.0000
  C   C821      1.0  0.77614  0.55158  0.15458  1.0000
  C   C822      1.0  0.80742  0.43118  0.10353  1.0000
  C   C823      1.0  0.76087  0.31166  0.30889  1.0000
  H   H644      1.0  0.03191  0.49977  0.23754  1.0000
  H   H645      1.0  0.60525  0.17594  0.25940  1.0000
  C   C824      1.0  0.91589  0.08484  0.07880  1.0000
  H   H646      1.0  0.60995  0.42773  0.14381  1.0000
  Fe  Fe51      1.0  0.95593  0.37229  0.13609  1.0000
  C   C825      1.0  0.70531  0.12832  0.10464  1.0000
  H   H647      1.0  0.59795  0.49473  0.17034  1.0000
  C   C826      1.0  0.78705  0.22226  0.23715  1.0000
  C   C827      1.0  0.66729  0.29575  0.11858  1.0000
  C   C828      1.0  0.67983  0.25549  0.29686  1.0000
  H   H648      1.0  0.86683  0.12631  0.26620  1.0000
  C   C829      1.0  0.58969  0.06761  0.11886  1.0000
  H   H649      1.0  0.85515  0.20239  0.12923  1.0000
  S   S107      1.0  0.92396  0.42529  0.11280  1.0000
  C   C830      1.0  0.05321  0.14982  0.10387  1.0000
  H   H650      1.0  0.04440  0.21679  0.26166  1.0000
  C   C831      1.0  0.70723  0.29296  0.12798  1.0000
  P   P29       1.0  0.75673  0.23178  0.28861  1.0000
  H   H651      1.0  0.70560  0.53256  0.27816  1.0000
  C   C832      1.0  0.65125  0.46345  0.26874  1.0000
  H   H652      1.0  0.85522  0.42339  0.26240  1.0000
  H   H653      1.0  0.67355  0.40559  0.27799  1.0000
  C   C833      1.0  0.89193  0.18442  0.25658  1.0000
  C   C834      1.0  0.63083  0.48914  0.23811  1.0000
  H   H654      1.0  0.87557  0.53240  0.12043  1.0000
  H   H655      1.0  0.77751  0.15950  0.24010  1.0000
  C   C835      1.0  0.79612  0.41075  0.24118  1.0000
  H   H656      1.0  0.60052  0.25188  0.22049  1.0000
  H   H657      1.0  0.80100  0.28348  0.22124  1.0000
  H   H658      1.0  0.82145  0.14714  0.17281  1.0000
  C   C836      1.0  0.93732  0.49718  0.30283  1.0000
  C   C837      1.0  0.69327  0.55063  0.30539  1.0000
  C   C838      1.0  0.65037  0.06710  0.18830  1.0000
  Fe  Fe52      1.0  0.00666  0.30793  0.10298  1.0000
  H   H659      1.0  0.94446  0.51223  0.12515  1.0000
  S   S108      1.0  0.80059  0.06468  0.24290  1.0000
  S   S109      1.0  0.01831  0.37078  0.11762  1.0000
  H   H660      1.0  0.03994  0.20474  0.13587  1.0000
  H   H661      1.0  0.05190  0.43865  0.18211  1.0000
  H   H662      1.0  0.77917  0.51530  0.09210  1.0000
  C   C839      1.0  0.07367  0.21913  0.24769  1.0000
  H   H663      1.0  0.08315  0.45953  0.11291  1.0000
  C   C840      1.0  0.65308  0.55667  0.30520  1.0000
  H   H664      1.0  0.72010  0.07079  0.08196  1.0000
  H   H665      1.0  0.06881  0.16216  0.21571  1.0000
  H   H666      1.0  0.92935  0.07141  0.11066  1.0000
  H   H667      1.0  0.76516  0.37317  0.32345  1.0000
  C   C841      1.0  0.77833  0.27537  0.31518  1.0000
  H   H668      1.0  0.62032  0.27201  0.30396  1.0000
  H   H669      1.0  0.81570  0.17432  0.31730  1.0000
  H   H670      1.0  0.74665  0.09319  0.55037  1.0000
  C   C842      1.0  0.00498  0.50453  0.48012  1.0000
  C   C843      1.0  0.61160  0.52458  0.53938  1.0000
  Fe  Fe53      1.0  0.99305  0.21113  0.54102  1.0000
  C   C844      1.0  0.66146  0.21620  0.48404  1.0000
  C   C845      1.0  0.69958  0.48719  0.40820  1.0000
  C   C846      1.0  0.06845  0.46050  0.56868  1.0000
  C   C847      1.0  0.99183  0.53503  0.44999  1.0000
  H   H671      1.0  0.03398  0.50690  0.49617  1.0000
  H   H672      1.0  0.92856  0.39848  0.37476  1.0000
  H   H673      1.0  0.61326  0.43624  0.39864  1.0000
  H   H674      1.0  0.92399  0.44408  0.47394  1.0000
  H   H675      1.0  0.68296  0.10284  0.34067  1.0000
  H   H676      1.0  0.86349  0.30682  0.37016  1.0000
  H   H677      1.0  0.70956  0.54029  0.44681  1.0000
  C   C848      1.0  0.96526  0.10478  0.50109  1.0000
  C   C849      1.0  0.81660  0.34387  0.34809  1.0000
  P   P30       1.0  0.63510  0.55603  0.49394  1.0000
  S   S110      1.0  0.03836  0.25555  0.51767  1.0000
  H   H678      1.0  0.06533  0.38501  0.55141  1.0000
  H   H679      1.0  0.70135  0.26587  0.48334  1.0000
  C   C850      1.0  0.04255  0.27048  0.33033  1.0000
  C   C851      1.0  0.65478  0.11602  0.33658  1.0000
  H   H680      1.0  0.90057  0.49876  0.42354  1.0000
  C   C852      1.0  0.82451  0.56242  0.44075  1.0000
  H   H681      1.0  0.96067  0.21589  0.40360  1.0000
  H   H682      1.0  0.03005  0.20377  0.42370  1.0000
  C   C853      1.0  0.00669  0.38633  0.44983  1.0000
  Fe  Fe54      1.0  0.74411  0.40950  0.52517  1.0000
  C   C854      1.0  0.91619  0.25084  0.49279  1.0000
  C   C855      1.0  0.97951  0.08858  0.41794  1.0000
  C   C856      1.0  0.98352  0.23106  0.38329  1.0000
  C   C857      1.0  0.98046  0.47182  0.49013  1.0000
  H   H683      1.0  0.59226  0.49025  0.44859  1.0000
  C   C858      1.0  0.02254  0.22432  0.39461  1.0000
  H   H684      1.0  0.88460  0.11889  0.52034  1.0000
  C   C859      1.0  0.68796  0.51825  0.43618  1.0000
  C   C860      1.0  0.85746  0.13205  0.52886  1.0000
  C   C861      1.0  0.78754  0.16657  0.55062  1.0000
  H   H685      1.0  0.97730  0.09504  0.37903  1.0000
  C   C862      1.0  0.72765  0.18783  0.36838  1.0000
  C   C863      1.0  0.86350  0.29621  0.49230  1.0000
  H   H686      1.0  0.60098  0.37115  0.55874  1.0000
  H   H687      1.0  0.79284  0.19636  0.48091  1.0000
  C   C864      1.0  0.59059  0.12739  0.36734  1.0000
  H   H688      1.0  0.97025  0.27402  0.46389  1.0000
  H   H689      1.0  0.94354  0.33798  0.44033  1.0000
  H   H690      1.0  0.76244  0.11232  0.43720  1.0000
  C   C865      1.0  0.61783  0.35578  0.41342  1.0000
  H   H691      1.0  0.98078  0.39966  0.43527  1.0000
  H   H692      1.0  0.94371  0.55705  0.40730  1.0000
  C   C866      1.0  0.07041  0.34782  0.49048  1.0000
  C   C867      1.0  0.62222  0.49027  0.43678  1.0000
  H   H693      1.0  0.59368  0.31402  0.50553  1.0000
  H   H694      1.0  0.80468  0.46174  0.50994  1.0000
  H   H695      1.0  0.97823  0.34987  0.55194  1.0000
  C   C868      1.0  0.64420  0.18622  0.51240  1.0000
  H   H696      1.0  0.65302  0.21985  0.44600  1.0000
  C   C869      1.0  0.72919  0.15876  0.40493  1.0000
  S   S111      1.0  0.93368  0.20427  0.50649  1.0000
  C   C870      1.0  0.68713  0.07800  0.56524  1.0000
  C   C871      1.0  0.80435  0.52872  0.42503  1.0000
  C   C872      1.0  0.79105  0.17000  0.34085  1.0000
  H   H697      1.0  0.07320  0.08175  0.53669  1.0000
  S   S112      1.0  0.60786  0.15556  0.48621  1.0000
  C   C873      1.0  0.81186  0.48003  0.54056  1.0000
  H   H698      1.0  0.68836  0.26651  0.33254  1.0000
  C   C874      1.0  0.98599  0.07277  0.51829  1.0000
  H   H699      1.0  0.06508  0.31040  0.42851  1.0000
  S   S113      1.0  0.78915  0.36742  0.54963  1.0000
  H   H700      1.0  0.85888  0.23722  0.51986  1.0000
  C   C875      1.0  0.79229  0.14056  0.37697  1.0000
  Fe  Fe55      1.0  0.72057  0.36170  0.43588  1.0000
  C   C876      1.0  0.76130  0.13484  0.40889  1.0000
  H   H701      1.0  0.99413  0.42776  0.35540  1.0000
  H   H702      1.0  0.98889  0.06778  0.55737  1.0000
  C   C877      1.0  0.96192  0.11273  0.45098  1.0000
  C   C878      1.0  0.97388  0.25769  0.34610  1.0000
  C   C879      1.0  0.67288  0.45742  0.39550  1.0000
  H   H703      1.0  0.08083  0.45369  0.53399  1.0000
  C   C880      1.0  0.87765  0.25908  0.50288  1.0000
  H   H704      1.0  0.66233  0.48966  0.55399  1.0000
  C   C881      1.0  0.05193  0.24394  0.36840  1.0000
  H   H705      1.0  0.70244  0.20578  0.36653  1.0000
  H   H706      1.0  0.94349  0.26289  0.33770  1.0000
  Fe  Fe56      1.0  0.08160  0.20968  0.53582  1.0000
  C   C882      1.0  0.02222  0.39793  0.49513  1.0000
  H   H707      1.0  0.78226  0.51512  0.44803  1.0000
  S   S114      1.0  0.69789  0.36278  0.51239  1.0000
  C   C883      1.0  0.94321  0.46943  0.46799  1.0000
  H   H708      1.0  0.72939  0.48588  0.39667  1.0000
  C   C884      1.0  0.64912  0.52014  0.45068  1.0000
  C   C885      1.0  0.84264  0.52926  0.35115  1.0000
  H   H709      1.0  0.94637  0.13808  0.43793  1.0000
  S   S115      1.0  0.86879  0.37019  0.45291  1.0000
  C   C886      1.0  0.59315  0.27199  0.56480  1.0000
  Fe  Fe57      1.0  0.80548  0.36681  0.47114  1.0000
  C   C887      1.0  0.81554  0.27387  0.33736  1.0000
  C   C888      1.0  0.63619  0.35245  0.36869  1.0000
  H   H710      1.0  0.59735  0.21705  0.38261  1.0000
  H   H711      1.0  0.00886  0.34481  0.39181  1.0000
  C   C889      1.0  0.96796  0.44246  0.34385  1.0000
  C   C890      1.0  0.84073  0.15838  0.49559  1.0000
  C   C891      1.0  0.61382  0.34650  0.32605  1.0000
  C   C892      1.0  0.05404  0.33574  0.44599  1.0000
  H   H712      1.0  0.76001  0.17964  0.55798  1.0000
  H   H713      1.0  0.01055  0.56051  0.44320  1.0000
  C   C893      1.0  0.65583  0.18137  0.56135  1.0000
  H   H714      1.0  0.81747  0.12238  0.38033  1.0000
  H   H715      1.0  0.79827  0.48528  0.36978  1.0000
  H   H716      1.0  0.63482  0.36117  0.44624  1.0000
  H   H717      1.0  0.83037  0.24654  0.34100  1.0000
  C   C894      1.0  0.95568  0.40809  0.55820  1.0000
  C   C895      1.0  0.92992  0.50029  0.43870  1.0000
  H   H718      1.0  0.86958  0.43320  0.35106  1.0000
  H   H719      1.0  0.86852  0.49670  0.51344  1.0000
  H   H720      1.0  0.83113  0.37033  0.36093  1.0000
  C   C896      1.0  0.63408  0.45920  0.40906  1.0000
  H   H721      1.0  0.70536  0.15492  0.43022  1.0000
  C   C897      1.0  0.94042  0.27986  0.47168  1.0000
  H   H722      1.0  0.83425  0.30266  0.50208  1.0000
  C   C898      1.0  0.81341  0.51207  0.38051  1.0000
  H   H723      1.0  0.95295  0.12425  0.52692  1.0000
  H   H724      1.0  0.70530  0.53611  0.55357  1.0000
  C   C899      1.0  0.80571  0.17559  0.50645  1.0000
  C   C900      1.0  0.93128  0.42595  0.35451  1.0000
  C   C901      1.0  0.92558  0.31632  0.45877  1.0000
  H   H725      1.0  0.58968  0.24689  0.54141  1.0000
  P   P31       1.0  0.99705  0.43300  0.53018  1.0000
  S   S116      1.0  0.68695  0.35503  0.36499  1.0000
  C   C902      1.0  0.75839  0.19351  0.33548  1.0000
  C   C903      1.0  0.05415  0.37831  0.51532  1.0000
  C   C904      1.0  0.63175  0.49293  0.56010  1.0000
  C   C905      1.0  0.83466  0.30806  0.35345  1.0000
  C   C906      1.0  0.86364  0.56226  0.36817  1.0000
  C   C907      1.0  0.89769  0.44544  0.34028  1.0000
  C   C908      1.0  0.84812  0.49990  0.54253  1.0000
  C   C909      1.0  0.70026  0.23752  0.55431  1.0000
  S   S117      1.0  0.76323  0.41199  0.44712  1.0000
  C   C910      1.0  0.59510  0.30973  0.54460  1.0000
  H   H726      1.0  0.63300  0.09206  0.40453  1.0000
  C   C911      1.0  0.68898  0.24221  0.50518  1.0000
  Fe  Fe58      1.0  0.74491  0.32078  0.53040  1.0000
  S   S118      1.0  0.76461  0.31647  0.45334  1.0000
  H   H727      1.0  0.08195  0.23763  0.37748  1.0000
  H   H728      1.0  0.85538  0.16614  0.46186  1.0000
  C   C912      1.0  0.88725  0.32466  0.46940  1.0000
  C   C913      1.0  0.95418  0.53307  0.42968  1.0000
  C   C914      1.0  0.95428  0.36715  0.56326  1.0000
  H   H729      1.0  0.59438  0.26240  0.45048  1.0000
  S   S119      1.0  0.03584  0.16368  0.55324  1.0000
  H   H730      1.0  0.68223  0.43336  0.37423  1.0000
  C   C915      1.0  0.62662  0.10966  0.37219  1.0000
  C   C916      1.0  0.02243  0.35520  0.42536  1.0000
  H   H731      1.0  0.68123  0.06622  0.52929  1.0000
  H   H732      1.0  0.92458  0.46096  0.57086  1.0000
  C   C917      1.0  0.92414  0.42934  0.57408  1.0000
  C   C918      1.0  0.77956  0.34554  0.32651  1.0000
  C   C919      1.0  0.83966  0.12337  0.57344  1.0000
  S   S120      1.0  0.73894  0.46084  0.57384  1.0000
  P   P32       1.0  0.06366  0.80392  0.59372  1.0000
  C   C920      1.0  0.72449  0.56751  0.75487  1.0000
  H   H733      1.0  0.91975  0.94722  0.59281  1.0000
  S   S121      1.0  0.89532  0.83240  0.66471  1.0000
  C   C921      1.0  0.70873  0.97007  0.70456  1.0000
  C   C922      1.0  0.59708  0.93960  0.59308  1.0000
  H   H734      1.0  0.03522  0.57391  0.77081  1.0000
  H   H735      1.0  0.71109  0.99144  0.58304  1.0000
  H   H736      1.0  0.77880  0.65114  0.64747  1.0000
  Fe  Fe59      1.0  0.69016  0.75731  0.69825  1.0000
  H   H737      1.0  0.85086  0.01177  0.76008  1.0000
  H   H738      1.0  0.78945  0.00098  0.58554  1.0000
  C   C923      1.0  0.83822  0.03350  0.73585  1.0000
  C   C924      1.0  0.86325  0.72333  0.74724  1.0000
  H   H739      1.0  0.70376  0.63589  0.80332  1.0000
  H   H740      1.0  0.06942  0.99555  0.68457  1.0000
  S   S122      1.0  0.70266  0.82215  0.70093  1.0000
  C   C925      1.0  0.05958  0.96130  0.79941  1.0000
  S   S123      1.0  0.84007  0.61463  0.80339  1.0000
  C   C926      1.0  0.80503  0.63436  0.71645  1.0000
  C   C927      1.0  0.80470  0.02387  0.70846  1.0000
  C   C928      1.0  0.03971  0.86289  0.71841  1.0000
  C   C929      1.0  0.06432  0.84602  0.75330  1.0000
  C   C930      1.0  0.98176  0.80384  0.58042  1.0000
  Fe  Fe60      1.0  0.60560  0.76473  0.72840  1.0000
  Fe  Fe61      1.0  0.87884  0.93717  0.78998  1.0000
  H   H741      1.0  0.89726  0.68782  0.79608  1.0000
  C   C931      1.0  0.98100  0.76534  0.72105  1.0000
  S   S124      1.0  0.90330  0.62853  0.68600  1.0000
  Fe  Fe62      1.0  0.66921  0.81874  0.77083  1.0000
  H   H742      1.0  0.93550  0.69823  0.64791  1.0000
  C   C932      1.0  0.80809  0.64168  0.76643  1.0000
  H   H743      1.0  0.08237  0.05896  0.79227  1.0000
  C   C933      1.0  0.78094  0.65692  0.68613  1.0000
  Fe  Fe63      1.0  0.91498  0.97253  0.69859  1.0000
  Fe  Fe64      1.0  0.88966  0.59746  0.75678  1.0000
  H   H744      1.0  0.74717  0.71830  0.77030  1.0000
  C   C934      1.0  0.88466  0.71617  0.79031  1.0000
  C   C935      1.0  0.59935  0.60610  0.63650  1.0000
  C   C936      1.0  0.91696  0.75690  0.65708  1.0000
  H   H745      1.0  0.74855  0.57912  0.77711  1.0000
  H   H746      1.0  0.76103  0.89522  0.66450  1.0000
  S   S125      1.0  0.86399  0.93172  0.71035  1.0000
  C   C937      1.0  0.62697  0.65192  0.71402  1.0000
  C   C938      1.0  0.61632  0.91337  0.62410  1.0000
  C   C939      1.0  0.70175  0.98964  0.66021  1.0000
  H   H747      1.0  0.04404  0.97034  0.60626  1.0000
  S   S126      1.0  0.02259  0.92778  0.81717  1.0000
  C   C940      1.0  0.06294  0.81993  0.65649  1.0000
  C   C941      1.0  0.74469  0.92171  0.66250  1.0000
  C   C942      1.0  0.58690  0.97619  0.61007  1.0000
  C   C943      1.0  0.97283  0.72924  0.69906  1.0000
  C   C944      1.0  0.07038  0.01406  0.65198  1.0000
  H   H748      1.0  0.69678  0.98060  0.73802  1.0000
  C   C945      1.0  0.94109  0.72535  0.66657  1.0000
  C   C946      1.0  0.59604  0.98663  0.65817  1.0000
  H   H749      1.0  0.73460  0.92064  0.73987  1.0000
  C   C947      1.0  0.75988  0.68701  0.70560  1.0000
  S   S127      1.0  0.63416  0.76327  0.65577  1.0000
  H   H750      1.0  0.82604  0.80348  0.61337  1.0000
  C   C948      1.0  0.95665  0.79694  0.71177  1.0000
  H   H751      1.0  0.97718  0.01713  0.70721  1.0000
  H   H752      1.0  0.64062  0.90376  0.69634  1.0000
  H   H753      1.0  0.02157  0.86576  0.64336  1.0000
  S   S128      1.0  0.61197  0.82947  0.73359  1.0000
  H   H754      1.0  0.96281  0.82461  0.72911  1.0000
  C   C949      1.0  0.62498  0.92352  0.67243  1.0000
  H   H755      1.0  0.68404  0.01515  0.65942  1.0000
  C   C950      1.0  0.71659  0.97562  0.61695  1.0000
  S   S129      1.0  0.95817  0.92551  0.69339  1.0000
  Fe  Fe65      1.0  0.64432  0.82764  0.66377  1.0000
  H   H756      1.0  0.62140  0.96782  0.72692  1.0000
  H   H757      1.0  0.07798  0.58088  0.64309  1.0000
  H   H758      1.0  0.68397  0.64460  0.68467  1.0000
  C   C951      1.0  0.73790  0.94125  0.61768  1.0000
  H   H759      1.0  0.75795  0.56916  0.68922  1.0000
  H   H760      1.0  0.79202  0.99454  0.71121  1.0000
  H   H761      1.0  0.75013  0.84701  0.78516  1.0000
  C   C952      1.0  0.07933  0.72642  0.61417  1.0000
  S   S130      1.0  0.98135  0.57610  0.68244  1.0000
  H   H762      1.0  0.82108  0.61105  0.70112  1.0000
  S   S131      1.0  0.63001  0.86845  0.60145  1.0000
  C   C953      1.0  0.84953  0.78809  0.77458  1.0000
  C   C954      1.0  0.63918  0.61525  0.64160  1.0000
  Fe  Fe66      1.0  0.96492  0.63300  0.71446  1.0000
  C   C955      1.0  0.92466  0.79271  0.67964  1.0000
  S   S132      1.0  0.73051  0.71482  0.66613  1.0000
  C   C956      1.0  0.76272  0.69441  0.75562  1.0000
  H   H763      1.0  0.81199  0.88669  0.78755  1.0000
  C   C957      1.0  0.78777  0.05192  0.67772  1.0000
  C   C958      1.0  0.05607  0.99991  0.60728  1.0000
  H   H764      1.0  0.63769  0.67043  0.74333  1.0000
  C   C959      1.0  0.97601  0.04610  0.69111  1.0000
  C   C960      1.0  0.78676  0.67157  0.78617  1.0000
  H   H765      1.0  0.82876  0.76438  0.70611  1.0000
  H   H766      1.0  0.86026  0.70103  0.71981  1.0000
  C   C961      1.0  0.03931  0.85048  0.67005  1.0000
  S   S133      1.0  0.95031  0.60541  0.78703  1.0000
  C   C962      1.0  0.65305  0.63766  0.68074  1.0000
  C   C963      1.0  0.61462  0.96004  0.68951  1.0000
  Fe  Fe67      1.0  0.96585  0.93073  0.77483  1.0000
  C   C964      1.0  0.84537  0.75905  0.73956  1.0000
  C   C965      1.0  0.58699  0.64359  0.70841  1.0000
  H   H767      1.0  0.65944  0.60528  0.61515  1.0000
  S   S134      1.0  0.91826  0.88628  0.79208  1.0000
  S   S135      1.0  0.00190  0.68891  0.71254  1.0000
  H   H768      1.0  0.06431  0.85569  0.79077  1.0000
  H   H769      1.0  0.02152  0.88616  0.72904  1.0000
  H   H770      1.0  0.00576  0.76890  0.74568  1.0000
  C   C966      1.0  0.72999  0.93609  0.70561  1.0000
  H   H771      1.0  0.89235  0.75352  0.63203  1.0000
  Fe  Fe68      1.0  0.90791  0.88475  0.71084  1.0000
  S   S136      1.0  0.66074  0.75337  0.77097  1.0000
  S   S137      1.0  0.90928  0.02134  0.64392  1.0000
  C   C967      1.0  0.94641  0.05542  0.65745  1.0000
  C   C968      1.0  0.79667  0.85543  0.58952  1.0000
  H   H772      1.0  0.05218  0.72552  0.63389  1.0000
  S   S138      1.0  0.92711  0.98149  0.77835  1.0000
  H   H773      1.0  0.77965  0.05619  0.82105  1.0000
  H   H774      1.0  0.76175  0.04388  0.65708  1.0000
  H   H775      1.0  0.83629  0.81605  0.76807  1.0000
  C   C969      1.0  0.75374  0.87068  0.81052  1.0000
  C   C970      1.0  0.78882  0.89296  0.81208  1.0000
  H   H776      1.0  0.04866  0.73136  0.79276  1.0000
  H   H777      1.0  0.98053  0.82426  0.60967  1.0000
  H   H778      1.0  0.77079  0.75861  0.59122  1.0000
  H   H779      1.0  0.82072  0.87459  0.60109  1.0000
  C   C971      1.0  0.79976  0.81511  0.59695  1.0000
  C   C972      1.0  0.76855  0.78979  0.58465  1.0000
  H   H780      1.0  0.58894  0.58906  0.60572  1.0000
  C   C973      1.0  0.87116  0.78117  0.81755  1.0000
  H   H781      1.0  0.97202  0.71609  0.81283  1.0000
  Fe  Fe69      1.0  0.91849  0.56956  0.65941  1.0000
  C   C974      1.0  0.07564  0.73954  0.81157  1.0000
  S   S139      1.0  0.58493  0.03279  0.67971  1.0000
  C   C975      1.0  0.05463  0.00170  0.80132  1.0000
  H   H782      1.0  0.79000  0.67789  0.82463  1.0000
  H   H783      1.0  0.02697  0.01276  0.81198  1.0000
  H   H784      1.0  0.02495  0.66878  0.81643  1.0000
  H   H785      1.0  0.76302  0.57423  0.58102  1.0000
  S   S140      1.0  0.80065  0.97105  0.05486  1.0000
  H   H786      1.0  0.76252  0.77046  0.83714  1.0000
  H   H787      1.0  0.68953  0.57750  0.94342  1.0000
  C   C976      1.0  0.63311  0.70607  0.96067  1.0000
  H   H788      1.0  0.03260  0.62488  0.88801  1.0000
  P   P33       1.0  0.91351  0.73558  0.88321  1.0000
  H   H789      1.0  0.81109  0.81704  0.87347  1.0000
  H   H790      1.0  0.76007  0.63627  0.06118  1.0000
  H   H791      1.0  0.71960  0.69734  0.84548  1.0000
  C   C977      1.0  0.94544  0.77609  0.90044  1.0000
  H   H792      1.0  0.06421  0.92510  0.07270  1.0000
  C   C978      1.0  0.98115  0.64383  0.92314  1.0000
  C   C979      1.0  0.70423  0.63608  0.84288  1.0000
  C   C980      1.0  0.68372  0.76033  0.03317  1.0000
  H   H793      1.0  0.96959  0.02623  0.90871  1.0000
  H   H794      1.0  0.74485  0.75359  0.01705  1.0000
  H   H795      1.0  0.91180  0.04698  0.83326  1.0000
  C   C981      1.0  0.74236  0.81863  0.96082  1.0000
  H   H796      1.0  0.86244  0.56544  0.93389  1.0000
  C   C982      1.0  0.95960  0.80272  0.86478  1.0000
  P   P34       1.0  0.89427  0.05872  0.93522  1.0000
  C   C983      1.0  0.60882  0.60499  0.04938  1.0000
  H   H797      1.0  0.85897  0.66929  0.89198  1.0000
  S   S141      1.0  0.00130  0.86729  0.06910  1.0000
  C   C984      1.0  0.95068  0.66998  0.92109  1.0000
  H   H798      1.0  0.76775  0.95449  0.90327  1.0000
  C   C985      1.0  0.88891  0.74519  0.82566  1.0000
  H   H799      1.0  0.99287  0.95917  0.90819  1.0000
  C   C986      1.0  0.00293  0.83300  0.92497  1.0000
  C   C987      1.0  0.72179  0.77543  0.89552  1.0000
  C   C988      1.0  0.59857  0.72737  0.87104  1.0000
  H   H800      1.0  0.83060  0.76012  0.02505  1.0000
  C   C989      1.0  0.72237  0.75004  0.04391  1.0000
  C   C990      1.0  0.83443  0.85965  0.04576  1.0000
  H   H801      1.0  0.79800  0.84870  0.95111  1.0000
  C   C991      1.0  0.95084  0.00275  0.92254  1.0000
  H   H802      1.0  0.99847  0.85183  0.84960  1.0000
  H   H803      1.0  0.88613  0.91639  0.97202  1.0000
  C   C992      1.0  0.07486  0.75983  0.85534  1.0000
  H   H804      1.0  0.82557  0.03937  0.99285  1.0000
  H   H805      1.0  0.73273  0.03780  0.88600  1.0000
  H   H806      1.0  0.75623  0.02946  0.97189  1.0000
  C   C993      1.0  0.94111  0.93354  0.94024  1.0000
  H   H807      1.0  0.91048  0.56519  0.86796  1.0000
  H   H808      1.0  0.00223  0.80647  0.99683  1.0000
  C   C994      1.0  0.87551  0.72409  0.92629  1.0000
  C   C995      1.0  0.76380  0.93123  0.87725  1.0000
  H   H809      1.0  0.93086  0.67036  0.95123  1.0000
  H   H810      1.0  0.62753  0.78340  0.88053  1.0000
  S   S142      1.0  0.67882  0.85290  0.83935  1.0000
  C   C996      1.0  0.81570  0.70481  0.99177  1.0000
  C   C997      1.0  0.60907  0.67919  0.93539  1.0000
  C   C998      1.0  0.60042  0.81506  0.99401  1.0000
  C   C999      1.0  0.00835  0.64417  0.88592  1.0000
  C   C1000     1.0  0.61015  0.56427  0.04601  1.0000
  H   H811      1.0  0.65969  0.98308  0.03200  1.0000
  P   P35       1.0  0.67019  0.77968  0.97330  1.0000
  S   S143      1.0  0.83613  0.95309  0.84610  1.0000
  C   C1001     1.0  0.63943  0.82116  0.98022  1.0000
  H   H812      1.0  0.64573  0.69713  0.99554  1.0000
  H   H813      1.0  0.04721  0.76655  0.87115  1.0000
  C   C1002     1.0  0.79362  0.92350  0.84516  1.0000
  C   C1003     1.0  0.69613  0.60351  0.92155  1.0000
  H   H814      1.0  0.71784  0.94292  0.03392  1.0000
  C   C1004     1.0  0.65539  0.75374  0.06898  1.0000
  C   C1005     1.0  0.89045  0.97846  0.95794  1.0000
  C   C1006     1.0  0.00334  0.97702  0.04014  1.0000
  H   H815      1.0  0.72292  0.69892  0.93623  1.0000
  H   H816      1.0  0.78436  0.89282  0.02419  1.0000
  C   C1007     1.0  0.96121  0.77757  0.94813  1.0000
  H   H817      1.0  0.87417  0.80391  0.84443  1.0000
  C   C1008     1.0  0.77637  0.03868  0.94357  1.0000
  C   C1009     1.0  0.78457  0.80949  0.89254  1.0000
  C   C1010     1.0  0.60866  0.57370  0.86034  1.0000
  C   C1011     1.0  0.66291  0.96147  0.06095  1.0000
  C   C1012     1.0  0.62257  0.75432  0.89615  1.0000
  C   C1013     1.0  0.65321  0.85947  0.96999  1.0000
  H   H818      1.0  0.73740  0.83221  0.99549  1.0000
  H   H819      1.0  0.98436  0.62390  0.95407  1.0000
  C   C1014     1.0  0.59188  0.68982  0.89055  1.0000
  H   H820      1.0  0.63087  0.62341  0.03202  1.0000
  C   C1015     1.0  0.75703  0.78343  0.87204  1.0000
  H   H821      1.0  0.95221  0.75623  0.97573  1.0000
  C   C1016     1.0  0.84284  0.05474  0.91896  1.0000
  C   C1017     1.0  0.81307  0.89378  0.04121  1.0000
  C   C1018     1.0  0.71483  0.67209  0.91780  1.0000
  C   C1019     1.0  0.82926  0.05963  0.87050  1.0000
  C   C1020     1.0  0.03177  0.00700  0.03596  1.0000
  C   C1021     1.0  0.85329  0.68914  0.92129  1.0000
  C   C1022     1.0  0.59057  0.88473  0.99016  1.0000
  C   C1023     1.0  0.59839  0.02998  0.00990  1.0000
  C   C1024     1.0  0.00451  0.66970  0.84594  1.0000
  C   C1025     1.0  0.76845  0.57443  0.07100  1.0000
  C   C1026     1.0  0.64024  0.74381  0.94102  1.0000
  H   H822      1.0  0.05230  0.00566  0.00677  1.0000
  C   C1027     1.0  0.98784  0.83134  0.87724  1.0000
  C   C1028     1.0  0.96439  0.96466  0.92245  1.0000
  H   H823      1.0  0.70559  0.91575  0.89982  1.0000
  H   H824      1.0  0.61727  0.60354  0.85066  1.0000
  H   H825      1.0  0.02527  0.85483  0.93448  1.0000
  C   C1029     1.0  0.05399  0.72830  0.01849  1.0000
  C   C1030     1.0  0.03364  0.03757  0.06959  1.0000
  C   C1031     1.0  0.77707  0.82742  0.93651  1.0000
  H   H826      1.0  0.94974  0.80091  0.82703  1.0000
  H   H827      1.0  0.82202  0.83226  0.03282  1.0000
  C   C1032     1.0  0.86642  0.75011  0.96314  1.0000
  C   C1033     1.0  0.83686  0.74024  0.99605  1.0000
  H   H828      1.0  0.62366  0.04508  0.02574  1.0000
  C   C1034     1.0  0.72352  0.87912  0.84186  1.0000
  C   C1035     1.0  0.69649  0.60182  0.87030  1.0000
  H   H829      1.0  0.79309  0.69697  0.01751  1.0000
  H   H830      1.0  0.63979  0.92041  0.96657  1.0000
  H   H831      1.0  0.93992  0.68756  0.04365  1.0000
  H   H832      1.0  0.62512  0.75957  0.06163  1.0000
  C   C1036     1.0  0.70588  0.63834  0.94520  1.0000
  C   C1037     1.0  0.62887  0.89105  0.97494  1.0000
  C   C1038     1.0  0.90435  0.94052  0.95842  1.0000
  C   C1039     1.0  0.71423  0.79262  0.94038  1.0000
  C   C1040     1.0  0.72878  0.90915  0.87552  1.0000
  C   C1041     1.0  0.94703  0.69631  0.88130  1.0000
  H   H833      1.0  0.70697  0.63880  0.98483  1.0000
  C   C1042     1.0  0.05482  0.68864  0.00698  1.0000
  H   H834      1.0  0.68236  0.86521  0.95714  1.0000
  H   H835      1.0  0.02678  0.74088  0.02783  1.0000
  C   C1043     1.0  0.69606  0.93879  0.06189  1.0000
  C   C1044     1.0  0.97407  0.69584  0.84362  1.0000
  C   C1045     1.0  0.98975  0.80596  0.96024  1.0000
  C   C1046     1.0  0.91332  0.00993  0.93930  1.0000
  C   C1047     1.0  0.82834  0.92893  0.05985  1.0000
  C   C1048     1.0  0.76321  0.04335  0.89526  1.0000
  C   C1049     1.0  0.81591  0.04432  0.95534  1.0000
  H   H836      1.0  0.70037  0.75635  0.87813  1.0000
  C   C1050     1.0  0.71318  0.67112  0.86673  1.0000
  C   C1051     1.0  0.82365  0.67945  0.95410  1.0000
  H   H837      1.0  0.80692  0.65218  0.95032  1.0000
  H   H838      1.0  0.00274  0.95297  0.01503  1.0000
  H   H839      1.0  0.60352  0.65025  0.95100  1.0000
  H   H840      1.0  0.92756  0.03720  0.03202  1.0000
  H   H841      1.0  0.88197  0.77797  0.96680  1.0000
  H   H842      1.0  0.86153  0.98261  0.97132  1.0000
  H   H843      1.0  0.95144  0.90398  0.93976  1.0000
  H   H844      1.0  0.02831  0.67077  0.00804  1.0000
  C   C1052     1.0  0.87164  0.86078  0.06750  1.0000
  H   H845      1.0  0.58836  0.78578  0.00004  1.0000
  C   C1053     1.0  0.78964  0.05387  0.85876  1.0000
  S   S144      1.0  0.89759  0.81756  0.07353  1.0000
  C   C1054     1.0  0.58567  0.04065  0.96280  1.0000
  H   H846      1.0  0.58508  0.73568  0.83642  1.0000
  C   C1055     1.0  0.88731  0.89609  0.08534  1.0000
  C   C1056     1.0  0.66243  0.63064  0.14357  1.0000
  H   H847      1.0  0.76351  0.64962  0.15074  1.0000
  H   H848      1.0  0.60751  0.62164  0.24497  1.0000
  H   H849      1.0  0.65403  0.00611  0.17394  1.0000
  Fe  Fe70      1.0  0.77346  0.65532  0.26467  1.0000
  H   H850      1.0  0.68008  0.88651  0.16680  1.0000
  S   S145      1.0  0.06272  0.83909  0.15374  1.0000
  H   H851      1.0  0.68135  0.76614  0.21573  1.0000
  C   C1057     1.0  0.91942  0.74336  0.28982  1.0000
  H   H852      1.0  0.74273  0.81790  0.29666  1.0000
  C   C1058     1.0  0.75876  0.91347  0.26457  1.0000
  C   C1059     1.0  0.63899  0.64119  0.18197  1.0000
  H   H853      1.0  0.63192  0.67144  0.18644  1.0000
  C   C1060     1.0  0.73257  0.73483  0.09000  1.0000
  C   C1061     1.0  0.62434  0.61264  0.21440  1.0000
  H   H854      1.0  0.00584  0.06145  0.13248  1.0000
  C   C1062     1.0  0.04562  0.69756  0.17027  1.0000
  C   C1063     1.0  0.63713  0.80911  0.20854  1.0000
  C   C1064     1.0  0.60846  0.03259  0.12981  1.0000
  S   S146      1.0  0.04068  0.94481  0.16908  1.0000
  S   S147      1.0  0.97172  0.85069  0.18189  1.0000
  C   C1065     1.0  0.85817  0.84472  0.19942  1.0000
  H   H855      1.0  0.89220  0.92056  0.26749  1.0000
  C   C1066     1.0  0.04181  0.65680  0.17599  1.0000
  S   S148      1.0  0.76097  0.96037  0.28966  1.0000
  C   C1067     1.0  0.93097  0.68220  0.18474  1.0000
  H   H856      1.0  0.72793  0.89443  0.10046  1.0000
  Fe  Fe71      1.0  0.80344  0.00502  0.12400  1.0000
  Fe  Fe72      1.0  0.78430  0.00142  0.23163  1.0000
  C   C1068     1.0  0.95952  0.63025  0.28772  1.0000
  S   S149      1.0  0.81876  0.70151  0.24679  1.0000
  C   C1069     1.0  0.60592  0.91629  0.30963  1.0000
  C   C1070     1.0  0.63283  0.57317  0.20845  1.0000
  S   S150      1.0  0.99649  0.77707  0.11456  1.0000
  H   H857      1.0  0.06653  0.05899  0.16963  1.0000
  H   H858      1.0  0.77316  0.93381  0.19189  1.0000
  C   C1071     1.0  0.66562  0.73801  0.11473  1.0000
  C   C1072     1.0  0.63825  0.80864  0.31082  1.0000
  C   C1073     1.0  0.76568  0.61289  0.08721  1.0000
  H   H859      1.0  0.08096  0.74631  0.14362  1.0000
  H   H860      1.0  0.68226  0.76570  0.30608  1.0000
  H   H861      1.0  0.95693  0.86994  0.29363  1.0000
  C   C1074     1.0  0.70422  0.72883  0.12535  1.0000
  S   S151      1.0  0.76889  0.59522  0.23472  1.0000
  S   S152      1.0  0.03115  0.77267  0.25745  1.0000
  C   C1075     1.0  0.64156  0.92975  0.13614  1.0000
  C   C1076     1.0  0.96241  0.66266  0.11109  1.0000
  H   H862      1.0  0.87345  0.90489  0.18307  1.0000
  C   C1077     1.0  0.59738  0.70290  0.31342  1.0000
  C   C1078     1.0  0.07246  0.63365  0.16202  1.0000
  C   C1079     1.0  0.97787  0.00754  0.11107  1.0000
  C   C1080     1.0  0.86547  0.93011  0.08207  1.0000
  H   H863      1.0  0.67299  0.65246  0.11758  1.0000
  H   H864      1.0  0.67975  0.96603  0.25102  1.0000
  C   C1081     1.0  0.90877  0.70683  0.10567  1.0000
  C   C1082     1.0  0.61318  0.83350  0.28480  1.0000
  C   C1083     1.0  0.99314  0.64298  0.26295  1.0000
  H   H865      1.0  0.95742  0.00731  0.14078  1.0000
  C   C1084     1.0  0.74983  0.84308  0.27398  1.0000
  C   C1085     1.0  0.90570  0.70510  0.15648  1.0000
  H   H866      1.0  0.85310  0.59241  0.27972  1.0000
  S   S153      1.0  0.83857  0.98940  0.19099  1.0000
  H   H867      1.0  0.02464  0.85093  0.30652  1.0000
  C   C1086     1.0  0.76649  0.87140  0.19528  1.0000
  C   C1087     1.0  0.85478  0.81593  0.23596  1.0000
  C   C1088     1.0  0.76655  0.90878  0.21509  1.0000
  P   P36       1.0  0.59386  0.98837  0.09854  1.0000
  Fe  Fe73      1.0  0.95720  0.82807  0.10679  1.0000
  C   C1089     1.0  0.87120  0.88245  0.21129  1.0000
  C   C1090     1.0  0.96728  0.56621  0.15593  1.0000
  C   C1091     1.0  0.75866  0.83842  0.22472  1.0000
  H   H868      1.0  0.91584  0.89684  0.10277  1.0000
  S   S154      1.0  0.76084  0.79191  0.19903  1.0000
  H   H869      1.0  0.77394  0.86792  0.15742  1.0000
  H   H870      1.0  0.84426  0.78687  0.22652  1.0000
  C   C1092     1.0  0.86468  0.60256  0.20446  1.0000
  Fe  Fe74      1.0  0.85219  0.05372  0.19660  1.0000
  C   C1093     1.0  0.86151  0.57885  0.24649  1.0000
  H   H871      1.0  0.59385  0.85266  0.21258  1.0000
  Fe  Fe75      1.0  0.77025  0.74349  0.25386  1.0000
  H   H872      1.0  0.02240  0.71589  0.18133  1.0000
  H   H873      1.0  0.65215  0.89978  0.26152  1.0000
  C   C1094     1.0  0.76727  0.62038  0.13778  1.0000
  C   C1095     1.0  0.66267  0.78450  0.28579  1.0000
  C   C1096     1.0  0.88113  0.89137  0.25961  1.0000
  H   H874      1.0  0.84993  0.83781  0.16208  1.0000
  C   C1097     1.0  0.95958  0.66077  0.16230  1.0000
  C   C1098     1.0  0.86996  0.58589  0.15909  1.0000
  C   C1099     1.0  0.99333  0.58328  0.19014  1.0000
  H   H875      1.0  0.07102  0.60225  0.16668  1.0000
  H   H876      1.0  0.63701  0.80932  0.16894  1.0000
  H   H877      1.0  0.98512  0.64749  0.09300  1.0000
  H   H878      1.0  0.65533  0.68124  0.31127  1.0000
  H   H879      1.0  0.87002  0.60413  0.12627  1.0000
  Fe  Fe76      1.0  0.01914  0.88573  0.14471  1.0000
  C   C1100     1.0  0.63829  0.99235  0.29730  1.0000
  C   C1101     1.0  0.61276  0.83352  0.23339  1.0000
  H   H880      1.0  0.92869  0.68242  0.22399  1.0000
  C   C1102     1.0  0.00597  0.03784  0.10674  1.0000
  H   H881      1.0  0.87744  0.95729  0.09631  1.0000
  H   H882      1.0  0.95009  0.76578  0.22662  1.0000
  C   C1103     1.0  0.67135  0.59159  0.13775  1.0000
  C   C1104     1.0  0.86380  0.82488  0.28454  1.0000
  C   C1105     1.0  0.77117  0.58923  0.17143  1.0000
  C   C1106     1.0  0.66208  0.78468  0.23479  1.0000
  C   C1107     1.0  0.63845  0.92327  0.27982  1.0000
  C   C1108     1.0  0.65444  0.96109  0.27375  1.0000
  C   C1109     1.0  0.95255  0.75732  0.26483  1.0000
  C   C1110     1.0  0.93700  0.68546  0.08295  1.0000
  H   H883      1.0  0.65073  0.02163  0.29229  1.0000
  Fe  Fe77      1.0  0.01473  0.80285  0.18663  1.0000
  H   H884      1.0  0.64335  0.73252  0.14168  1.0000
  H   H885      1.0  0.71226  0.71690  0.16090  1.0000
  H   H886      1.0  0.05094  0.66922  0.27173  1.0000
  C   C1111     1.0  0.63876  0.03251  0.16505  1.0000
  H   H887      1.0  0.68934  0.58330  0.10789  1.0000
  H   H888      1.0  0.86068  0.80209  0.31221  1.0000
  H   H889      1.0  0.03832  0.57463  0.09763  1.0000
  H   H890      1.0  0.88438  0.72251  0.17400  1.0000
  H   H891      1.0  0.93455  0.61829  0.26764  1.0000
  C   C1112     1.0  0.87689  0.86275  0.29680  1.0000
  H   H892      1.0  0.89166  0.74105  0.27083  1.0000
  H   H893      1.0  0.62148  0.92676  0.16605  1.0000
  P   P37       1.0  0.99640  0.63561  0.19795  1.0000
  S   S155      1.0  0.74809  0.01272  0.16422  1.0000
  H   H894      1.0  0.76254  0.72798  0.09873  1.0000
  H   H895      1.0  0.94950  0.58404  0.13202  1.0000
  C   C1113     1.0  0.63498  0.95666  0.09757  1.0000
  C   C1114     1.0  0.70189  0.91151  0.09966  1.0000
  C   C1115     1.0  0.74987  0.88059  0.29393  1.0000
  H   H896      1.0  0.85999  0.63356  0.20654  1.0000
  S   S156      1.0  0.72435  0.69638  0.26471  1.0000
  C   C1116     1.0  0.67478  0.90707  0.13691  1.0000
  C   C1117     1.0  0.98888  0.75888  0.28893  1.0000
  C   C1118     1.0  0.02512  0.65835  0.28991  1.0000
  H   H897      1.0  0.03696  0.57149  0.24629  1.0000
  C   C1119     1.0  0.07882  0.71488  0.14916  1.0000
  H   H898      1.0  0.95505  0.95356  0.08136  1.0000
  C   C1120     1.0  0.97648  0.97723  0.07767  1.0000
  C   C1121     1.0  0.65719  0.56308  0.17043  1.0000
  Fe  Fe78      1.0  0.04153  0.81759  0.08125  1.0000
  H   H899      1.0  0.58933  0.69315  0.27713  1.0000
  H   H900      1.0  0.88990  0.72557  0.08409  1.0000
  C   C1122     1.0  0.08357  0.95554  0.13726  1.0000
  C   C1123     1.0  0.83811  0.78626  0.44154  1.0000
  C   C1124     1.0  0.00409  0.04846  0.48555  1.0000
  Fe  Fe79      1.0  0.82638  0.70764  0.32791  1.0000
  C   C1125     1.0  0.74599  0.62708  0.54435  1.0000
  C   C1126     1.0  0.86495  0.80805  0.41353  1.0000
  C   C1127     1.0  0.73403  0.80473  0.56528  1.0000
  H   H901      1.0  0.83151  0.00271  0.34047  1.0000
  H   H902      1.0  0.83390  0.93175  0.32925  1.0000
  C   C1128     1.0  0.08302  0.84294  0.55472  1.0000
  C   C1129     1.0  0.85707  0.94648  0.34999  1.0000
  C   C1130     1.0  0.73088  0.84500  0.55749  1.0000
  C   C1131     1.0  0.98103  0.74780  0.50760  1.0000
  Fe  Fe80      1.0  0.73832  0.70271  0.34449  1.0000
  C   C1132     1.0  0.98995  0.64813  0.36510  1.0000
  H   H903      1.0  0.94009  0.00121  0.42139  1.0000
  H   H904      1.0  0.96042  0.00288  0.56372  1.0000
  H   H905      1.0  0.93466  0.84616  0.44638  1.0000
  C   C1133     1.0  0.95374  0.90410  0.55873  1.0000
  H   H906      1.0  0.04269  0.74669  0.51863  1.0000
  C   C1134     1.0  0.79502  0.84072  0.43969  1.0000
  C   C1135     1.0  0.01708  0.78814  0.56671  1.0000
  H   H907      1.0  0.96089  0.72663  0.40137  1.0000
  C   C1136     1.0  0.95763  0.63384  0.33844  1.0000
  C   C1137     1.0  0.74096  0.93799  0.46273  1.0000
  C   C1138     1.0  0.94446  0.94217  0.56993  1.0000
  C   C1139     1.0  0.83089  0.92950  0.52105  1.0000
  H   H908      1.0  0.76739  0.85285  0.44874  1.0000
  H   H909      1.0  0.72263  0.67459  0.50158  1.0000
  C   C1140     1.0  0.63497  0.69668  0.33250  1.0000
  C   C1141     1.0  0.66334  0.60397  0.36949  1.0000
  H   H910      1.0  0.93603  0.87976  0.57284  1.0000
  C   C1142     1.0  0.06735  0.99640  0.46319  1.0000
  C   C1143     1.0  0.98644  0.89764  0.53085  1.0000
  C   C1144     1.0  0.59108  0.94770  0.33496  1.0000
  H   H911      1.0  0.89093  0.79411  0.40183  1.0000
  H   H912      1.0  0.66523  0.63751  0.47367  1.0000
  H   H913      1.0  0.78198  0.78526  0.47528  1.0000
  C   C1145     1.0  0.84370  0.00704  0.54886  1.0000
  C   C1146     1.0  0.71822  0.64450  0.51398  1.0000
  H   H914      1.0  0.59454  0.00989  0.34686  1.0000
  H   H915      1.0  0.01954  0.75009  0.35744  1.0000
  H   H916      1.0  0.59008  0.93127  0.55603  1.0000
  H   H917      1.0  0.63003  0.94743  0.48079  1.0000
  H   H918      1.0  0.02539  0.96363  0.41850  1.0000
  C   C1147     1.0  0.88852  0.92550  0.36918  1.0000
  C   C1148     1.0  0.80319  0.94753  0.54931  1.0000
  C   C1149     1.0  0.95396  0.84716  0.41554  1.0000
  H   H919      1.0  0.98056  0.72486  0.48099  1.0000
  C   C1150     1.0  0.87064  0.98920  0.51983  1.0000
  C   C1151     1.0  0.99256  0.83600  0.42246  1.0000
  H   H920      1.0  0.74348  0.88397  0.33211  1.0000
  C   C1152     1.0  0.88563  0.00657  0.38194  1.0000
  H   H921      1.0  0.63925  0.80752  0.35033  1.0000
  H   H922      1.0  0.89677  0.00533  0.50884  1.0000
  H   H923      1.0  0.60745  0.63202  0.52438  1.0000
  S   S157      1.0  0.78456  0.65827  0.34545  1.0000
  H   H924      1.0  0.67256  0.93041  0.55105  1.0000
  H   H925      1.0  0.04779  0.82859  0.38845  1.0000
  H   H926      1.0  0.82622  0.89964  0.50945  1.0000
  C   C1153     1.0  0.67681  0.95096  0.42940  1.0000
  C   C1154     1.0  0.91858  0.94558  0.39491  1.0000
  C   C1155     1.0  0.94634  0.76466  0.52030  1.0000
  H   H927      1.0  0.94324  0.93030  0.41010  1.0000
  C   C1156     1.0  0.85567  0.98682  0.35627  1.0000
  H   H928      1.0  0.77185  0.64369  0.55599  1.0000
  H   H929      1.0  0.65183  0.62599  0.39245  1.0000
  P   P38       1.0  0.03264  0.00843  0.50903  1.0000
  H   H930      1.0  0.88566  0.93607  0.48490  1.0000
  C   C1157     1.0  0.68525  0.93553  0.51559  1.0000
  H   H931      1.0  0.01471  0.03916  0.40864  1.0000
  C   C1158     1.0  0.63852  0.58413  0.33681  1.0000
  H   H932      1.0  0.77169  0.93532  0.45645  1.0000
  C   C1159     1.0  0.61422  0.86487  0.41144  1.0000
  P   P39       1.0  0.89068  0.87355  0.35918  1.0000
  H   H933      1.0  0.07180  0.95085  0.35344  1.0000
  H   H934      1.0  0.91899  0.75519  0.50303  1.0000
  C   C1160     1.0  0.96745  0.97379  0.55287  1.0000
  C   C1161     1.0  0.08143  0.96732  0.38518  1.0000
  H   H935      1.0  0.70346  0.85602  0.54386  1.0000
  C   C1162     1.0  0.05529  0.97443  0.42231  1.0000
  H   H936      1.0  0.62625  0.73747  0.44392  1.0000
  C   C1163     1.0  0.59244  0.62428  0.49057  1.0000
  H   H937      1.0  0.72230  0.61314  0.39550  1.0000
  C   C1164     1.0  0.02374  0.66034  0.34084  1.0000
  C   C1165     1.0  0.68494  0.62313  0.49876  1.0000
  C   C1166     1.0  0.80319  0.80259  0.45469  1.0000
  C   C1167     1.0  0.74079  0.58801  0.55871  1.0000
  C   C1168     1.0  0.59904  0.58859  0.46813  1.0000
  C   C1169     1.0  0.94679  0.79290  0.55637  1.0000
  H   H938      1.0  0.63961  0.88025  0.39690  1.0000
  H   H939      1.0  0.60834  0.59203  0.33423  1.0000
  C   C1170     1.0  0.92265  0.73171  0.33893  1.0000
  C   C1171     1.0  0.91697  0.98592  0.40141  1.0000
  C   C1172     1.0  0.99172  0.74851  0.33846  1.0000
  C   C1173     1.0  0.86438  0.95032  0.50631  1.0000
  C   C1174     1.0  0.61372  0.85453  0.46118  1.0000
  H   H940      1.0  0.04830  0.67275  0.36126  1.0000
  C   C1175     1.0  0.01624  0.75992  0.52989  1.0000
  C   C1176     1.0  0.64575  0.70988  0.37917  1.0000
  C   C1177     1.0  0.00076  0.05673  0.43507  1.0000
  H   H941      1.0  0.99444  0.86822  0.52329  1.0000
  C   C1178     1.0  0.71664  0.94701  0.42281  1.0000
  C   C1179     1.0  0.85415  0.57922  0.41231  1.0000
  C   C1180     1.0  0.67824  0.58415  0.51484  1.0000
  S   S158      1.0  0.78116  0.75278  0.33385  1.0000
  H   H942      1.0  0.91966  0.80518  0.56728  1.0000
  H   H943      1.0  0.98811  0.65125  0.40430  1.0000
  C   C1181     1.0  0.66105  0.94507  0.47571  1.0000
  C   C1182     1.0  0.81004  0.98639  0.56350  1.0000
  C   C1183     1.0  0.01814  0.83773  0.38338  1.0000
  H   H944      1.0  0.84378  0.75613  0.45146  1.0000
  H   H945      1.0  0.63824  0.86218  0.48509  1.0000
  H   H946      1.0  0.88774  0.57445  0.34763  1.0000
  H   H947      1.0  0.65824  0.95807  0.39841  1.0000
  P   P40       1.0  0.75718  0.92280  0.56193  1.0000
  C   C1184     1.0  0.72554  0.93272  0.50972  1.0000
  H   H948      1.0  0.07617  0.80998  0.48827  1.0000
  H   H949      1.0  0.88471  0.03792  0.38626  1.0000
  C   C1185     1.0  0.00007  0.96763  0.52427  1.0000
  H   H950      1.0  0.00246  0.82546  0.45791  1.0000
  H   H951      1.0  0.87005  0.60513  0.42490  1.0000
  C   C1186     1.0  0.60666  0.98566  0.32801  1.0000
  H   H952      1.0  0.81422  0.89155  0.39922  1.0000
  C   C1187     1.0  0.00975  0.92914  0.51415  1.0000
  C   C1188     1.0  0.82186  0.86265  0.41174  1.0000
  C   C1189     1.0  0.61828  0.72770  0.40759  1.0000
  S   S159      1.0  0.69333  0.70474  0.40268  1.0000
  H   H953      1.0  0.93078  0.62676  0.35710  1.0000
  S   S160      1.0  0.88298  0.71090  0.37044  1.0000
  C   C1190     1.0  0.85744  0.84673  0.39908  1.0000
  C   C1191     1.0  0.05655  0.02418  0.56519  1.0000
  H   H954      1.0  0.72874  0.95105  0.38666  1.0000
  C   C1192     1.0  0.95857  0.73536  0.36345  1.0000
  H   H955      1.0  0.70937  0.78507  0.55742  1.0000
  H   H956      1.0  0.03578  0.92314  0.49466  1.0000
  C   C1193     1.0  0.70313  0.59705  0.37059  1.0000
  C   C1194     1.0  0.94043  0.85901  0.36894  1.0000
  H   H957      1.0  0.84930  0.03668  0.56078  1.0000
  C   C1195     1.0  0.07257  0.06236  0.56845  1.0000
  H   H958      1.0  0.74930  0.56642  0.33762  1.0000
  C   C1196     1.0  0.71816  0.57037  0.33849  1.0000
  H   H959      1.0  0.81772  0.57499  0.47554  1.0000
  H   H960      1.0  0.05982  0.61030  0.56261  1.0000
  C   C1197     1.0  0.76245  0.87063  0.56868  1.0000
  C   C1198     1.0  0.70738  0.56658  0.54369  1.0000
  C   C1199     1.0  0.96644  0.86080  0.32994  1.0000
  C   C1200     1.0  0.00513  0.85035  0.33724  1.0000
