data_image0
_chemical_formula_structural       CHCH7C3PCHC2SH2CH2C2H2SH2C2H3CHFeC3HCHC7HCHCHSCH5FeHCHPHC5PH2C2H2CHSCSC2HCH4C2HCHC5H2CH2C2HC3H2CHCSCHCHC2HC2HC2HCPH3C4HCH2SFeCH2CH2CHC2H2C2HPSHCHCHC4H2CHCH2C3HFeC2HCHSCHCH2C2SPH2CH3CHCSH2FeC3H2C4H2CH2C2SCH3C2HSC5HCHC2H2C2S2CFe2C2FeC3H2SCHC3HCFeCHC3H2CH3CHCSC4HC2H3C3H4C2HC5HCH6C3HCFe2HSCHCPHSCH3FeC2HCSH2CH4C2H3C2HCH6SCPHCHCH2CHSHPFeHCSHSC2FeC2HC2HSHCHC2H2CHC3H3CHCHFeCH4CH2CH2C3HCHFeHC2H2CSCS2CHC2H2C2HC2HC4HCHC4H3SC3HCHCHSC2H4CFeH2CFeC2H2CH2C7SCHC4HC2HCFeSH3SHS3CHCHC2SHCSHC7HSHC2HCHC3HC4H4CSCHC2Fe2HCHSHC3HSHC2H5CFeC2HC3HC2H2CHFeC3HC2H2C2HC2HC6SC4HPCH2CHC3HCH2SCH3C3HC4SCH4C3HSHFeHCHC2HFeHCHC2H3CHCPHC2HCFeC2HCH2C3H3C7H2C2HC3HCH2CHC2H3C2HCHC2H2PHCH5C4H2C2HCH2CS2C2HC3HCHC2H2C3H2C2PSCHCSHSHC2FeCH2C2H3CH2C3HC5HCH2C3HPC4H4SCHC4H3CH5CHC2HC4H2C2HSC4H4C7HC2HCH2C2H3C3HC3H3PSHCSC2HCH2C2H5CHCSC2H2SC4H4SC2HCHCH2C2PHC4FeC3HCPHCHC3FeH3C2H4C2HPCHSHFeCFeHSCHCFeHC3H3SHC2SHC3HPHCHCH5SCHC3SH2C2HCH2CPSCH2C3HCSCHCSH3CHFeH2C5H2C3S2C3HSHCHC4H2FeC2HCHCFeHC5H3C2S2H2CHC3SCHFeC2HC2HC2H4FeH2CH2C5HCHFeC5HC5HC4HCHSC3HSH2C4FeCH2C3SHFeS2HC6H4C6HC3HSHFeHC2HCH3CHSHCSCFeC2HPC2HC2H2C2HCH2C6HCH3C6HC3H2CSCSC2H2CH2CSCSHCH2C5FeCH2CHSHCHC2HFeSHC2SC2H2CSHCHSH2C2HSHCHC2HCH4C2PCH2PCSC2SH4C2FeHC3HC3H2C3HCHCHCH2CH2C3HC3FeHCH3C2HCHSCH2SH2C2H2CHCH2C2HSCH3C2H2C2HSC6HCH2C2SHC3HC2HC2H2FeC3H2CHSHCHCHFeH2PHC2HC2HSFeCH2C3H2SCH2C5HCPCHC2H6CHC2H2C4H2C5HC3H2CHCHC4HC2HPCH2C6HCHC5HC6H2C4HCH2C3HC3H2CPC4HSC5H3SHC2HPFeCH7C3HC2PC2H3CH3SH2C2HC2HC3HC6HC2HCHCSCHC2HCH2CHSH2CPHFeC2HCH2C2HCHC3SC6H3CSHC2HCHC2H2C2H3CFeC2H2CS2CHCH3CHCHCH2CHC2H2C5SCHCSCPH2FeC2H3C4H2C2HCH3C2HC2H3C3H3CFeC2SH4C3H4SCHFeC2H2C2H3CSCSCHCHC2FeCHSCH2C2HCHCH2CH2CH2CSC2HCFe2HCHCHCH2CSH2CHCHC4HSHC3FeH2C2H2CFeHCHC3HCH2C2FeC2SC3HSH2FeCH4C4H2C2FeC2HCHCHCHCH2SHC3HC3SH4SCSC2HCSCHCHCHFeHPCH3FeC4HC2PSHCH3C2HC3PC2HC4SCH3CHSFeCHSC3SHSCSCHC2SCH4SH3FeHC2HCHCHCH3SPHC3HCHC2HCH2C5HCFeC2S2CHFeCH2SHCH2C4HC3SHSHSHCHPCH3C2HCFeCHSC3HCHCHCH4CHC2FeH2PSH2C2HC3H3CHC2SH2C2HC2HCSHC2FeHPHCHC3H2C2HC2HCHCH2SCHC2SCH3C2HC4H2CH2C2H2CH2C2H2CH3C2H5CH2C3HC5H4C2HC8HCHC2HCHCHC2PH4CHC2FeH2CFeC5SH2C2SC2H3C2FeC3HC2SHCH3C3HFeC3HCHCHCHCHSC2H5CHC3H4CH2CFeSCSHC2HCHC2HCSHCHC3SCFeH2PH2C7SC2HC2FeC4HCHSC2HC3HPHC2H2SCHCH2CHC2HCHSC2H5C6HC2HSHFeCPH2C3SH2PC2HCHCHSCH2CSH2FeC2HC4H2C2H4C2H4C2FeCHC4HSHC2FeHCH2CHC2H2CFeC2HC2H2C2FeHC2FeCFeH2C2H2CFeCH2CS2FeH4FeHSCSFe2HCHC3HSC3H2CHC3HC4HSCFeSCHC4H3CH2SCH4SCSC3HC2SHC2HC2HC2HCSC3HSC2H2CPHPCHC2HCSFeSC4H2CSCH3CHSC4HSC2HC6H2C3H2C2HSCHC2SC2HC2H4CH3CH2CH2CHCHC3H2FeH3CHC2HCH5C3HCH3CHC2HCHCHC4HC3HCHCSHCSC5HCHCH2CSCH2C4SCH2CH2C2H2C2H3CHCHC2H3CHCHC2HCH4PC4HC2HCHPHC2H3C9HC8HC5HC2HSFeHC5H6CHC5HC2H3C4H3C2PFeC2PH2SCHC2H2CH3CH5CHC2HCH2CHCHCHCHC2HC3H2C3HCH3CH3CHPC2HCPHC4HC2HCSH2C5H3C2HC2HCHC2H3CPSCHSCHC2H3CSFeC2HC4HCH2CH2C4H2CH2SCFeC2HSCHFeC3HC2SFeC3FeHCSHCHPH2C3SHCH3CHSHCHFeC4SCHSCHCH2CHPCSC2SC3HC2HCHC7HCSC2H2C2FeCSFeC3HC2H2SC2HC5H4CHCH2SC7HSC3SCHCFeH5C3H7CFeC2HPC2SHC5SH3CH4CSCFeCH3C2HCH2CHCHC3H2CFeHCFeC2HC2HC3SC8HCHCHFeS2FeCHC2H3CH2CH3CSH2CH2S2CHCHC2H2CSFeSCHCH4CH2C2HCHCHCHCHC2H3SC3SHC3SC3H3FeHCH2FeHC3H2CHC2HCHC2HCH2C4H2CFeC2SC2H3CPH2C6HC3H2CH2CHSCFeC2HC3HCHCHC3HCH4CHCHC2HPHCH2CHC3HPH4C2SCH3CH4CH4FeCPHCHC3HCH4C2H2CHCHCH2SHC6HC2HCH3SH2CHS2H2C5HC4H2CHFeCHC2HC5HC3H2C3H3C6HCHCFeCSCH3CHC4SC2HC2HC2H2SFeSHC2SHC3HCPH2PH2CH3SCHCHCHC3H2FeC7H3C8HCH2C3HC2HCHFeCHCH4C6HPHC2HCH2SC3HSH2C2HSHC4H4PCHC2HCPHFeCHC2H5CH3CH3CH4C4HC5H5PC2H2PCHC2H2CH2SCHCHC3H3C3H4CHC2HCFeH2C2H2S2HC4HCHCSC2HC4HCHC3HCHC8HC2HC3HC2HC4HSC4H2C2FeC7H3C2H3CHC3H3C2H2C3HC3HC2HCSHCH2CSCH3CHSCHCHC2H2SCSHCHC2HCHCHC2HCHC2SH3CHC2H2S2CFeCH3SCFeCPHC2H2C2H2FeCH2C2H3CH3CHFeSC2S2H3CHC3H2FeCH2CH2CSHFeH2SCHCHFeCHC2H2SC2HSCHCSC2HCHCHC6HCFeC2Fe2HC4HSC5SCSCS2CHC2HCFeHCHC2H3PC2H2C2H2CHFeC2FeCHC3H2SCHCHC3HCH2C4HC2H2CSHC4SHCHFeCHC2SCHFeSC3H6C2FeHCS2HCH2CSC3H5CFeS2HCH2C2H3SHS2CHC2H2C2PC3HCHC2HC2HCSCHCHPCH3CHCH2C3HC5H3C2HCH3C3HCH3CH3C3H3CHCHC3PH2C2HC3HC2HCHCHC4HC3H3C3H4C4HCH2CHCHCHCHCHCSC2HCH2SHPC2HCPCPCHC2HC2HC5H2CPCHC2HCHC3H2C3HCHCHCHCHCHC7HC2HC4HC2H2PCHFeC6HCHSH4C2H4C2H2CHCHCPHCH2C2HSHCH2SCHCH3CHCH2C2HCH4C3HC3HC2HCH2C3HC2H2C3H2CHCHPH3CHCHCHC2H2CHC4HC2H2CH2C3H2CHCHSFeCSCH4SC2HC7HCHC2HC3H3SCS3CSCH2CHCFeSHCHCH2FeCH2CFeSH2CSCSHC2SCH2CPH4SH2C2HC2H3SCHC3HCH2C2HCH2CFeCSHSC2H3C3HSCHC7S2CSC4SHSHC4H3CHFeHSH3FeHCFeC2H2C2SC2HFeH3C3H2C2HC5HC2H2CFeCHCHCH2CHCHCPHC2FeCH2C2SHFeHC2HSFeHCSH2C5HCSC2Fe2CSHCFeHCH3SC2H3C4HC3HC2SHCH2C2
_chemical_formula_sum              "C2400 H1920 P80 S320 Fe160"
_cell_length_a       46.6564
_cell_length_b       46.2785
_cell_length_c       29.1878
_cell_angle_alpha    83.624
_cell_angle_beta     87.9736
_cell_angle_gamma    90.1401

_space_group_name_H-M_alt    "P 1"
_space_group_IT_number       1

loop_
  _space_group_symop_operation_xyz
  'x, y, z'

loop_
  _atom_site_type_symbol
  _atom_site_label
  _atom_site_symmetry_multiplicity
  _atom_site_fract_x
  _atom_site_fract_y
  _atom_site_fract_z
  _atom_site_occupancy
  C   C1        1.0  0.51766  0.34205  0.58652  1.0000
  H   H1        1.0  0.44376  0.15807  0.50662  1.0000
  C   C2        1.0  0.10243  0.13962  0.48190  1.0000
  H   H2        1.0  0.39109  0.52481  0.64050  1.0000
  H   H3        1.0  0.18268  0.05845  0.66029  1.0000
  H   H4        1.0  0.19896  0.33981  0.48442  1.0000
  H   H5        1.0  0.22874  0.04894  0.56440  1.0000
  H   H6        1.0  0.19617  0.51422  0.50046  1.0000
  H   H7        1.0  0.19408  0.11586  0.62035  1.0000
  H   H8        1.0  0.32107  0.43886  0.48588  1.0000
  C   C3        1.0  0.18439  0.23088  0.62411  1.0000
  C   C4        1.0  0.31762  0.50671  0.62821  1.0000
  C   C5        1.0  0.22108  0.16046  0.50462  1.0000
  P   P1        1.0  0.24937  0.18637  0.48742  1.0000
  C   C6        1.0  0.51469  0.18896  0.64078  1.0000
  H   H9        1.0  0.24856  0.16672  0.58700  1.0000
  C   C7        1.0  0.54150  0.06316  0.67621  1.0000
  C   C8        1.0  0.54654  0.09736  0.52158  1.0000
  S   S1        1.0  0.09005  0.43953  0.56482  1.0000
  H   H10       1.0  0.51693  0.09838  0.64324  1.0000
  H   H11       1.0  0.47493  0.19771  0.47109  1.0000
  C   C9        1.0  0.43811  0.45338  0.49332  1.0000
  H   H12       1.0  0.33306  0.33630  0.49744  1.0000
  H   H13       1.0  0.43424  0.05392  0.50223  1.0000
  C   C10       1.0  0.19601  0.46862  0.49138  1.0000
  C   C11       1.0  0.24986  0.33555  0.61046  1.0000
  H   H14       1.0  0.33032  0.53428  0.51040  1.0000
  H   H15       1.0  0.47954  0.54507  0.65372  1.0000
  S   S2        1.0  0.25437  0.05982  0.46523  1.0000
  H   H16       1.0  0.15084  0.51513  0.62623  1.0000
  H   H17       1.0  0.27421  0.11961  0.61239  1.0000
  C   C12       1.0  0.54779  0.22674  0.60683  1.0000
  C   C13       1.0  0.06747  0.32593  0.66532  1.0000
  H   H18       1.0  0.52289  0.41656  0.55953  1.0000
  H   H19       1.0  0.13970  0.47402  0.58209  1.0000
  H   H20       1.0  0.19593  0.27821  0.46344  1.0000
  C   C14       1.0  0.31763  0.13417  0.46554  1.0000
  H   H21       1.0  0.55807  0.13145  0.62782  1.0000
  Fe  Fe1       1.0  0.45642  0.13306  0.64487  1.0000
  C   C15       1.0  0.31509  0.12190  0.68277  1.0000
  C   C16       1.0  0.26794  0.08166  0.66240  1.0000
  C   C17       1.0  0.52897  0.14599  0.52896  1.0000
  H   H22       1.0  0.19549  0.19138  0.53831  1.0000
  C   C18       1.0  0.53321  0.50833  0.60186  1.0000
  H   H23       1.0  0.27253  0.54007  0.56922  1.0000
  C   C19       1.0  0.12744  0.53005  0.49965  1.0000
  C   C20       1.0  0.48022  0.05778  0.50563  1.0000
  C   C21       1.0  0.41648  0.52943  0.57604  1.0000
  C   C22       1.0  0.41694  0.32105  0.52252  1.0000
  C   C23       1.0  0.22175  0.23956  0.47225  1.0000
  C   C24       1.0  0.41665  0.35139  0.52009  1.0000
  C   C25       1.0  0.16433  0.25123  0.60689  1.0000
  H   H24       1.0  0.21134  0.33982  0.57086  1.0000
  C   C26       1.0  0.21309  0.54323  0.63935  1.0000
  H   H25       1.0  0.09059  0.51932  0.65915  1.0000
  C   C27       1.0  0.46188  0.54145  0.63190  1.0000
  H   H26       1.0  0.50820  0.17280  0.66869  1.0000
  S   S3        1.0  0.22527  0.21087  0.68263  1.0000
  C   C28       1.0  0.41181  0.52998  0.62380  1.0000
  H   H27       1.0  0.18179  0.45373  0.61754  1.0000
  H   H28       1.0  0.23710  0.41458  0.54124  1.0000
  H   H29       1.0  0.33320  0.43529  0.62389  1.0000
  H   H30       1.0  0.12727  0.43242  0.47448  1.0000
  H   H31       1.0  0.48212  0.07276  0.47442  1.0000
  Fe  Fe2       1.0  0.22426  0.48004  0.69584  1.0000
  H   H32       1.0  0.31716  0.24937  0.55632  1.0000
  C   C29       1.0  0.09426  0.38583  0.53492  1.0000
  H   H33       1.0  0.51971  0.23612  0.46617  1.0000
  P   P2        1.0  0.28904  0.09482  0.70666  1.0000
  H   H34       1.0  0.43090  0.53484  0.68843  1.0000
  C   C30       1.0  0.19800  0.11378  0.50042  1.0000
  C   C31       1.0  0.34832  0.29962  0.66664  1.0000
  C   C32       1.0  0.35679  0.47099  0.58709  1.0000
  C   C33       1.0  0.28577  0.22310  0.52693  1.0000
  C   C34       1.0  0.17327  0.15079  0.53855  1.0000
  P   P3        1.0  0.45675  0.27580  0.67064  1.0000
  H   H35       1.0  0.44780  0.21254  0.69061  1.0000
  H   H36       1.0  0.44799  0.33454  0.62430  1.0000
  C   C35       1.0  0.50959  0.29496  0.62998  1.0000
  C   C36       1.0  0.19677  0.16947  0.52876  1.0000
  H   H37       1.0  0.37151  0.23478  0.60420  1.0000
  H   H38       1.0  0.39689  0.25751  0.66291  1.0000
  C   C37       1.0  0.56130  0.10963  0.64412  1.0000
  H   H39       1.0  0.19822  0.09245  0.48848  1.0000
  S   S4        1.0  0.41249  0.12752  0.67804  1.0000
  C   C38       1.0  0.27228  0.39242  0.57669  1.0000
  S   S5        1.0  0.11578  0.08346  0.47110  1.0000
  C   C39       1.0  0.10620  0.16986  0.47399  1.0000
  C   C40       1.0  0.40883  0.23386  0.55862  1.0000
  H   H40       1.0  0.50021  0.50251  0.48013  1.0000
  C   C41       1.0  0.54334  0.41897  0.54059  1.0000
  H   H41       1.0  0.32450  0.10141  0.62068  1.0000
  H   H42       1.0  0.35881  0.13901  0.58736  1.0000
  H   H43       1.0  0.24469  0.31401  0.48638  1.0000
  H   H44       1.0  0.42905  0.30862  0.54871  1.0000
  C   C42       1.0  0.43774  0.24144  0.55159  1.0000
  C   C43       1.0  0.45468  0.15615  0.47366  1.0000
  H   H45       1.0  0.08973  0.09364  0.60148  1.0000
  C   C44       1.0  0.14570  0.15465  0.70572  1.0000
  H   H46       1.0  0.36581  0.34371  0.56884  1.0000
  C   C45       1.0  0.13018  0.50151  0.52022  1.0000
  C   C46       1.0  0.52786  0.31482  0.60376  1.0000
  C   C47       1.0  0.26501  0.09804  0.61938  1.0000
  C   C48       1.0  0.28054  0.19249  0.61477  1.0000
  C   C49       1.0  0.45215  0.25440  0.58540  1.0000
  H   H47       1.0  0.51126  0.16093  0.52879  1.0000
  H   H48       1.0  0.15236  0.24723  0.57740  1.0000
  C   C50       1.0  0.19116  0.37030  0.64022  1.0000
  H   H49       1.0  0.53862  0.24542  0.53836  1.0000
  H   H50       1.0  0.48089  0.37020  0.58049  1.0000
  C   C51       1.0  0.51916  0.48676  0.63177  1.0000
  C   C52       1.0  0.25116  0.08603  0.58417  1.0000
  H   H51       1.0  0.12228  0.53372  0.46362  1.0000
  C   C53       1.0  0.35518  0.16417  0.64510  1.0000
  C   C54       1.0  0.42699  0.47405  0.52043  1.0000
  C   C55       1.0  0.16366  0.38224  0.64113  1.0000
  H   H52       1.0  0.51792  0.27379  0.64210  1.0000
  H   H53       1.0  0.30209  0.52036  0.64369  1.0000
  C   C56       1.0  0.47043  0.32906  0.61971  1.0000
  H   H54       1.0  0.20936  0.28808  0.55843  1.0000
  C   C57       1.0  0.31489  0.47655  0.63663  1.0000
  S   S6        1.0  0.49745  0.46090  0.61011  1.0000
  C   C58       1.0  0.24830  0.27708  0.59358  1.0000
  H   H55       1.0  0.31192  0.37293  0.60063  1.0000
  C   C59       1.0  0.19734  0.26251  0.68090  1.0000
  H   H56       1.0  0.54999  0.30893  0.59694  1.0000
  C   C60       1.0  0.28569  0.39965  0.68131  1.0000
  C   C61       1.0  0.30000  0.21557  0.60625  1.0000
  H   H57       1.0  0.40061  0.28330  0.49543  1.0000
  C   C62       1.0  0.22802  0.32540  0.58432  1.0000
  C   C63       1.0  0.30207  0.38816  0.57511  1.0000
  H   H58       1.0  0.55162  0.20408  0.67475  1.0000
  C   C64       1.0  0.39409  0.24009  0.59871  1.0000
  C   C65       1.0  0.34821  0.14108  0.62046  1.0000
  H   H59       1.0  0.37100  0.18019  0.63098  1.0000
  C   C66       1.0  0.27089  0.28740  0.61750  1.0000
  P   P4        1.0  0.38844  0.51749  0.54094  1.0000
  H   H60       1.0  0.09261  0.18401  0.49216  1.0000
  H   H61       1.0  0.56045  0.17765  0.54287  1.0000
  H   H62       1.0  0.07677  0.30647  0.65376  1.0000
  C   C67       1.0  0.33470  0.45870  0.61656  1.0000
  C   C68       1.0  0.53190  0.22979  0.56707  1.0000
  C   C69       1.0  0.49833  0.19278  0.60134  1.0000
  C   C70       1.0  0.16011  0.41228  0.63207  1.0000
  H   H63       1.0  0.18474  0.46225  0.52404  1.0000
  C   C71       1.0  0.26346  0.18473  0.57966  1.0000
  H   H64       1.0  0.43724  0.11369  0.46751  1.0000
  H   H65       1.0  0.11096  0.13004  0.68027  1.0000
  S   S7        1.0  0.46667  0.17296  0.59582  1.0000
  Fe  Fe3       1.0  0.10584  0.24393  0.47904  1.0000
  C   C72       1.0  0.13806  0.49616  0.56607  1.0000
  H   H66       1.0  0.31288  0.22164  0.63388  1.0000
  H   H67       1.0  0.55569  0.54288  0.48406  1.0000
  C   C73       1.0  0.53880  0.50707  0.69715  1.0000
  H   H68       1.0  0.28845  0.23466  0.49267  1.0000
  H   H69       1.0  0.42830  0.36248  0.54451  1.0000
  C   C74       1.0  0.27183  0.31654  0.62564  1.0000
  H   H70       1.0  0.56071  0.44712  0.58655  1.0000
  C   C75       1.0  0.46652  0.54211  0.58426  1.0000
  C   C76       1.0  0.26005  0.41178  0.54240  1.0000
  H   H71       1.0  0.23004  0.43288  0.61695  1.0000
  H   H72       1.0  0.34258  0.40166  0.54168  1.0000
  C   C77       1.0  0.52383  0.11714  0.52201  1.0000
  C   C78       1.0  0.06410  0.36877  0.47711  1.0000
  H   H73       1.0  0.22844  0.38443  0.46611  1.0000
  P   P5        1.0  0.53999  0.06076  0.50813  1.0000
  S   S8        1.0  0.24150  0.49367  0.62410  1.0000
  H   H74       1.0  0.28457  0.13684  0.51766  1.0000
  C   C79       1.0  0.27919  0.16972  0.45979  1.0000
  H   H75       1.0  0.17589  0.05559  0.57702  1.0000
  C   C80       1.0  0.17699  0.28269  0.66401  1.0000
  H   H76       1.0  0.53067  0.50909  0.56509  1.0000
  C   C81       1.0  0.34007  0.51914  0.59965  1.0000
  C   C82       1.0  0.31952  0.40446  0.54183  1.0000
  C   C83       1.0  0.23575  0.53118  0.61542  1.0000
  C   C84       1.0  0.21527  0.38822  0.62869  1.0000
  H   H77       1.0  0.37186  0.45663  0.57213  1.0000
  H   H78       1.0  0.34215  0.54262  0.59407  1.0000
  C   C85       1.0  0.35392  0.30829  0.61981  1.0000
  H   H79       1.0  0.15414  0.15832  0.55561  1.0000
  C   C86       1.0  0.50718  0.21309  0.56459  1.0000
  H   H80       1.0  0.28799  0.41714  0.65374  1.0000
  H   H81       1.0  0.25076  0.09768  0.55002  1.0000
  C   C87       1.0  0.26619  0.19984  0.53537  1.0000
  C   C88       1.0  0.45312  0.04714  0.52108  1.0000
  C   C89       1.0  0.19277  0.14502  0.67278  1.0000
  H   H82       1.0  0.35216  0.29280  0.59487  1.0000
  Fe  Fe4       1.0  0.40705  0.41097  0.66829  1.0000
  C   C90       1.0  0.28834  0.32650  0.49642  1.0000
  C   C91       1.0  0.40279  0.49039  0.50658  1.0000
  H   H83       1.0  0.19809  0.52933  0.66058  1.0000
  C   C92       1.0  0.36206  0.33696  0.60512  1.0000
  H   H84       1.0  0.11158  0.38205  0.55855  1.0000
  S   S9        1.0  0.38004  0.39111  0.61791  1.0000
  C   C93       1.0  0.30738  0.42525  0.51011  1.0000
  H   H85       1.0  0.49483  0.21578  0.53403  1.0000
  C   C94       1.0  0.49130  0.27244  0.45997  1.0000
  H   H86       1.0  0.53208  0.35750  0.56707  1.0000
  H   H87       1.0  0.27846  0.18090  0.64893  1.0000
  C   C95       1.0  0.09428  0.53179  0.68764  1.0000
  C   C96       1.0  0.20063  0.23647  0.66134  1.0000
  S   S10       1.0  0.34188  0.26281  0.68427  1.0000
  P   P6        1.0  0.25066  0.37290  0.62280  1.0000
  H   H88       1.0  0.08971  0.18855  0.66715  1.0000
  H   H89       1.0  0.44907  0.23669  0.52036  1.0000
  C   C97       1.0  0.18418  0.43037  0.62318  1.0000
  H   H90       1.0  0.39988  0.39097  0.48549  1.0000
  H   H91       1.0  0.17361  0.30235  0.68016  1.0000
  H   H92       1.0  0.21568  0.14896  0.67081  1.0000
  C   C98       1.0  0.21164  0.41845  0.62258  1.0000
  H   H93       1.0  0.34259  0.25157  0.48148  1.0000
  C   C99       1.0  0.13867  0.04797  0.67988  1.0000
  S   S11       1.0  0.09895  0.23139  0.55511  1.0000
  H   H94       1.0  0.18719  0.21079  0.60892  1.0000
  H   H95       1.0  0.19347  0.34714  0.64875  1.0000
  Fe  Fe5       1.0  0.07017  0.29909  0.47973  1.0000
  C   C100      1.0  0.40073  0.30677  0.49231  1.0000
  C   C101      1.0  0.43767  0.26000  0.62643  1.0000
  C   C102      1.0  0.35976  0.34827  0.68416  1.0000
  H   H96       1.0  0.43739  0.47712  0.55213  1.0000
  H   H97       1.0  0.47464  0.25975  0.57972  1.0000
  C   C103      1.0  0.26777  0.37585  0.67665  1.0000
  C   C104      1.0  0.38930  0.48492  0.46613  1.0000
  C   C105      1.0  0.17419  0.12267  0.52545  1.0000
  C   C106      1.0  0.25412  0.05452  0.67107  1.0000
  H   H98       1.0  0.28267  0.34066  0.52239  1.0000
  H   H99       1.0  0.13877  0.42149  0.63304  1.0000
  C   C107      1.0  0.35956  0.50134  0.57818  1.0000
  H   H100      1.0  0.14513  0.36819  0.64954  1.0000
  H   H101      1.0  0.19844  0.42524  0.47393  1.0000
  C   C108      1.0  0.43451  0.53564  0.65151  1.0000
  C   C109      1.0  0.53783  0.09108  0.65394  1.0000
  S   S12       1.0  0.37732  0.06390  0.61955  1.0000
  C   C110      1.0  0.22704  0.29615  0.57656  1.0000
  H   H102      1.0  0.32791  0.11574  0.48436  1.0000
  H   H103      1.0  0.26826  0.44486  0.48542  1.0000
  H   H104      1.0  0.50205  0.11060  0.51699  1.0000
  C   C111      1.0  0.53917  0.20648  0.64405  1.0000
  C   C112      1.0  0.20239  0.49791  0.47806  1.0000
  H   H105      1.0  0.09740  0.34358  0.51157  1.0000
  S   S13       1.0  0.13230  0.29999  0.61070  1.0000
  C   C113      1.0  0.18056  0.12648  0.64427  1.0000
  C   C114      1.0  0.15999  0.27665  0.62786  1.0000
  C   C115      1.0  0.50471  0.04877  0.52997  1.0000
  C   C116      1.0  0.40852  0.25304  0.63233  1.0000
  C   C117      1.0  0.31703  0.32392  0.48203  1.0000
  H   H106      1.0  0.14120  0.10791  0.62392  1.0000
  C   C118      1.0  0.07953  0.41219  0.53183  1.0000
  H   H107      1.0  0.49684  0.27948  0.49274  1.0000
  C   C119      1.0  0.44402  0.53598  0.55647  1.0000
  C   C120      1.0  0.52209  0.48616  0.67921  1.0000
  H   H108      1.0  0.28945  0.32398  0.64461  1.0000
  H   H109      1.0  0.28729  0.27267  0.63114  1.0000
  C   C121      1.0  0.08625  0.36401  0.50813  1.0000
  C   C122      1.0  0.32862  0.11978  0.63951  1.0000
  S   S14       1.0  0.45572  0.08942  0.61864  1.0000
  S   S15       1.0  0.45268  0.39709  0.67848  1.0000
  C   C123      1.0  0.30245  0.23109  0.56244  1.0000
  Fe  Fe6       1.0  0.10674  0.27891  0.56037  1.0000
  Fe  Fe7       1.0  0.47454  0.07261  0.68574  1.0000
  C   C124      1.0  0.40037  0.36747  0.48715  1.0000
  C   C125      1.0  0.34319  0.16546  0.68933  1.0000
  Fe  Fe8       1.0  0.41336  0.08238  0.65674  1.0000
  C   C126      1.0  0.14384  0.51931  0.59117  1.0000
  C   C127      1.0  0.26696  0.31136  0.47651  1.0000
  C   C128      1.0  0.17540  0.15892  0.70354  1.0000
  H   H110      1.0  0.15597  0.10817  0.53309  1.0000
  H   H111      1.0  0.39796  0.22316  0.53304  1.0000
  S   S16       1.0  0.41817  0.45782  0.64877  1.0000
  C   C129      1.0  0.15091  0.12192  0.64640  1.0000
  H   H112      1.0  0.35550  0.19998  0.48026  1.0000
  C   C130      1.0  0.07622  0.17587  0.69295  1.0000
  C   C131      1.0  0.13360  0.13530  0.67776  1.0000
  C   C132      1.0  0.36633  0.35657  0.63738  1.0000
  H   H113      1.0  0.24687  0.25418  0.58927  1.0000
  C   C133      1.0  0.27763  0.42867  0.51001  1.0000
  Fe  Fe9       1.0  0.46324  0.44449  0.66296  1.0000
  C   C134      1.0  0.54811  0.40494  0.50100  1.0000
  H   H114      1.0  0.23867  0.12582  0.46779  1.0000
  C   C135      1.0  0.48091  0.30222  0.63932  1.0000
  C   C136      1.0  0.48890  0.34914  0.59418  1.0000
  C   C137      1.0  0.23867  0.05844  0.59234  1.0000
  H   H115      1.0  0.22709  0.24299  0.50702  1.0000
  H   H116      1.0  0.08619  0.13045  0.50662  1.0000
  C   C138      1.0  0.55203  0.52924  0.66749  1.0000
  H   H117      1.0  0.53142  0.39147  0.48926  1.0000
  H   H118      1.0  0.29747  0.46720  0.65904  1.0000
  H   H119      1.0  0.45696  0.44115  0.50402  1.0000
  C   C139      1.0  0.22112  0.13281  0.48908  1.0000
  H   H120      1.0  0.45207  0.33370  0.70525  1.0000
  C   C140      1.0  0.29289  0.14601  0.48409  1.0000
  S   S17       1.0  0.11709  0.29029  0.48533  1.0000
  C   C141      1.0  0.54929  0.52987  0.61975  1.0000
  C   C142      1.0  0.15809  0.05105  0.60152  1.0000
  C   C143      1.0  0.47606  0.24772  0.70411  1.0000
  C   C144      1.0  0.55668  0.15539  0.53640  1.0000
  H   H121      1.0  0.55706  0.33352  0.46713  1.0000
  C   C145      1.0  0.20423  0.44752  0.46280  1.0000
  C   C146      1.0  0.11988  0.12120  0.45831  1.0000
  H   H122      1.0  0.12611  0.48340  0.50082  1.0000
  H   H123      1.0  0.51141  0.46946  0.70196  1.0000
  H   H124      1.0  0.44857  0.53511  0.52010  1.0000
  C   C147      1.0  0.06668  0.09287  0.59914  1.0000
  C   C148      1.0  0.16196  0.05257  0.64847  1.0000
  C   C149      1.0  0.34994  0.31987  0.69865  1.0000
  H   H125      1.0  0.53934  0.42442  0.69831  1.0000
  H   H126      1.0  0.31971  0.04847  0.66709  1.0000
  H   H127      1.0  0.13374  0.51038  0.70525  1.0000
  H   H128      1.0  0.09874  0.22688  0.70523  1.0000
  C   C150      1.0  0.38438  0.32283  0.45910  1.0000
  C   C151      1.0  0.51941  0.49089  0.86719  1.0000
  H   H129      1.0  0.16803  0.54422  0.87707  1.0000
  C   C152      1.0  0.14849  0.13096  0.89250  1.0000
  C   C153      1.0  0.46802  0.48636  0.86036  1.0000
  C   C154      1.0  0.50402  0.20507  0.76173  1.0000
  C   C155      1.0  0.49887  0.44530  0.85034  1.0000
  C   C156      1.0  0.47148  0.45750  0.85156  1.0000
  H   H130      1.0  0.28453  0.37486  0.94636  1.0000
  C   C157      1.0  0.52772  0.31506  0.82507  1.0000
  H   H131      1.0  0.54207  0.21486  0.85197  1.0000
  H   H132      1.0  0.56253  0.23789  0.91496  1.0000
  H   H133      1.0  0.15174  0.33490  0.85123  1.0000
  H   H134      1.0  0.32538  0.48490  0.88709  1.0000
  H   H135      1.0  0.39827  0.38331  0.93989  1.0000
  H   H136      1.0  0.34803  0.20849  0.91303  1.0000
  C   C158      1.0  0.47801  0.18774  0.91325  1.0000
  C   C159      1.0  0.51628  0.32474  0.86550  1.0000
  C   C160      1.0  0.46079  0.25215  0.86639  1.0000
  H   H137      1.0  0.47063  0.23559  0.84775  1.0000
  C   C161      1.0  0.09865  0.43875  0.74511  1.0000
  Fe  Fe10      1.0  0.41298  0.46248  0.72393  1.0000
  Fe  Fe11      1.0  0.25001  0.22831  0.73686  1.0000
  H   H138      1.0  0.12689  0.28826  0.95495  1.0000
  S   S18       1.0  0.30967  0.24606  0.81912  1.0000
  C   C162      1.0  0.21814  0.50038  0.92990  1.0000
  H   H139      1.0  0.53753  0.50449  0.87287  1.0000
  C   C163      1.0  0.41750  0.19269  0.93886  1.0000
  P   P7        1.0  0.12405  0.17126  0.74799  1.0000
  H   H140      1.0  0.13906  0.28273  0.86814  1.0000
  S   S19       1.0  0.19235  0.46081  0.81992  1.0000
  C   C164      1.0  0.13313  0.20943  0.74810  1.0000
  H   H141      1.0  0.52856  0.32133  0.75074  1.0000
  H   H142      1.0  0.31035  0.53259  0.72404  1.0000
  H   H143      1.0  0.39421  0.23276  0.92075  1.0000
  Fe  Fe12      1.0  0.26469  0.26350  0.81397  1.0000
  C   C165      1.0  0.35364  0.16855  0.81195  1.0000
  C   C166      1.0  0.19325  0.33679  0.77298  1.0000
  H   H144      1.0  0.32710  0.10449  0.86537  1.0000
  C   C167      1.0  0.41491  0.16228  0.94623  1.0000
  S   S20       1.0  0.15309  0.53503  0.78598  1.0000
  H   H145      1.0  0.35084  0.53288  0.90318  1.0000
  H   H146      1.0  0.31479  0.14527  0.74304  1.0000
  C   C168      1.0  0.36447  0.16547  0.93029  1.0000
  H   H147      1.0  0.53688  0.45402  0.76410  1.0000
  H   H148      1.0  0.16598  0.09545  0.85902  1.0000
  H   H149      1.0  0.07978  0.44786  0.93246  1.0000
  H   H150      1.0  0.18107  0.33210  0.74385  1.0000
  C   C169      1.0  0.17771  0.52966  0.90373  1.0000
  C   C170      1.0  0.33903  0.48037  0.75622  1.0000
  H   H151      1.0  0.34420  0.15463  0.92681  1.0000
  H   H152      1.0  0.44680  0.49594  0.86020  1.0000
  H   H153      1.0  0.17890  0.25206  0.80059  1.0000
  C   C171      1.0  0.10869  0.51614  0.88020  1.0000
  C   C172      1.0  0.23572  0.14728  0.77442  1.0000
  H   H154      1.0  0.48416  0.52401  0.74985  1.0000
  C   C173      1.0  0.36670  0.19572  0.92295  1.0000
  H   H155      1.0  0.20993  0.13668  0.83650  1.0000
  H   H156      1.0  0.09464  0.44628  0.85060  1.0000
  H   H157      1.0  0.30842  0.53836  0.80731  1.0000
  H   H158      1.0  0.12798  0.16841  0.91646  1.0000
  H   H159      1.0  0.34714  0.19064  0.80156  1.0000
  H   H160      1.0  0.50115  0.42307  0.84251  1.0000
  S   S21       1.0  0.39439  0.49985  0.75701  1.0000
  C   C174      1.0  0.12950  0.41700  0.86583  1.0000
  P   P8        1.0  0.45231  0.20958  0.94157  1.0000
  H   H161      1.0  0.27580  0.33871  0.78290  1.0000
  C   C175      1.0  0.28521  0.32880  0.94107  1.0000
  H   H162      1.0  0.48918  0.52546  0.87510  1.0000
  C   C176      1.0  0.49231  0.05264  0.84568  1.0000
  H   H163      1.0  0.22185  0.08421  0.84278  1.0000
  H   H164      1.0  0.54438  0.15830  0.92783  1.0000
  C   C177      1.0  0.41427  0.27180  0.74101  1.0000
  H   H165      1.0  0.14104  0.05017  0.71618  1.0000
  S   S22       1.0  0.22847  0.50971  0.75093  1.0000
  H   H166      1.0  0.10741  0.39344  0.74424  1.0000
  P   P9        1.0  0.55846  0.44569  0.85687  1.0000
  Fe  Fe13      1.0  0.23833  0.46951  0.79731  1.0000
  H   H167      1.0  0.38661  0.12543  0.94571  1.0000
  C   C178      1.0  0.44409  0.30165  0.86619  1.0000
  S   S23       1.0  0.47861  0.11694  0.70933  1.0000
  H   H168      1.0  0.50622  0.27765  0.72852  1.0000
  S   S24       1.0  0.39808  0.41657  0.74282  1.0000
  C   C179      1.0  0.51578  0.14914  0.87483  1.0000
  C   C180      1.0  0.26364  0.35428  0.71403  1.0000
  Fe  Fe14      1.0  0.18235  0.49899  0.76873  1.0000
  C   C181      1.0  0.23121  0.09897  0.81485  1.0000
  C   C182      1.0  0.37072  0.11150  0.83954  1.0000
  H   H169      1.0  0.42486  0.31285  0.92975  1.0000
  C   C183      1.0  0.26838  0.20679  0.93659  1.0000
  C   C184      1.0  0.35620  0.49078  0.82997  1.0000
  H   H170      1.0  0.49219  0.36050  0.74655  1.0000
  S   S25       1.0  0.27244  0.47017  0.84937  1.0000
  H   H171      1.0  0.53172  0.23989  0.77658  1.0000
  C   C185      1.0  0.14450  0.40089  0.90044  1.0000
  H   H172      1.0  0.37349  0.49705  0.85058  1.0000
  C   C186      1.0  0.52308  0.46175  0.85858  1.0000
  C   C187      1.0  0.39070  0.13168  0.81809  1.0000
  H   H173      1.0  0.09314  0.49914  0.82031  1.0000
  H   H174      1.0  0.51558  0.18854  0.78250  1.0000
  C   C188      1.0  0.43035  0.08590  0.92825  1.0000
  H   H175      1.0  0.25868  0.20205  0.90522  1.0000
  C   C189      1.0  0.10640  0.43414  0.87742  1.0000
  C   C190      1.0  0.20868  0.41175  0.95058  1.0000
  C   C191      1.0  0.14662  0.12751  0.81041  1.0000
  H   H176      1.0  0.48681  0.35400  0.89455  1.0000
  H   H177      1.0  0.53018  0.13404  0.86034  1.0000
  H   H178      1.0  0.29437  0.46829  0.75561  1.0000
  C   C192      1.0  0.07550  0.30824  0.82743  1.0000
  H   H179      1.0  0.23926  0.49170  0.92342  1.0000
  C   C193      1.0  0.22626  0.32157  0.83324  1.0000
  H   H180      1.0  0.29399  0.33120  0.90595  1.0000
  Fe  Fe15      1.0  0.43472  0.10837  0.74078  1.0000
  C   C194      1.0  0.11057  0.34707  0.82424  1.0000
  H   H181      1.0  0.55777  0.08974  0.82543  1.0000
  H   H182      1.0  0.12898  0.50510  0.87749  1.0000
  H   H183      1.0  0.22975  0.16992  0.77060  1.0000
  H   H184      1.0  0.25596  0.06577  0.78700  1.0000
  C   C195      1.0  0.13056  0.32738  0.84388  1.0000
  H   H185      1.0  0.27148  0.05556  0.91304  1.0000
  H   H186      1.0  0.46881  0.10577  0.89761  1.0000
  C   C196      1.0  0.47983  0.19769  0.73851  1.0000
  H   H187      1.0  0.44966  0.17844  0.85920  1.0000
  H   H188      1.0  0.15174  0.11559  0.78134  1.0000
  C   C197      1.0  0.06711  0.40011  0.78090  1.0000
  C   C198      1.0  0.33382  0.14846  0.83422  1.0000
  C   C199      1.0  0.21061  0.31536  0.79546  1.0000
  H   H189      1.0  0.13578  0.41612  0.82994  1.0000
  C   C200      1.0  0.19653  0.31033  0.95229  1.0000
  H   H190      1.0  0.20978  0.26679  0.70984  1.0000
  Fe  Fe16      1.0  0.44479  0.40663  0.75177  1.0000
  H   H191      1.0  0.20064  0.40769  0.91772  1.0000
  C   C201      1.0  0.30671  0.47601  0.82368  1.0000
  C   C202      1.0  0.09261  0.40919  0.75638  1.0000
  H   H192      1.0  0.39755  0.17581  0.78746  1.0000
  H   H193      1.0  0.48019  0.07252  0.84601  1.0000
  C   C203      1.0  0.48283  0.54329  0.76779  1.0000
  S   S26       1.0  0.09795  0.07942  0.89528  1.0000
  C   C204      1.0  0.51340  0.23392  0.75795  1.0000
  S   S27       1.0  0.42671  0.12165  0.81136  1.0000
  S   S28       1.0  0.08393  0.06398  0.77091  1.0000
  C   C205      1.0  0.12330  0.29804  0.85404  1.0000
  H   H194      1.0  0.43679  0.54468  0.76759  1.0000
  C   C206      1.0  0.16119  0.24630  0.78028  1.0000
  C   C207      1.0  0.54926  0.12223  0.76962  1.0000
  H   H195      1.0  0.34961  0.18267  0.70924  1.0000
  H   H196      1.0  0.17610  0.27067  0.93838  1.0000
  C   C208      1.0  0.49626  0.34724  0.86311  1.0000
  C   C209      1.0  0.29701  0.37908  0.75836  1.0000
  H   H197      1.0  0.17026  0.20082  0.79023  1.0000
  C   C210      1.0  0.56081  0.14351  0.73652  1.0000
  C   C211      1.0  0.09569  0.28851  0.84632  1.0000
  H   H198      1.0  0.44100  0.32305  0.84809  1.0000
  C   C212      1.0  0.08687  0.16560  0.73624  1.0000
  C   C213      1.0  0.54117  0.40515  0.93103  1.0000
  C   C214      1.0  0.54944  0.41686  0.73030  1.0000
  C   C215      1.0  0.45864  0.09551  0.92897  1.0000
  H   H199      1.0  0.30831  0.38032  0.78988  1.0000
  C   C216      1.0  0.39797  0.31185  0.78164  1.0000
  H   H200      1.0  0.18511  0.17282  0.72605  1.0000
  C   C217      1.0  0.13195  0.15405  0.80462  1.0000
  C   C218      1.0  0.25525  0.13706  0.74276  1.0000
  C   C219      1.0  0.20488  0.51826  0.89524  1.0000
  C   C220      1.0  0.22482  0.34927  0.84815  1.0000
  H   H201      1.0  0.07773  0.13736  0.79973  1.0000
  H   H202      1.0  0.34297  0.47911  0.71979  1.0000
  H   H203      1.0  0.21565  0.52319  0.86173  1.0000
  S   S29       1.0  0.29860  0.15885  0.84687  1.0000
  C   C221      1.0  0.27858  0.35571  0.75448  1.0000
  C   C222      1.0  0.54826  0.43367  0.76733  1.0000
  C   C223      1.0  0.31166  0.47417  0.77651  1.0000
  H   H204      1.0  0.51962  0.40780  0.91889  1.0000
  C   C224      1.0  0.07892  0.45950  0.75704  1.0000
  H   H205      1.0  0.22840  0.08003  0.94147  1.0000
  C   C225      1.0  0.11885  0.52677  0.71362  1.0000
  H   H206      1.0  0.08996  0.26584  0.85519  1.0000
  S   S30       1.0  0.16945  0.06238  0.95289  1.0000
  C   C226      1.0  0.10307  0.53428  0.91488  1.0000
  C   C227      1.0  0.36104  0.48939  0.78276  1.0000
  H   H207      1.0  0.11280  0.18844  0.83994  1.0000
  H   H208      1.0  0.52657  0.11735  0.77029  1.0000
  H   H209      1.0  0.48317  0.14510  0.82531  1.0000
  H   H210      1.0  0.23710  0.35421  0.87708  1.0000
  C   C228      1.0  0.34237  0.11994  0.84784  1.0000
  Fe  Fe17      1.0  0.08861  0.04767  0.84560  1.0000
  H   H211      1.0  0.24737  0.43135  0.91900  1.0000
  H   H212      1.0  0.51235  0.06565  0.77891  1.0000
  C   C229      1.0  0.48700  0.35965  0.82031  1.0000
  Fe  Fe18      1.0  0.28848  0.20314  0.81324  1.0000
  C   C230      1.0  0.13742  0.40294  0.94718  1.0000
  C   C231      1.0  0.43599  0.31936  0.72279  1.0000
  H   H213      1.0  0.29853  0.17182  0.93597  1.0000
  H   H214      1.0  0.20760  0.39251  0.83566  1.0000
  C   C232      1.0  0.30989  0.06486  0.73217  1.0000
  H   H215      1.0  0.30728  0.07692  0.80192  1.0000
  H   H216      1.0  0.45293  0.44467  0.84472  1.0000
  C   C233      1.0  0.43346  0.29037  0.71342  1.0000
  C   C234      1.0  0.56333  0.39005  0.73467  1.0000
  C   C235      1.0  0.45111  0.24599  0.91256  1.0000
  C   C236      1.0  0.50507  0.18216  0.93171  1.0000
  C   C237      1.0  0.09827  0.43524  0.92361  1.0000
  C   C238      1.0  0.32914  0.48374  0.85056  1.0000
  C   C239      1.0  0.39633  0.28259  0.77443  1.0000
  S   S31       1.0  0.17022  0.39112  0.75972  1.0000
  C   C240      1.0  0.20821  0.37095  0.82471  1.0000
  H   H217      1.0  0.11690  0.36950  0.81662  1.0000
  C   C241      1.0  0.15490  0.11608  0.85431  1.0000
  C   C242      1.0  0.12348  0.54230  0.75110  1.0000
  C   C243      1.0  0.25070  0.08863  0.78311  1.0000
  C   C244      1.0  0.12462  0.16825  0.84342  1.0000
  H   H218      1.0  0.54718  0.15473  0.71129  1.0000
  C   C245      1.0  0.41802  0.33012  0.75621  1.0000
  C   C246      1.0  0.22650  0.05843  0.93103  1.0000
  H   H219      1.0  0.41890  0.08837  0.89653  1.0000
  C   C247      1.0  0.22418  0.12842  0.81105  1.0000
  Fe  Fe19      1.0  0.06430  0.05647  0.94161  1.0000
  S   S32       1.0  0.06483  0.34751  0.94375  1.0000
  H   H220      1.0  0.46499  0.28489  0.80786  1.0000
  H   H221      1.0  0.11829  0.44544  0.72589  1.0000
  H   H222      1.0  0.14796  0.29064  0.76328  1.0000
  S   S33       1.0  0.23792  0.44049  0.74077  1.0000
  H   H223      1.0  0.08314  0.48231  0.74705  1.0000
  S   S34       1.0  0.24881  0.29539  0.86076  1.0000
  S   S35       1.0  0.24353  0.22004  0.81336  1.0000
  S   S36       1.0  0.17748  0.47199  0.71050  1.0000
  C   C248      1.0  0.38213  0.16016  0.80398  1.0000
  H   H224      1.0  0.26381  0.15210  0.71473  1.0000
  C   C249      1.0  0.29119  0.18993  0.95349  1.0000
  H   H225      1.0  0.16165  0.38692  0.89049  1.0000
  C   C250      1.0  0.08300  0.33761  0.81493  1.0000
  C   C251      1.0  0.08801  0.51212  0.84800  1.0000
  S   S37       1.0  0.55040  0.28480  0.82975  1.0000
  H   H226      1.0  0.38088  0.26830  0.79422  1.0000
  C   C252      1.0  0.31450  0.06094  0.77970  1.0000
  S   S38       1.0  0.26696  0.27344  0.73700  1.0000
  H   H227      1.0  0.41975  0.35266  0.76260  1.0000
  C   C253      1.0  0.26363  0.10786  0.74763  1.0000
  C   C254      1.0  0.48937  0.15545  0.85506  1.0000
  C   C255      1.0  0.47043  0.17453  0.87429  1.0000
  C   C256      1.0  0.11611  0.23159  0.72649  1.0000
  C   C257      1.0  0.56124  0.42408  0.80880  1.0000
  C   C258      1.0  0.43851  0.26814  0.93556  1.0000
  C   C259      1.0  0.45741  0.28001  0.84343  1.0000
  H   H228      1.0  0.24907  0.33629  0.71183  1.0000
  S   S39       1.0  0.45795  0.38360  0.81958  1.0000
  H   H229      1.0  0.25162  0.13654  0.94983  1.0000
  C   C260      1.0  0.51973  0.32858  0.78208  1.0000
  C   C261      1.0  0.13323  0.15694  0.88700  1.0000
  H   H230      1.0  0.21416  0.16991  0.91663  1.0000
  C   C262      1.0  0.06523  0.32906  0.71233  1.0000
  H   H231      1.0  0.37713  0.08940  0.85011  1.0000
  C   C263      1.0  0.30052  0.40111  0.72181  1.0000
  C   C264      1.0  0.14368  0.26801  0.75954  1.0000
  C   C265      1.0  0.39308  0.20936  0.92732  1.0000
  H   H232      1.0  0.47202  0.17546  0.74215  1.0000
  C   C266      1.0  0.21080  0.15842  0.95081  1.0000
  C   C267      1.0  0.15627  0.21723  0.77398  1.0000
  C   C268      1.0  0.19218  0.36460  0.78746  1.0000
  C   C269      1.0  0.23546  0.42524  0.95112  1.0000
  H   H233      1.0  0.34488  0.31331  0.73473  1.0000
  H   H234      1.0  0.15468  0.12190  0.92654  1.0000
  H   H235      1.0  0.38384  0.32038  0.80708  1.0000
  H   H236      1.0  0.52236  0.31432  0.89872  1.0000
  C   C270      1.0  0.43494  0.29586  0.91231  1.0000
  S   S40       1.0  0.43222  0.06261  0.72264  1.0000
  C   C271      1.0  0.52362  0.16251  0.91313  1.0000
  H   H237      1.0  0.21188  0.29410  0.78359  1.0000
  C   C272      1.0  0.49917  0.35082  0.77968  1.0000
  C   C273      1.0  0.49195  0.50299  0.86847  1.0000
  Fe  Fe20      1.0  0.19121  0.43460  0.75985  1.0000
  Fe  Fe21      1.0  0.30991  0.25285  0.74173  1.0000
  H   H238      1.0  0.28231  0.28265  0.94404  1.0000
  C   C274      1.0  0.12153  0.26070  0.73201  1.0000
  H   H239      1.0  0.31454  0.41943  0.72503  1.0000
  S   S41       1.0  0.29298  0.20847  0.73714  1.0000
  H   H240      1.0  0.41287  0.24893  0.73650  1.0000
  C   C275      1.0  0.49910  0.25527  0.73008  1.0000
  C   C276      1.0  0.51023  0.04871  0.80761  1.0000
  C   C277      1.0  0.16308  0.52218  0.94626  1.0000
  H   H241      1.0  0.54050  0.50667  0.73398  1.0000
  S   S42       1.0  0.45894  0.45296  0.73698  1.0000
  H   H242      1.0  0.10913  0.27774  0.71377  1.0000
  C   C278      1.0  0.38857  0.14883  0.94131  1.0000
  C   C279      1.0  0.06970  0.14702  0.76720  1.0000
  H   H243      1.0  0.07330  0.31190  0.73635  1.0000
  H   H244      1.0  0.43331  0.14888  0.95497  1.0000
  H   H245      1.0  0.49752  0.46710  0.95580  1.0000
  H   H246      1.0  0.21790  0.30272  0.94491  1.0000
  H   H247      1.0  0.24041  0.24247  0.94667  1.0000
  C   C280      1.0  0.17292  0.29233  0.94830  1.0000
  Fe  Fe22      1.0  0.12798  0.04631  0.92799  1.0000
  C   C281      1.0  0.14530  0.30221  0.95761  1.0000
  C   C282      1.0  0.46608  0.21884  0.70923  1.0000
  H   H248      1.0  0.36223  0.36367  0.70904  1.0000
  C   C283      1.0  0.32339  0.14428  0.70830  1.0000
  C   C284      1.0  0.27745  0.48398  0.12831  1.0000
  C   C285      1.0  0.48307  0.20942  0.09005  1.0000
  H   H249      1.0  0.28046  0.38285  0.20434  1.0000
  C   C286      1.0  0.41595  0.09468  0.15091  1.0000
  C   C287      1.0  0.53878  0.47177  0.98546  1.0000
  H   H250      1.0  0.33251  0.17117  0.11121  1.0000
  H   H251      1.0  0.49116  0.20843  0.12459  1.0000
  C   C288      1.0  0.42961  0.35096  0.16096  1.0000
  H   H252      1.0  0.40553  0.11464  0.15820  1.0000
  Fe  Fe23      1.0  0.06717  0.23812  0.99608  1.0000
  C   C289      1.0  0.15886  0.10394  0.11295  1.0000
  C   C290      1.0  0.43140  0.06894  0.00945  1.0000
  C   C291      1.0  0.11595  0.38115  0.13725  1.0000
  H   H253      1.0  0.37320  0.54039  0.97702  1.0000
  C   C292      1.0  0.49276  0.23096  0.05562  1.0000
  C   C293      1.0  0.51141  0.45968  0.98361  1.0000
  H   H254      1.0  0.33044  0.43656  0.06818  1.0000
  H   H255      1.0  0.54249  0.53507  0.01096  1.0000
  C   C294      1.0  0.36631  0.32569  0.14249  1.0000
  C   C295      1.0  0.14626  0.46602  0.19232  1.0000
  H   H256      1.0  0.08555  0.45298  0.04912  1.0000
  C   C296      1.0  0.25801  0.22935  0.96047  1.0000
  C   C297      1.0  0.26909  0.25799  0.09187  1.0000
  H   H257      1.0  0.16222  0.20972  0.02799  1.0000
  C   C298      1.0  0.45620  0.35670  0.17879  1.0000
  C   C299      1.0  0.41636  0.52638  0.08742  1.0000
  C   C300      1.0  0.46005  0.07808  0.01038  1.0000
  C   C301      1.0  0.54171  0.43042  0.15879  1.0000
  C   C302      1.0  0.23139  0.42271  0.03414  1.0000
  C   C303      1.0  0.31647  0.32826  0.16841  1.0000
  S   S43       1.0  0.17003  0.25403  0.18429  1.0000
  C   C304      1.0  0.37886  0.12903  0.05551  1.0000
  C   C305      1.0  0.54622  0.44196  0.05785  1.0000
  C   C306      1.0  0.08118  0.11749  0.98770  1.0000
  C   C307      1.0  0.46284  0.18903  0.08006  1.0000
  H   H258      1.0  0.18902  0.39502  0.18788  1.0000
  P   P10       1.0  0.25483  0.26210  0.03505  1.0000
  C   C308      1.0  0.50614  0.09966  0.06361  1.0000
  H   H259      1.0  0.18218  0.16096  0.13848  1.0000
  H   H260      1.0  0.45494  0.17274  0.10710  1.0000
  C   C309      1.0  0.50189  0.43783  0.01760  1.0000
  H   H261      1.0  0.50820  0.24696  0.06379  1.0000
  C   C310      1.0  0.29668  0.53227  0.10360  1.0000
  C   C311      1.0  0.15014  0.10423  0.15949  1.0000
  C   C312      1.0  0.39318  0.50825  0.08122  1.0000
  H   H262      1.0  0.25258  0.32053  0.06582  1.0000
  C   C313      1.0  0.29868  0.50516  0.13014  1.0000
  H   H263      1.0  0.07023  0.50834  0.17157  1.0000
  H   H264      1.0  0.36634  0.09579  0.01407  1.0000
  S   S44       1.0  0.07988  0.27665  0.03099  1.0000
  C   C314      1.0  0.14124  0.38294  0.04804  1.0000
  H   H265      1.0  0.09274  0.47128  0.12379  1.0000
  H   H266      1.0  0.12076  0.42754  0.12869  1.0000
  H   H267      1.0  0.53174  0.50825  0.17775  1.0000
  C   C315      1.0  0.46260  0.21087  0.00044  1.0000
  C   C316      1.0  0.11764  0.27979  0.19745  1.0000
  C   C317      1.0  0.25285  0.24460  0.12979  1.0000
  H   H268      1.0  0.10655  0.38050  0.17185  1.0000
  C   C318      1.0  0.54789  0.41266  0.19932  1.0000
  C   C319      1.0  0.31608  0.41123  0.18055  1.0000
  C   C320      1.0  0.25099  0.51719  0.07591  1.0000
  C   C321      1.0  0.13674  0.40870  0.06862  1.0000
  S   S45       1.0  0.54330  0.13814  0.17486  1.0000
  C   C322      1.0  0.49927  0.12865  0.04914  1.0000
  H   H269      1.0  0.07816  0.22841  0.12383  1.0000
  H   H270      1.0  0.51330  0.07328  0.19950  1.0000
  H   H271      1.0  0.54054  0.07105  0.08793  1.0000
  H   H272      1.0  0.48418  0.14287  0.15780  1.0000
  C   C323      1.0  0.11813  0.23832  0.15370  1.0000
  C   C324      1.0  0.17657  0.41437  0.18906  1.0000
  C   C325      1.0  0.12394  0.40773  0.11280  1.0000
  H   H273      1.0  0.42039  0.05813  0.03986  1.0000
  S   S46       1.0  0.52931  0.28105  0.16670  1.0000
  H   H274      1.0  0.51485  0.17283  0.03721  1.0000
  Fe  Fe24      1.0  0.32407  0.05578  0.99694  1.0000
  H   H275      1.0  0.19459  0.40069  0.06676  1.0000
  C   C326      1.0  0.24675  0.43096  0.99282  1.0000
  H   H276      1.0  0.13620  0.33605  0.05861  1.0000
  C   C327      1.0  0.11372  0.41977  0.95844  1.0000
  C   C328      1.0  0.27229  0.53838  0.07729  1.0000
  H   H277      1.0  0.41029  0.35772  0.17840  1.0000
  Fe  Fe25      1.0  0.17897  0.53264  0.15363  1.0000
  H   H278      1.0  0.47808  0.45782  0.19393  1.0000
  C   C329      1.0  0.16699  0.46364  0.15712  1.0000
  H   H279      1.0  0.31019  0.27715  0.06910  1.0000
  C   C330      1.0  0.26117  0.32243  0.03066  1.0000
  C   C331      1.0  0.38404  0.24242  0.03926  1.0000
  H   H280      1.0  0.10659  0.42060  0.99381  1.0000
  H   H281      1.0  0.33293  0.34787  0.10256  1.0000
  H   H282      1.0  0.20542  0.06558  0.17436  1.0000
  C   C332      1.0  0.09758  0.48529  0.09236  1.0000
  H   H283      1.0  0.14581  0.09360  0.04604  1.0000
  C   C333      1.0  0.26796  0.35009  0.00851  1.0000
  P   P11       1.0  0.39373  0.33036  0.09711  1.0000
  H   H284      1.0  0.21065  0.06837  0.02599  1.0000
  C   C334      1.0  0.06691  0.49124  0.19935  1.0000
  C   C335      1.0  0.27978  0.35334  0.96366  1.0000
  H   H285      1.0  0.20921  0.29850  0.07087  1.0000
  C   C336      1.0  0.37004  0.29273  0.04024  1.0000
  Fe  Fe26      1.0  0.38393  0.17754  0.17934  1.0000
  C   C337      1.0  0.18194  0.43774  0.15528  1.0000
  C   C338      1.0  0.48017  0.33519  0.11612  1.0000
  H   H286      1.0  0.38022  0.39090  0.10687  1.0000
  C   C339      1.0  0.52031  0.15042  0.04698  1.0000
  H   H287      1.0  0.30460  0.05315  0.08152  1.0000
  H   H288      1.0  0.49582  0.09839  0.96926  1.0000
  C   C340      1.0  0.38921  0.36162  0.05534  1.0000
  C   C341      1.0  0.32010  0.13898  0.06738  1.0000
  C   C342      1.0  0.45313  0.07005  0.10982  1.0000
  H   H289      1.0  0.23088  0.23775  0.12640  1.0000
  H   H290      1.0  0.10079  0.48281  0.97689  1.0000
  H   H291      1.0  0.28901  0.40580  0.05779  1.0000
  C   C343      1.0  0.22745  0.12454  0.01334  1.0000
  C   C344      1.0  0.33990  0.15477  0.08993  1.0000
  C   C345      1.0  0.17673  0.50444  0.98108  1.0000
  C   C346      1.0  0.47363  0.09151  0.96974  1.0000
  C   C347      1.0  0.54837  0.14346  0.05869  1.0000
  C   C348      1.0  0.55647  0.46248  0.02192  1.0000
  C   C349      1.0  0.53442  0.09295  0.07591  1.0000
  H   H292      1.0  0.34936  0.26236  0.00077  1.0000
  H   H293      1.0  0.07280  0.33874  0.04057  1.0000
  C   C350      1.0  0.39409  0.38479  0.97635  1.0000
  C   C351      1.0  0.36927  0.15026  0.08282  1.0000
  H   H294      1.0  0.49981  0.32850  0.09953  1.0000
  C   C352      1.0  0.29738  0.26677  0.09792  1.0000
  C   C353      1.0  0.41669  0.07298  0.96853  1.0000
  C   C354      1.0  0.18098  0.14718  0.02024  1.0000
  H   H295      1.0  0.16530  0.10910  0.18485  1.0000
  C   C355      1.0  0.26045  0.14005  0.16783  1.0000
  H   H296      1.0  0.24005  0.42690  0.06669  1.0000
  H   H297      1.0  0.26736  0.44179  0.99310  1.0000
  C   C356      1.0  0.40485  0.06796  0.17074  1.0000
  H   H298      1.0  0.35529  0.31014  0.02996  1.0000
  C   C357      1.0  0.29361  0.21801  0.01820  1.0000
  C   C358      1.0  0.25363  0.48997  0.10126  1.0000
  H   H299      1.0  0.13463  0.48606  0.19369  1.0000
  H   H300      1.0  0.08981  0.16778  0.15637  1.0000
  H   H301      1.0  0.21474  0.21445  0.01968  1.0000
  C   C359      1.0  0.12028  0.35545  0.11714  1.0000
  C   C360      1.0  0.13919  0.09536  0.08166  1.0000
  H   H302      1.0  0.16662  0.49909  0.01494  1.0000
  C   C361      1.0  0.48270  0.23166  0.01088  1.0000
  H   H303      1.0  0.11830  0.14335  0.99823  1.0000
  C   C362      1.0  0.29608  0.40749  0.09217  1.0000
  C   C363      1.0  0.45360  0.32941  0.09814  1.0000
  H   H304      1.0  0.47772  0.13434  0.03921  1.0000
  H   H305      1.0  0.39484  0.06536  0.96769  1.0000
  P   P12       1.0  0.15905  0.38435  0.99149  1.0000
  H   H306      1.0  0.31670  0.50031  0.15215  1.0000
  C   C364      1.0  0.11382  0.51973  0.01061  1.0000
  H   H307      1.0  0.48079  0.42823  0.01585  1.0000
  H   H308      1.0  0.12964  0.22085  0.13966  1.0000
  H   H309      1.0  0.38001  0.43487  0.05085  1.0000
  H   H310      1.0  0.29735  0.14303  0.07139  1.0000
  H   H311      1.0  0.15726  0.29168  0.08244  1.0000
  C   C365      1.0  0.21616  0.25798  0.04122  1.0000
  C   C366      1.0  0.35998  0.54619  0.09916  1.0000
  C   C367      1.0  0.55550  0.11467  0.07256  1.0000
  C   C368      1.0  0.13290  0.35630  0.07285  1.0000
  H   H312      1.0  0.51195  0.19287  0.96047  1.0000
  H   H313      1.0  0.50197  0.35226  0.17132  1.0000
  C   C369      1.0  0.38368  0.41385  0.03874  1.0000
  C   C370      1.0  0.35904  0.11236  0.03489  1.0000
  H   H314      1.0  0.13345  0.24822  0.05845  1.0000
  C   C371      1.0  0.38378  0.38885  0.07045  1.0000
  H   H315      1.0  0.54897  0.37187  0.13359  1.0000
  H   H316      1.0  0.19826  0.43593  0.12856  1.0000
  C   C372      1.0  0.40545  0.24646  0.07026  1.0000
  S   S47       1.0  0.30552  0.09879  0.01052  1.0000
  S   S48       1.0  0.39434  0.17193  0.10584  1.0000
  C   C373      1.0  0.38842  0.41180  0.99169  1.0000
  C   C374      1.0  0.21020  0.05539  0.14331  1.0000
  H   H317      1.0  0.55783  0.05911  0.00940  1.0000
  C   C375      1.0  0.11584  0.53081  0.05319  1.0000
  C   C376      1.0  0.29140  0.39458  0.17472  1.0000
  C   C377      1.0  0.20380  0.15457  0.14730  1.0000
  H   H318      1.0  0.09255  0.09710  0.99220  1.0000
  C   C378      1.0  0.20416  0.49376  0.97292  1.0000
  H   H319      1.0  0.21015  0.19122  0.18563  1.0000
  C   C379      1.0  0.07402  0.26519  0.16271  1.0000
  C   C380      1.0  0.40933  0.27352  0.08604  1.0000
  H   H320      1.0  0.55213  0.31282  0.97945  1.0000
  H   H321      1.0  0.47699  0.25521  0.14077  1.0000
  C   C381      1.0  0.20257  0.23235  0.03100  1.0000
  C   C382      1.0  0.24793  0.16451  0.18411  1.0000
  C   C383      1.0  0.20512  0.40818  0.03394  1.0000
  H   H322      1.0  0.32159  0.09175  0.12654  1.0000
  H   H323      1.0  0.43029  0.24547  0.18319  1.0000
  C   C384      1.0  0.36641  0.26564  0.02400  1.0000
  C   C385      1.0  0.31999  0.42456  0.09802  1.0000
  P   P13       1.0  0.19620  0.10833  0.09544  1.0000
  S   S49       1.0  0.17558  0.49324  0.11662  1.0000
  C   C386      1.0  0.51673  0.44727  0.15771  1.0000
  H   H324      1.0  0.43071  0.26376  0.97106  1.0000
  C   C387      1.0  0.19267  0.33806  0.96613  1.0000
  S   S50       1.0  0.18107  0.33830  0.17631  1.0000
  H   H325      1.0  0.30369  0.22141  0.04991  1.0000
  S   S51       1.0  0.36203  0.44599  0.14579  1.0000
  H   H326      1.0  0.51134  0.41226  0.08104  1.0000
  C   C388      1.0  0.10807  0.51346  0.09395  1.0000
  C   C389      1.0  0.21966  0.17189  0.17368  1.0000
  Fe  Fe27      1.0  0.22819  0.34652  0.17988  1.0000
  C   C390      1.0  0.20156  0.12744  0.03841  1.0000
  H   H327      1.0  0.43813  0.51861  0.08394  1.0000
  H   H328      1.0  0.40157  0.12547  0.05019  1.0000
  C   C391      1.0  0.16983  0.27569  0.06642  1.0000
  C   C392      1.0  0.30958  0.26134  0.14096  1.0000
  H   H329      1.0  0.09616  0.08068  0.07247  1.0000
  H   H330      1.0  0.23679  0.47384  0.10093  1.0000
  H   H331      1.0  0.21139  0.35131  0.96953  1.0000
  C   C393      1.0  0.33825  0.33543  0.13478  1.0000
  H   H332      1.0  0.38068  0.22106  0.02824  1.0000
  H   H333      1.0  0.23189  0.52217  0.05652  1.0000
  C   C394      1.0  0.36508  0.51817  0.08651  1.0000
  C   C395      1.0  0.10253  0.08821  0.14281  1.0000
  C   C396      1.0  0.39493  0.35983  0.00809  1.0000
  H   H334      1.0  0.11401  0.33480  0.13603  1.0000
  C   C397      1.0  0.37210  0.30862  0.18400  1.0000
  C   C398      1.0  0.10237  0.49177  0.00932  1.0000
  C   C399      1.0  0.39194  0.29699  0.07076  1.0000
  C   C400      1.0  0.21600  0.12950  0.13191  1.0000
  C   C401      1.0  0.21328  0.05712  0.06002  1.0000
  H   H335      1.0  0.24422  0.11045  0.02750  1.0000
  C   C402      1.0  0.24461  0.12262  0.14161  1.0000
  H   H336      1.0  0.42525  0.27578  0.11137  1.0000
  H   H337      1.0  0.49107  0.24803  0.98431  1.0000
  C   C403      1.0  0.49494  0.27793  0.19325  1.0000
  C   C404      1.0  0.29317  0.24843  0.17871  1.0000
  C   C405      1.0  0.54582  0.38498  0.96934  1.0000
  H   H338      1.0  0.26363  0.36908  0.02595  1.0000
  P   P14       1.0  0.47952  0.07118  0.06270  1.0000
  C   C406      1.0  0.44673  0.25788  0.19751  1.0000
  C   C407      1.0  0.26985  0.23440  0.00250  1.0000
  C   C408      1.0  0.42809  0.33666  0.12105  1.0000
  C   C409      1.0  0.23183  0.13959  0.96939  1.0000
  H   H339      1.0  0.16148  0.15089  0.03990  1.0000
  H   H340      1.0  0.27937  0.46296  0.14816  1.0000
  H   H341      1.0  0.28252  0.13476  0.17546  1.0000
  H   H342      1.0  0.06978  0.18063  0.07954  1.0000
  S   S52       1.0  0.09949  0.20309  0.98680  1.0000
  C   C410      1.0  0.28157  0.39255  0.13027  1.0000
  H   H343      1.0  0.11156  0.52142  0.12682  1.0000
  C   C411      1.0  0.18560  0.16257  0.97655  1.0000
  C   C412      1.0  0.12201  0.09656  0.17425  1.0000
  C   C413      1.0  0.09403  0.47472  0.05006  1.0000
  C   C414      1.0  0.19950  0.27933  0.06002  1.0000
  H   H344      1.0  0.39690  0.48625  0.07320  1.0000
  H   H345      1.0  0.21449  0.48040  0.00023  1.0000
  H   H346      1.0  0.55456  0.10950  0.97117  1.0000
  C   C415      1.0  0.26540  0.29771  0.00749  1.0000
  H   H347      1.0  0.43688  0.17362  0.02877  1.0000
  H   H348      1.0  0.41840  0.22833  0.08356  1.0000
  H   H349      1.0  0.54610  0.48864  0.95894  1.0000
  H   H350      1.0  0.39333  0.29993  0.19013  1.0000
  H   H351      1.0  0.29462  0.33474  0.16195  1.0000
  C   C416      1.0  0.32982  0.11809  0.03939  1.0000
  H   H352      1.0  0.40059  0.33939  0.99565  1.0000
  C   C417      1.0  0.48145  0.34865  0.15658  1.0000
  C   C418      1.0  0.15645  0.25094  0.05374  1.0000
  H   H353      1.0  0.16956  0.17766  0.96264  1.0000
  C   C419      1.0  0.26484  0.24014  0.17310  1.0000
  C   C420      1.0  0.08898  0.24249  0.14495  1.0000
  C   C421      1.0  0.17279  0.22919  0.03642  1.0000
  C   C422      1.0  0.30180  0.05070  0.11857  1.0000
  H   H354      1.0  0.25485  0.10410  0.12835  1.0000
  H   H355      1.0  0.52794  0.37273  0.98648  1.0000
  C   C423      1.0  0.20885  0.07140  0.09963  1.0000
  C   C424      1.0  0.27823  0.30110  0.96290  1.0000
  H   H356      1.0  0.32306  0.18401  0.00465  1.0000
  S   S53       1.0  0.25201  0.37092  0.12002  1.0000
  C   C425      1.0  0.09579  0.14368  0.99086  1.0000
  C   C426      1.0  0.33043  0.42607  0.14191  1.0000
  C   C427      1.0  0.47317  0.26316  0.17366  1.0000
  C   C428      1.0  0.08131  0.17019  0.98388  1.0000
  H   H357      1.0  0.34764  0.50368  0.08105  1.0000
  H   H358      1.0  0.08099  0.08143  0.15449  1.0000
  H   H359      1.0  0.14358  0.42952  0.05086  1.0000
  H   H360      1.0  0.52580  0.20051  0.19196  1.0000
  C   C429      1.0  0.44001  0.09580  0.12076  1.0000
  C   C430      1.0  0.56245  0.29343  0.99520  1.0000
  C   C431      1.0  0.31096  0.07268  0.14378  1.0000
  C   C432      1.0  0.51929  0.42883  0.05443  1.0000
  C   C433      1.0  0.13275  0.25755  0.17855  1.0000
  C   C434      1.0  0.45257  0.18972  0.03549  1.0000
  C   C435      1.0  0.16492  0.34826  0.97505  1.0000
  H   H361      1.0  0.45297  0.31907  0.06670  1.0000
  C   C436      1.0  0.30449  0.19628  0.99314  1.0000
  C   C437      1.0  0.49744  0.44503  0.19552  1.0000
  H   H362      1.0  0.33168  0.26735  0.14522  1.0000
  C   C438      1.0  0.19317  0.40308  0.99203  1.0000
  H   H363      1.0  0.44754  0.11678  0.10488  1.0000
  H   H364      1.0  0.54331  0.29635  0.06300  1.0000
  C   C439      1.0  0.11109  0.08771  0.09657  1.0000
  C   C440      1.0  0.30662  0.07000  0.19146  1.0000
  H   H365      1.0  0.51202  0.46229  0.12783  1.0000
  H   H366      1.0  0.38606  0.06729  0.19384  1.0000
  H   H367      1.0  0.11977  0.33785  0.97635  1.0000
  C   C441      1.0  0.14129  0.33027  0.96992  1.0000
  C   C442      1.0  0.55747  0.28418  0.04206  1.0000
  C   C443      1.0  0.08818  0.28334  0.19009  1.0000
  H   H368      1.0  0.25191  0.23069  0.20247  1.0000
  C   C444      1.0  0.07020  0.15743  0.14755  1.0000
  C   C445      1.0  0.48622  0.13498  0.19375  1.0000
  C   C446      1.0  0.54578  0.51568  0.20288  1.0000
  H   H369      1.0  0.22282  0.47389  0.19668  1.0000
  H   H370      1.0  0.07676  0.30095  0.20385  1.0000
  H   H371      1.0  0.38796  0.43119  0.96717  1.0000
  P   P15       1.0  0.12902  0.53873  0.95812  1.0000
  S   S54       1.0  0.23686  0.30041  0.20617  1.0000
  H   H372      1.0  0.26027  0.17780  0.20462  1.0000
  C   C447      1.0  0.25883  0.21775  0.29516  1.0000
  S   S55       1.0  0.41583  0.47868  0.31891  1.0000
  C   C448      1.0  0.14101  0.13308  0.42654  1.0000
  C   C449      1.0  0.55010  0.40620  0.36755  1.0000
  H   H373      1.0  0.25067  0.10830  0.38335  1.0000
  C   C450      1.0  0.47462  0.05190  0.22820  1.0000
  H   H374      1.0  0.26858  0.37577  0.40167  1.0000
  H   H375      1.0  0.06536  0.13060  0.21239  1.0000
  C   C451      1.0  0.22547  0.48506  0.40753  1.0000
  C   C452      1.0  0.54414  0.06424  0.34958  1.0000
  H   H376      1.0  0.07317  0.54325  0.31572  1.0000
  H   H377      1.0  0.12415  0.44392  0.25232  1.0000
  H   H378      1.0  0.44916  0.38003  0.43696  1.0000
  H   H379      1.0  0.28177  0.20097  0.39867  1.0000
  H   H380      1.0  0.09325  0.04639  0.33183  1.0000
  C   C453      1.0  0.19490  0.38440  0.36422  1.0000
  H   H381      1.0  0.54500  0.49178  0.43743  1.0000
  C   C454      1.0  0.07673  0.28957  0.34598  1.0000
  S   S56       1.0  0.29638  0.17379  0.28231  1.0000
  C   C455      1.0  0.56212  0.51212  0.28137  1.0000
  C   C456      1.0  0.48728  0.17624  0.41112  1.0000
  H   H382      1.0  0.08134  0.21349  0.35586  1.0000
  H   H383      1.0  0.30807  0.27602  0.40295  1.0000
  S   S57       1.0  0.13337  0.21922  0.43334  1.0000
  C   C457      1.0  0.46185  0.37550  0.32262  1.0000
  C   C458      1.0  0.42487  0.44846  0.45271  1.0000
  C   C459      1.0  0.26657  0.07856  0.33691  1.0000
  C   C460      1.0  0.11663  0.39998  0.37763  1.0000
  H   H384      1.0  0.43360  0.43262  0.43149  1.0000
  H   H385      1.0  0.47182  0.24829  0.34189  1.0000
  H   H386      1.0  0.40684  0.05932  0.31600  1.0000
  H   H387      1.0  0.19022  0.46647  0.33658  1.0000
  S   S58       1.0  0.55521  0.33846  0.24090  1.0000
  C   C461      1.0  0.20624  0.46075  0.31155  1.0000
  C   C462      1.0  0.12059  0.22425  0.31808  1.0000
  H   H388      1.0  0.09119  0.51282  0.24585  1.0000
  C   C463      1.0  0.09644  0.44859  0.37043  1.0000
  H   H389      1.0  0.08485  0.27175  0.36904  1.0000
  C   C464      1.0  0.30291  0.28992  0.42948  1.0000
  H   H390      1.0  0.50371  0.51589  0.30889  1.0000
  H   H391      1.0  0.24628  0.07782  0.22612  1.0000
  C   C465      1.0  0.54619  0.43611  0.36724  1.0000
  C   C466      1.0  0.51605  0.11893  0.25770  1.0000
  P   P16       1.0  0.51172  0.20460  0.38612  1.0000
  H   H392      1.0  0.53708  0.11525  0.27142  1.0000
  C   C467      1.0  0.14029  0.44219  0.22545  1.0000
  C   C468      1.0  0.28736  0.20864  0.29605  1.0000
  C   C469      1.0  0.54702  0.20004  0.25615  1.0000
  C   C470      1.0  0.46446  0.27909  0.39037  1.0000
  Fe  Fe28      1.0  0.37180  0.49010  0.29550  1.0000
  C   C471      1.0  0.12562  0.40358  0.42173  1.0000
  C   C472      1.0  0.31853  0.44343  0.38940  1.0000
  C   C473      1.0  0.40021  0.46385  0.43957  1.0000
  H   H393      1.0  0.40843  0.32620  0.36089  1.0000
  C   C474      1.0  0.54364  0.20125  0.30364  1.0000
  P   P17       1.0  0.08043  0.47923  0.33660  1.0000
  H   H394      1.0  0.19292  0.39660  0.33062  1.0000
  C   C475      1.0  0.38447  0.05583  0.30929  1.0000
  H   H395      1.0  0.22131  0.52891  0.42508  1.0000
  C   C476      1.0  0.13960  0.21760  0.28294  1.0000
  C   C477      1.0  0.24765  0.08438  0.26038  1.0000
  C   C478      1.0  0.25574  0.54260  0.31494  1.0000
  Fe  Fe29      1.0  0.42988  0.48655  0.24504  1.0000
  H   H396      1.0  0.24218  0.20310  0.28675  1.0000
  H   H397      1.0  0.35303  0.41274  0.39755  1.0000
  H   H398      1.0  0.37240  0.36607  0.43072  1.0000
  C   C479      1.0  0.52801  0.50330  0.37007  1.0000
  C   C480      1.0  0.09507  0.53872  0.32465  1.0000
  H   H399      1.0  0.22794  0.19004  0.39425  1.0000
  H   H400      1.0  0.15448  0.11916  0.40810  1.0000
  H   H401      1.0  0.45823  0.29498  0.28926  1.0000
  H   H402      1.0  0.47739  0.20374  0.22753  1.0000
  C   C481      1.0  0.31268  0.52636  0.33076  1.0000
  C   C482      1.0  0.31594  0.17004  0.39897  1.0000
  H   H403      1.0  0.31877  0.35508  0.28212  1.0000
  P   P18       1.0  0.36060  0.30490  0.42364  1.0000
  C   C483      1.0  0.30181  0.25595  0.31630  1.0000
  H   H404      1.0  0.14741  0.19118  0.22784  1.0000
  S   S59       1.0  0.42129  0.18599  0.22149  1.0000
  H   H405      1.0  0.19612  0.22525  0.35192  1.0000
  Fe  Fe30      1.0  0.18930  0.29353  0.20980  1.0000
  C   C484      1.0  0.27084  0.52716  0.28325  1.0000
  Fe  Fe31      1.0  0.23077  0.31504  0.27628  1.0000
  H   H406      1.0  0.34800  0.13669  0.40779  1.0000
  S   S60       1.0  0.36678  0.14056  0.22862  1.0000
  C   C485      1.0  0.07303  0.47212  0.27888  1.0000
  H   H407      1.0  0.16131  0.17242  0.39418  1.0000
  C   C486      1.0  0.46574  0.12846  0.40987  1.0000
  Fe  Fe32      1.0  0.34296  0.17533  0.26169  1.0000
  H   H408      1.0  0.23658  0.49205  0.37497  1.0000
  C   C487      1.0  0.09501  0.20853  0.32716  1.0000
  C   C488      1.0  0.49139  0.11315  0.28632  1.0000
  C   C489      1.0  0.21964  0.45543  0.42095  1.0000
  H   H409      1.0  0.45932  0.52572  0.35161  1.0000
  H   H410      1.0  0.44086  0.13225  0.20805  1.0000
  H   H411      1.0  0.31127  0.50715  0.26681  1.0000
  S   S61       1.0  0.38669  0.50165  0.22208  1.0000
  H   H412      1.0  0.46283  0.10912  0.39270  1.0000
  C   C490      1.0  0.12758  0.18165  0.44256  1.0000
  C   C491      1.0  0.36203  0.32395  0.36570  1.0000
  S   S62       1.0  0.18346  0.30555  0.28203  1.0000
  H   H413      1.0  0.16587  0.35100  0.34836  1.0000
  C   C492      1.0  0.21453  0.37756  0.44037  1.0000
  C   C493      1.0  0.56163  0.08008  0.41986  1.0000
  C   C494      1.0  0.28202  0.39498  0.39967  1.0000
  H   H414      1.0  0.54482  0.06541  0.31231  1.0000
  P   P19       1.0  0.56061  0.49416  0.33956  1.0000
  H   H415      1.0  0.32499  0.17936  0.36612  1.0000
  C   C495      1.0  0.55605  0.16889  0.41877  1.0000
  H   H416      1.0  0.46074  0.06896  0.21369  1.0000
  C   C496      1.0  0.20405  0.22967  0.38487  1.0000
  H   H417      1.0  0.25786  0.28195  0.42645  1.0000
  H   H418      1.0  0.37137  0.09769  0.32754  1.0000
  H   H419      1.0  0.10739  0.13583  0.34910  1.0000
  H   H420      1.0  0.18692  0.48675  0.25537  1.0000
  H   H421      1.0  0.15955  0.22964  0.27658  1.0000
  S   S63       1.0  0.43343  0.11745  0.30532  1.0000
  C   C497      1.0  0.07875  0.49358  0.24185  1.0000
  H   H422      1.0  0.49486  0.14856  0.35712  1.0000
  C   C498      1.0  0.48371  0.15093  0.38957  1.0000
  C   C499      1.0  0.14482  0.16328  0.41858  1.0000
  C   C500      1.0  0.45965  0.37433  0.40574  1.0000
  S   S64       1.0  0.55496  0.27224  0.29473  1.0000
  H   H423      1.0  0.40057  0.27456  0.36483  1.0000
  H   H424      1.0  0.45267  0.38186  0.28959  1.0000
  C   C501      1.0  0.10452  0.51007  0.33626  1.0000
  C   C502      1.0  0.23039  0.10717  0.27274  1.0000
  H   H425      1.0  0.10013  0.34901  0.27563  1.0000
  C   C503      1.0  0.21677  0.50615  0.43585  1.0000
  H   H426      1.0  0.09761  0.41942  0.31676  1.0000
  H   H427      1.0  0.18085  0.26974  0.38541  1.0000
  C   C504      1.0  0.49573  0.20301  0.24902  1.0000
  P   P20       1.0  0.23226  0.42820  0.38478  1.0000
  S   S65       1.0  0.14802  0.38607  0.26455  1.0000
  C   C505      1.0  0.22446  0.46490  0.23237  1.0000
  H   H428      1.0  0.49425  0.35267  0.44167  1.0000
  H   H429      1.0  0.11562  0.09596  0.21043  1.0000
  C   C506      1.0  0.50448  0.24805  0.44452  1.0000
  C   C507      1.0  0.51334  0.13035  0.21161  1.0000
  C   C508      1.0  0.36439  0.07738  0.31620  1.0000
  H   H430      1.0  0.41067  0.35208  0.28252  1.0000
  C   C509      1.0  0.18079  0.34243  0.41746  1.0000
  S   S66       1.0  0.53042  0.33058  0.37496  1.0000
  C   C510      1.0  0.39896  0.22966  0.39134  1.0000
  H   H431      1.0  0.31859  0.27076  0.32364  1.0000
  C   C511      1.0  0.33685  0.33243  0.34274  1.0000
  S   S67       1.0  0.46985  0.51206  0.22304  1.0000
  H   H432      1.0  0.38962  0.45958  0.40856  1.0000
  H   H433      1.0  0.23015  0.25384  0.30012  1.0000
  H   H434      1.0  0.12602  0.24126  0.33895  1.0000
  C   C512      1.0  0.47694  0.51481  0.41860  1.0000
  H   H435      1.0  0.31367  0.08741  0.21047  1.0000
  Fe  Fe33      1.0  0.17893  0.35137  0.24802  1.0000
  H   H436      1.0  0.54209  0.15073  0.41462  1.0000
  H   H437      1.0  0.55958  0.24294  0.40363  1.0000
  C   C513      1.0  0.47816  0.51859  0.37039  1.0000
  C   C514      1.0  0.33834  0.34842  0.29919  1.0000
  C   C515      1.0  0.29940  0.51880  0.29137  1.0000
  C   C516      1.0  0.39005  0.34665  0.29935  1.0000
  C   C517      1.0  0.44768  0.38245  0.36310  1.0000
  H   H438      1.0  0.36601  0.36773  0.24349  1.0000
  H   H439      1.0  0.26562  0.41887  0.30032  1.0000
  C   C518      1.0  0.13278  0.19574  0.25575  1.0000
  C   C519      1.0  0.27430  0.29301  0.44325  1.0000
  C   C520      1.0  0.32440  0.30612  0.44742  1.0000
  S   S68       1.0  0.18622  0.07061  0.39333  1.0000
  S   S69       1.0  0.26454  0.30053  0.32573  1.0000
  C   C521      1.0  0.23182  0.11616  0.31676  1.0000
  C   C522      1.0  0.30886  0.22791  0.30618  1.0000
  C   C523      1.0  0.13347  0.50544  0.34645  1.0000
  H   H440      1.0  0.30554  0.30647  0.23593  1.0000
  S   S70       1.0  0.41005  0.25952  0.27238  1.0000
  H   H441      1.0  0.26058  0.52163  0.25271  1.0000
  C   C524      1.0  0.10273  0.42256  0.35162  1.0000
  H   H442      1.0  0.10221  0.16314  0.24317  1.0000
  C   C525      1.0  0.20427  0.47229  0.26549  1.0000
  C   C526      1.0  0.54224  0.06129  0.44617  1.0000
  C   C527      1.0  0.20386  0.25951  0.44785  1.0000
  C   C528      1.0  0.08537  0.33322  0.29362  1.0000
  H   H443      1.0  0.16813  0.32272  0.42525  1.0000
  H   H444      1.0  0.13637  0.38602  0.44182  1.0000
  Fe  Fe34      1.0  0.55815  0.29315  0.22140  1.0000
  C   C529      1.0  0.47757  0.25463  0.37484  1.0000
  C   C530      1.0  0.49886  0.35079  0.36843  1.0000
  H   H445      1.0  0.49787  0.35301  0.29432  1.0000
  C   C531      1.0  0.49754  0.23867  0.40207  1.0000
  H   H446      1.0  0.32073  0.09063  0.31143  1.0000
  C   C532      1.0  0.54642  0.19761  0.41021  1.0000
  Fe  Fe35      1.0  0.40303  0.15069  0.27276  1.0000
  H   H447      1.0  0.45713  0.51901  0.43719  1.0000
  C   C533      1.0  0.24632  0.44541  0.24516  1.0000
  C   C534      1.0  0.09407  0.11933  0.33679  1.0000
  C   C535      1.0  0.08623  0.06873  0.32726  1.0000
  C   C536      1.0  0.27334  0.26515  0.31478  1.0000
  C   C537      1.0  0.17940  0.35843  0.37417  1.0000
  H   H448      1.0  0.30231  0.24511  0.21240  1.0000
  H   H449      1.0  0.47054  0.20420  0.31163  1.0000
  H   H450      1.0  0.31585  0.32739  0.35818  1.0000
  C   C538      1.0  0.46244  0.28572  0.25739  1.0000
  C   C539      1.0  0.15231  0.52888  0.34637  1.0000
  S   S71       1.0  0.35972  0.44430  0.28602  1.0000
  S   S72       1.0  0.34863  0.51844  0.34159  1.0000
  H   H451      1.0  0.35504  0.28893  0.24977  1.0000
  H   H452      1.0  0.39217  0.18585  0.42319  1.0000
  C   C540      1.0  0.19530  0.25473  0.40392  1.0000
  H   H453      1.0  0.31240  0.07661  0.44092  1.0000
  C   C541      1.0  0.48526  0.35890  0.40837  1.0000
  C   C542      1.0  0.32902  0.14602  0.42268  1.0000
  C   C543      1.0  0.29731  0.54138  0.36237  1.0000
  S   S73       1.0  0.22577  0.36180  0.24965  1.0000
  C   C544      1.0  0.47095  0.28770  0.43316  1.0000
  H   H454      1.0  0.17445  0.52492  0.35480  1.0000
  Fe  Fe36      1.0  0.37832  0.45477  0.21409  1.0000
  C   C545      1.0  0.21253  0.39430  0.39733  1.0000
  C   C546      1.0  0.44164  0.26862  0.23992  1.0000
  H   H455      1.0  0.53073  0.44382  0.39150  1.0000
  C   C547      1.0  0.10705  0.18021  0.26420  1.0000
  C   C548      1.0  0.49208  0.20370  0.29665  1.0000
  H   H456      1.0  0.48825  0.42528  0.26480  1.0000
  C   C549      1.0  0.25200  0.24634  0.30298  1.0000
  C   C550      1.0  0.56235  0.08178  0.37176  1.0000
  H   H457      1.0  0.21879  0.13409  0.32612  1.0000
  H   H458      1.0  0.32059  0.36981  0.40735  1.0000
  H   H459      1.0  0.12067  0.37974  0.36315  1.0000
  H   H460      1.0  0.50558  0.30191  0.24964  1.0000
  Fe  Fe37      1.0  0.15037  0.05571  0.44337  1.0000
  H   H461      1.0  0.28080  0.46903  0.37962  1.0000
  H   H462      1.0  0.28018  0.06741  0.36214  1.0000
  C   C551      1.0  0.27029  0.42303  0.39268  1.0000
  H   H463      1.0  0.53037  0.48373  0.25698  1.0000
  H   H464      1.0  0.53273  0.39626  0.26804  1.0000
  C   C552      1.0  0.12033  0.42969  0.44018  1.0000
  C   C553      1.0  0.26641  0.07036  0.29217  1.0000
  C   C554      1.0  0.51609  0.20354  0.32436  1.0000
  C   C555      1.0  0.38621  0.20846  0.42350  1.0000
  C   C556      1.0  0.46176  0.12921  0.22225  1.0000
  H   H465      1.0  0.44935  0.29155  0.36909  1.0000
  C   C557      1.0  0.32997  0.41555  0.39688  1.0000
  H   H466      1.0  0.10096  0.47182  0.43024  1.0000
  Fe  Fe38      1.0  0.39330  0.21667  0.25548  1.0000
  C   C558      1.0  0.52310  0.20130  0.22879  1.0000
  C   C559      1.0  0.36560  0.21646  0.45556  1.0000
  C   C560      1.0  0.29117  0.18202  0.41738  1.0000
  C   C561      1.0  0.24981  0.10173  0.34893  1.0000
  C   C562      1.0  0.28890  0.44721  0.38713  1.0000
  H   H467      1.0  0.35388  0.04926  0.41297  1.0000
  C   C563      1.0  0.08804  0.18630  0.30027  1.0000
  C   C564      1.0  0.54494  0.50192  0.24798  1.0000
  C   C565      1.0  0.09581  0.30993  0.32273  1.0000
  C   C566      1.0  0.22215  0.20981  0.40894  1.0000
  C   C567      1.0  0.52659  0.49962  0.41850  1.0000
  H   H468      1.0  0.33270  0.46219  0.38447  1.0000
  C   C568      1.0  0.52839  0.41049  0.23716  1.0000
  C   C569      1.0  0.24856  0.43403  0.29126  1.0000
  C   C570      1.0  0.06762  0.12670  0.31720  1.0000
  C   C571      1.0  0.35807  0.24570  0.45579  1.0000
  H   H469      1.0  0.21604  0.11798  0.24812  1.0000
  C   C572      1.0  0.36493  0.35551  0.27742  1.0000
  H   H470      1.0  0.12872  0.29450  0.21720  1.0000
  S   S74       1.0  0.15955  0.54050  0.22251  1.0000
  C   C573      1.0  0.37029  0.26708  0.42283  1.0000
  C   C574      1.0  0.50357  0.51292  0.34616  1.0000
  C   C575      1.0  0.10528  0.45186  0.41512  1.0000
  H   H471      1.0  0.14184  0.48374  0.35388  1.0000
  S   S75       1.0  0.35731  0.21165  0.20839  1.0000
  H   H472      1.0  0.33102  0.22141  0.30604  1.0000
  H   H473      1.0  0.11866  0.30778  0.32742  1.0000
  C   C576      1.0  0.22895  0.44226  0.32501  1.0000
  C   C577      1.0  0.31170  0.39138  0.40227  1.0000
  C   C578      1.0  0.50318  0.42667  0.23529  1.0000
  C   C579      1.0  0.48738  0.35927  0.32530  1.0000
  Fe  Fe39      1.0  0.55538  0.31768  0.31359  1.0000
  C   C580      1.0  0.33546  0.07297  0.30781  1.0000
  H   H474      1.0  0.41473  0.22354  0.36602  1.0000
  H   H475      1.0  0.37039  0.49691  0.45494  1.0000
  C   C581      1.0  0.50427  0.05464  0.22091  1.0000
  C   C582      1.0  0.39090  0.25878  0.39079  1.0000
  C   C583      1.0  0.31044  0.05356  0.43890  1.0000
  S   S76       1.0  0.41397  0.39911  0.36260  1.0000
  H   H476      1.0  0.49342  0.10460  0.32201  1.0000
  Fe  Fe40      1.0  0.40500  0.43355  0.30499  1.0000
  S   S77       1.0  0.37772  0.18213  0.31072  1.0000
  S   S78       1.0  0.42275  0.44017  0.23235  1.0000
  H   H477      1.0  0.12343  0.08496  0.35787  1.0000
  C   C584      1.0  0.15547  0.41626  0.22383  1.0000
  C   C585      1.0  0.46424  0.11949  0.26892  1.0000
  C   C586      1.0  0.50119  0.50543  0.44269  1.0000
  C   C587      1.0  0.10327  0.09050  0.34187  1.0000
  C   C588      1.0  0.38866  0.33152  0.34366  1.0000
  C   C589      1.0  0.48931  0.28973  0.23473  1.0000
  H   H478      1.0  0.32408  0.41236  0.21464  1.0000
  H   H479      1.0  0.53766  0.39131  0.39167  1.0000
  H   H480      1.0  0.26145  0.43895  0.21937  1.0000
  H   H481      1.0  0.46055  0.30652  0.44507  1.0000
  C   C590      1.0  0.19825  0.35206  0.45066  1.0000
  C   C591      1.0  0.23145  0.21483  0.45255  1.0000
  C   C592      1.0  0.47255  0.17867  0.45336  1.0000
  C   C593      1.0  0.38471  0.35329  0.45626  1.0000
  C   C594      1.0  0.45120  0.13107  0.45186  1.0000
  C   C595      1.0  0.56242  0.45554  0.33629  1.0000
  H   H482      1.0  0.56279  0.20073  0.32351  1.0000
  C   C596      1.0  0.32254  0.31191  0.21003  1.0000
  C   C597      1.0  0.35036  0.30200  0.21774  1.0000
  C   C598      1.0  0.32623  0.04649  0.29360  1.0000
  H   H483      1.0  0.45722  0.36714  0.21013  1.0000
  S   S79       1.0  0.55110  0.64137  0.66607  1.0000
  H   H484      1.0  0.19869  0.76681  0.64408  1.0000
  Fe  Fe41      1.0  0.53412  0.61370  0.54886  1.0000
  H   H485      1.0  0.07465  0.76072  0.47713  1.0000
  C   C599      1.0  0.52211  0.96110  0.67366  1.0000
  C   C600      1.0  0.54830  0.74500  0.64446  1.0000
  H   H486      1.0  0.36267  0.97577  0.54558  1.0000
  C   C601      1.0  0.16665  0.92932  0.67039  1.0000
  H   H487      1.0  0.46430  0.62365  0.58357  1.0000
  H   H488      1.0  0.21991  0.75345  0.53512  1.0000
  H   H489      1.0  0.27457  0.82386  0.67778  1.0000
  C   C602      1.0  0.54924  0.95771  0.69210  1.0000
  H   H490      1.0  0.28702  0.00012  0.67212  1.0000
  S   S80       1.0  0.52734  0.65984  0.56195  1.0000
  H   H491      1.0  0.07198  0.87882  0.67699  1.0000
  C   C603      1.0  0.27298  0.69723  0.70589  1.0000
  S   S81       1.0  0.17840  0.02881  0.49200  1.0000
  C   C604      1.0  0.06458  0.90722  0.56507  1.0000
  Fe  Fe42      1.0  0.29851  0.71028  0.57999  1.0000
  C   C605      1.0  0.29953  0.00642  0.59999  1.0000
  C   C606      1.0  0.42049  0.62577  0.56356  1.0000
  H   H492      1.0  0.44823  0.83377  0.69375  1.0000
  P   P21       1.0  0.12788  0.59045  0.49995  1.0000
  C   C607      1.0  0.38377  0.77474  0.63329  1.0000
  C   C608      1.0  0.08539  0.62034  0.61055  1.0000
  H   H493      1.0  0.10060  0.98566  0.55427  1.0000
  C   C609      1.0  0.11175  0.04134  0.66442  1.0000
  C   C610      1.0  0.40513  0.78439  0.52395  1.0000
  H   H494      1.0  0.22955  0.02165  0.64256  1.0000
  H   H495      1.0  0.50115  0.83582  0.69948  1.0000
  C   C611      1.0  0.36819  0.76543  0.67407  1.0000
  C   C612      1.0  0.19994  0.80890  0.66762  1.0000
  H   H496      1.0  0.27971  0.75830  0.52693  1.0000
  C   C613      1.0  0.44340  0.63228  0.59056  1.0000
  H   H497      1.0  0.23567  0.95470  0.50671  1.0000
  H   H498      1.0  0.23303  0.90135  0.68811  1.0000
  C   C614      1.0  0.29908  0.99481  0.55795  1.0000
  C   C615      1.0  0.43611  0.71784  0.54297  1.0000
  C   C616      1.0  0.47821  0.70108  0.50321  1.0000
  C   C617      1.0  0.26547  0.86523  0.63955  1.0000
  C   C618      1.0  0.12273  0.64296  0.53836  1.0000
  C   C619      1.0  0.17525  0.79844  0.59952  1.0000
  H   H499      1.0  0.47201  0.00440  0.61751  1.0000
  C   C620      1.0  0.21156  0.76733  0.50645  1.0000
  H   H500      1.0  0.28324  0.56630  0.66948  1.0000
  H   H501      1.0  0.51974  0.02302  0.59122  1.0000
  H   H502      1.0  0.12326  0.88427  0.65317  1.0000
  C   C621      1.0  0.18931  0.91492  0.69285  1.0000
  C   C622      1.0  0.21004  0.57341  0.63663  1.0000
  C   C623      1.0  0.37106  0.98462  0.57517  1.0000
  C   C624      1.0  0.23737  0.93223  0.49992  1.0000
  C   C625      1.0  0.52302  0.81660  0.49188  1.0000
  C   C626      1.0  0.25496  0.54936  0.58774  1.0000
  H   H503      1.0  0.48862  0.78412  0.59876  1.0000
  C   C627      1.0  0.28324  0.84474  0.66297  1.0000
  C   C628      1.0  0.37886  0.76993  0.52131  1.0000
  C   C629      1.0  0.21556  0.91170  0.66933  1.0000
  H   H504      1.0  0.40993  0.83189  0.57740  1.0000
  H   H505      1.0  0.14638  0.93179  0.68897  1.0000
  C   C630      1.0  0.34573  0.54981  0.49361  1.0000
  S   S82       1.0  0.38107  0.87473  0.51229  1.0000
  C   C631      1.0  0.39361  0.63823  0.57032  1.0000
  S   S83       1.0  0.54971  0.80082  0.66496  1.0000
  C   C632      1.0  0.10702  0.89101  0.62862  1.0000
  C   C633      1.0  0.43255  0.83104  0.58438  1.0000
  H   H506      1.0  0.54478  0.90168  0.47264  1.0000
  H   H507      1.0  0.42386  0.61169  0.53666  1.0000
  C   C634      1.0  0.37520  0.54721  0.50188  1.0000
  H   H508      1.0  0.44338  0.90959  0.64790  1.0000
  H   H509      1.0  0.12586  0.75270  0.49343  1.0000
  C   C635      1.0  0.38349  0.96627  0.61020  1.0000
  S   S84       1.0  0.22757  0.62925  0.61326  1.0000
  C   C636      1.0  0.09535  0.60249  0.57779  1.0000
  S   S85       1.0  0.53483  0.93391  0.55066  1.0000
  H   H510      1.0  0.07072  0.61163  0.63831  1.0000
  C   C637      1.0  0.17836  0.68548  0.58558  1.0000
  H   H511      1.0  0.06513  0.72193  0.69015  1.0000
  H   H512      1.0  0.22397  0.67825  0.46977  1.0000
  C   C638      1.0  0.11259  0.66076  0.57106  1.0000
  C   C639      1.0  0.17018  0.94049  0.62412  1.0000
  C   C640      1.0  0.27654  0.89214  0.61979  1.0000
  C   C641      1.0  0.50148  0.02972  0.57080  1.0000
  C   C642      1.0  0.39472  0.97808  0.64801  1.0000
  Fe  Fe43      1.0  0.32629  0.65758  0.54356  1.0000
  C   C643      1.0  0.36022  0.77914  0.48636  1.0000
  H   H513      1.0  0.40197  0.01717  0.68006  1.0000
  H   H514      1.0  0.31563  0.91773  0.60532  1.0000
  C   C644      1.0  0.36910  0.01455  0.57850  1.0000
  H   H515      1.0  0.24792  0.76062  0.46182  1.0000
  S   S86       1.0  0.40418  0.94025  0.47628  1.0000
  H   H516      1.0  0.07566  0.74045  0.60862  1.0000
  C   C645      1.0  0.31724  0.83047  0.54620  1.0000
  H   H517      1.0  0.43393  0.81754  0.48963  1.0000
  C   C646      1.0  0.07435  0.55252  0.69912  1.0000
  C   C647      1.0  0.49828  0.96473  0.70270  1.0000
  H   H518      1.0  0.06578  0.81140  0.59145  1.0000
  Fe  Fe44      1.0  0.37631  0.91936  0.53449  1.0000
  S   S87       1.0  0.38492  0.92864  0.60684  1.0000
  H   H519      1.0  0.11865  0.68353  0.56783  1.0000
  C   C648      1.0  0.49200  0.72743  0.50711  1.0000
  C   C649      1.0  0.18448  0.78006  0.51010  1.0000
  S   S88       1.0  0.15892  0.94694  0.48129  1.0000
  C   C650      1.0  0.27137  0.96561  0.63599  1.0000
  C   C651      1.0  0.16990  0.67894  0.63198  1.0000
  H   H520      1.0  0.32773  0.85055  0.55162  1.0000
  H   H521      1.0  0.54812  0.70054  0.63019  1.0000
  C   C652      1.0  0.47752  0.74944  0.52748  1.0000
  S   S89       1.0  0.46811  0.65987  0.65810  1.0000
  H   H522      1.0  0.17256  0.65704  0.64879  1.0000
  C   C653      1.0  0.56299  0.77152  0.63821  1.0000
  H   H523      1.0  0.15277  0.95198  0.60655  1.0000
  S   S90       1.0  0.32352  0.70434  0.51486  1.0000
  H   H524      1.0  0.31043  0.00594  0.52805  1.0000
  H   H525      1.0  0.43451  0.87660  0.59235  1.0000
  C   C654      1.0  0.13137  0.55344  0.52567  1.0000
  C   C655      1.0  0.38952  0.59339  0.67856  1.0000
  H   H526      1.0  0.55727  0.00309  0.48635  1.0000
  S   S91       1.0  0.33565  0.92873  0.49706  1.0000
  H   H527      1.0  0.32626  0.83484  0.68390  1.0000
  C   C656      1.0  0.44641  0.85646  0.59321  1.0000
  H   H528      1.0  0.48691  0.87596  0.60625  1.0000
  C   C657      1.0  0.55408  0.77743  0.47271  1.0000
  C   C658      1.0  0.41332  0.80671  0.48930  1.0000
  H   H529      1.0  0.15706  0.83590  0.55981  1.0000
  C   C659      1.0  0.09423  0.64936  0.60749  1.0000
  H   H530      1.0  0.51387  0.73078  0.49402  1.0000
  H   H531      1.0  0.55597  0.79777  0.53543  1.0000
  H   H532      1.0  0.24319  0.86001  0.63612  1.0000
  H   H533      1.0  0.31968  0.94097  0.70292  1.0000
  C   C660      1.0  0.23946  0.04299  0.63617  1.0000
  C   C661      1.0  0.41889  0.73715  0.65158  1.0000
  P   P22       1.0  0.25318  0.91928  0.59173  1.0000
  C   C662      1.0  0.06707  0.78709  0.53264  1.0000
  H   H534      1.0  0.38570  0.69683  0.48240  1.0000
  H   H535      1.0  0.19737  0.85310  0.68365  1.0000
  P   P23       1.0  0.16267  0.77288  0.56234  1.0000
  C   C663      1.0  0.08868  0.99103  0.48402  1.0000
  S   S92       1.0  0.30455  0.66423  0.61133  1.0000
  C   C664      1.0  0.32131  0.04474  0.70410  1.0000
  C   C665      1.0  0.51159  0.91618  0.51776  1.0000
  S   S93       1.0  0.30741  0.85527  0.45840  1.0000
  H   H536      1.0  0.10047  0.91970  0.51741  1.0000
  H   H537      1.0  0.25482  0.60583  0.69789  1.0000
  H   H538      1.0  0.17721  0.61431  0.54360  1.0000
  H   H539      1.0  0.25334  0.86415  0.54941  1.0000
  C   C666      1.0  0.46332  0.90256  0.50222  1.0000
  C   C667      1.0  0.44646  0.90448  0.68455  1.0000
  Fe  Fe45      1.0  0.26402  0.65473  0.57657  1.0000
  H   H540      1.0  0.17153  0.87055  0.61345  1.0000
  C   C668      1.0  0.43926  0.65043  0.62547  1.0000
  C   C669      1.0  0.08814  0.99846  0.52913  1.0000
  C   C670      1.0  0.19169  0.83798  0.65978  1.0000
  H   H541      1.0  0.09832  0.97705  0.63126  1.0000
  C   C671      1.0  0.46436  0.98770  0.45873  1.0000
  C   C672      1.0  0.10772  0.03963  0.61744  1.0000
  C   C673      1.0  0.37790  0.74200  0.70362  1.0000
  H   H542      1.0  0.37241  0.75198  0.54670  1.0000
  H   H543      1.0  0.35942  0.02862  0.55127  1.0000
  C   C674      1.0  0.44972  0.74451  0.54682  1.0000
  C   C675      1.0  0.24671  0.88151  0.52425  1.0000
  C   C676      1.0  0.39329  0.00815  0.65087  1.0000
  H   H544      1.0  0.09299  0.67449  0.46344  1.0000
  C   C677      1.0  0.28612  0.99154  0.63923  1.0000
  H   H545      1.0  0.41440  0.71366  0.55658  1.0000
  C   C678      1.0  0.09376  0.91108  0.55217  1.0000
  H   H546      1.0  0.52833  0.74300  0.66450  1.0000
  C   C679      1.0  0.45016  0.69648  0.52056  1.0000
  H   H547      1.0  0.48924  0.68412  0.48683  1.0000
  H   H548      1.0  0.08800  0.58009  0.58069  1.0000
  C   C680      1.0  0.17512  0.79950  0.47348  1.0000
  H   H549      1.0  0.47736  0.96831  0.68827  1.0000
  H   H550      1.0  0.51663  0.83238  0.51499  1.0000
  C   C681      1.0  0.16880  0.82810  0.59008  1.0000
  C   C682      1.0  0.15788  0.70057  0.65634  1.0000
  C   C683      1.0  0.47673  0.80426  0.59535  1.0000
  H   H551      1.0  0.13722  0.90513  0.57269  1.0000
  C   C684      1.0  0.28473  0.96862  0.55469  1.0000
  C   C685      1.0  0.25242  0.57967  0.58628  1.0000
  C   C686      1.0  0.49074  0.83005  0.60249  1.0000
  Fe  Fe46      1.0  0.28149  0.69213  0.48768  1.0000
  H   H552      1.0  0.21241  0.80141  0.69721  1.0000
  C   C687      1.0  0.19608  0.93661  0.60006  1.0000
  H   H553      1.0  0.12812  0.04405  0.54946  1.0000
  H   H554      1.0  0.11622  0.80322  0.60888  1.0000
  H   H555      1.0  0.18725  0.66863  0.56641  1.0000
  C   C688      1.0  0.17687  0.84777  0.62038  1.0000
  C   C689      1.0  0.40896  0.76036  0.62141  1.0000
  H   H556      1.0  0.36852  0.66565  0.61106  1.0000
  C   C690      1.0  0.48229  0.91653  0.52846  1.0000
  H   H557      1.0  0.19807  0.94548  0.56422  1.0000
  S   S94       1.0  0.28616  0.64481  0.51070  1.0000
  C   C691      1.0  0.16494  0.73589  0.58886  1.0000
  H   H558      1.0  0.25556  0.04189  0.70436  1.0000
  H   H559      1.0  0.14605  0.74542  0.65445  1.0000
  S   S95       1.0  0.25613  0.70129  0.55085  1.0000
  H   H560      1.0  0.18143  0.71803  0.52757  1.0000
  H   H561      1.0  0.37591  0.79283  0.61061  1.0000
  C   C692      1.0  0.30420  0.82778  0.50449  1.0000
  C   C693      1.0  0.08397  0.77014  0.50566  1.0000
  H   H562      1.0  0.15088  0.69567  0.69206  1.0000
  H   H563      1.0  0.46343  0.98978  0.49530  1.0000
  C   C694      1.0  0.19193  0.78920  0.63744  1.0000
  H   H564      1.0  0.33971  0.76838  0.48487  1.0000
  C   C695      1.0  0.28981  0.77847  0.53271  1.0000
  H   H565      1.0  0.51972  0.96150  0.63676  1.0000
  H   H566      1.0  0.26119  0.95435  0.66681  1.0000
  C   C696      1.0  0.17541  0.71371  0.56380  1.0000
  C   C697      1.0  0.44781  0.80495  0.58365  1.0000
  H   H567      1.0  0.17112  0.68086  0.46467  1.0000
  S   S96       1.0  0.51117  0.04141  0.69059  1.0000
  C   C698      1.0  0.07899  0.79905  0.56956  1.0000
  H   H568      1.0  0.23946  0.85187  0.47385  1.0000
  H   H569      1.0  0.40840  0.67487  0.66130  1.0000
  H   H570      1.0  0.47427  0.92701  0.55767  1.0000
  C   C699      1.0  0.27021  0.95414  0.59350  1.0000
  C   C700      1.0  0.31699  0.80687  0.58080  1.0000
  H   H571      1.0  0.51343  0.83008  0.60835  1.0000
  H   H572      1.0  0.28539  0.95971  0.52204  1.0000
  C   C701      1.0  0.07806  0.88787  0.64210  1.0000
  C   C702      1.0  0.11465  0.61353  0.54199  1.0000
  H   H573      1.0  0.14528  0.56557  0.59116  1.0000
  S   S97       1.0  0.55890  0.88416  0.65429  1.0000
  C   C703      1.0  0.22786  0.77198  0.46526  1.0000
  C   C704      1.0  0.10784  0.79451  0.57915  1.0000
  C   C705      1.0  0.11484  0.90278  0.58371  1.0000
  C   C706      1.0  0.38000  0.02635  0.61646  1.0000
  C   C707      1.0  0.52197  0.90217  0.48051  1.0000
  C   C708      1.0  0.24592  0.91055  0.53422  1.0000
  H   H574      1.0  0.15487  0.81050  0.47655  1.0000
  C   C709      1.0  0.30380  0.78069  0.57372  1.0000
  H   H575      1.0  0.13671  0.65221  0.51013  1.0000
  H   H576      1.0  0.40485  0.96412  0.67478  1.0000
  C   C710      1.0  0.31242  0.85079  0.66603  1.0000
  C   C711      1.0  0.07015  0.67785  0.46056  1.0000
  S   S98       1.0  0.51312  0.59563  0.61589  1.0000
  H   H577      1.0  0.31068  0.02676  0.60191  1.0000
  C   C712      1.0  0.47571  0.85610  0.60125  1.0000
  C   C713      1.0  0.32394  0.87695  0.64459  1.0000
  C   C714      1.0  0.18342  0.61102  0.50843  1.0000
  H   H578      1.0  0.27986  0.80025  0.46604  1.0000
  C   C715      1.0  0.16372  0.60044  0.47904  1.0000
  C   C716      1.0  0.11297  0.76577  0.51486  1.0000
  H   H579      1.0  0.49218  0.89877  0.67669  1.0000
  C   C717      1.0  0.47437  0.01901  0.58596  1.0000
  C   C718      1.0  0.38932  0.65624  0.60530  1.0000
  H   H580      1.0  0.32778  0.80856  0.61240  1.0000
  H   H581      1.0  0.26813  0.59359  0.56685  1.0000
  Fe  Fe47      1.0  0.55678  0.59667  0.64469  1.0000
  C   C719      1.0  0.40326  0.72801  0.69245  1.0000
  C   C720      1.0  0.30611  0.89762  0.62164  1.0000
  C   C721      1.0  0.28984  0.80212  0.49830  1.0000
  H   H582      1.0  0.09385  0.03793  0.68911  1.0000
  H   H583      1.0  0.34813  0.77587  0.68203  1.0000
  C   C722      1.0  0.36046  0.59971  0.68439  1.0000
  H   H584      1.0  0.08642  0.66312  0.63286  1.0000
  S   S99       1.0  0.36590  0.63142  0.53410  1.0000
  H   H585      1.0  0.19257  0.58259  0.65534  1.0000
  C   C723      1.0  0.15521  0.72889  0.63483  1.0000
  H   H586      1.0  0.39822  0.58996  0.64471  1.0000
  C   C724      1.0  0.41200  0.66178  0.63345  1.0000
  H   H587      1.0  0.34671  0.88135  0.64587  1.0000
  Fe  Fe48      1.0  0.50905  0.64168  0.63099  1.0000
  H   H588      1.0  0.44103  0.90107  0.51273  1.0000
  H   H589      1.0  0.34670  0.60098  0.65506  1.0000
  P   P24       1.0  0.42918  0.77310  0.56934  1.0000
  H   H590      1.0  0.22660  0.62555  0.51548  1.0000
  C   C725      1.0  0.06536  0.87934  0.46083  1.0000
  C   C726      1.0  0.21899  0.92194  0.62230  1.0000
  H   H591      1.0  0.42954  0.01863  0.57205  1.0000
  C   C727      1.0  0.23012  0.59166  0.61125  1.0000
  C   C728      1.0  0.06958  0.95516  0.68217  1.0000
  H   H592      1.0  0.43845  0.72584  0.64344  1.0000
  S   S100      1.0  0.30640  0.75029  0.61479  1.0000
  Fe  Fe49      1.0  0.34278  0.88591  0.46970  1.0000
  C   C729      1.0  0.12529  0.77868  0.55084  1.0000
  H   H593      1.0  0.14593  0.88582  0.48595  1.0000
  H   H594      1.0  0.48796  0.77021  0.52729  1.0000
  C   C730      1.0  0.21167  0.61704  0.49281  1.0000
  C   C731      1.0  0.13101  0.04464  0.58594  1.0000
  C   C732      1.0  0.45033  0.02742  0.56080  1.0000
  H   H595      1.0  0.43939  0.67622  0.51695  1.0000
  H   H596      1.0  0.41723  0.56532  0.48167  1.0000
  S   S101      1.0  0.52059  0.59773  0.48306  1.0000
  C   C733      1.0  0.39446  0.56690  0.47695  1.0000
  H   H597      1.0  0.08388  0.93702  0.68999  1.0000
  H   H598      1.0  0.10144  0.97278  0.47516  1.0000
  C   C734      1.0  0.23876  0.87433  0.48116  1.0000
  C   C735      1.0  0.54529  0.79726  0.50317  1.0000
  C   C736      1.0  0.07252  0.02268  0.54067  1.0000
  C   C737      1.0  0.28235  0.56870  0.70596  1.0000
  C   C738      1.0  0.07756  0.97795  0.64858  1.0000
  H   H599      1.0  0.50544  0.96677  0.46098  1.0000
  C   C739      1.0  0.14053  0.54789  0.57114  1.0000
  P   P25       1.0  0.07216  0.03268  0.59905  1.0000
  C   C740      1.0  0.55947  0.72100  0.62482  1.0000
  H   H600      1.0  0.07675  0.55768  0.47717  1.0000
  C   C741      1.0  0.47316  0.89025  0.46316  1.0000
  C   C742      1.0  0.47389  0.89851  0.70072  1.0000
  H   H601      1.0  0.40212  0.90996  0.70207  1.0000
  H   H602      1.0  0.31352  0.71950  0.70547  1.0000
  H   H603      1.0  0.26530  0.71125  0.67666  1.0000
  H   H604      1.0  0.34283  0.00385  0.70175  1.0000
  H   H605      1.0  0.55942  0.54706  0.59660  1.0000
  H   H606      1.0  0.48774  0.54675  0.56889  1.0000
  C   C743      1.0  0.33571  0.57261  0.46298  1.0000
  H   H607      1.0  0.31292  0.57505  0.45806  1.0000
  C   C744      1.0  0.44217  0.80334  0.75481  1.0000
  C   C745      1.0  0.38126  0.95537  0.84733  1.0000
  H   H608      1.0  0.53688  0.01917  0.77418  1.0000
  H   H609      1.0  0.39480  0.64068  0.86612  1.0000
  C   C746      1.0  0.16307  0.70024  0.86886  1.0000
  C   C747      1.0  0.29367  0.66014  0.77933  1.0000
  C   C748      1.0  0.26592  0.65582  0.76409  1.0000
  C   C749      1.0  0.47926  0.59266  0.81484  1.0000
  H   H610      1.0  0.34760  0.99525  0.78628  1.0000
  H   H611      1.0  0.32708  0.61091  0.73181  1.0000
  C   C750      1.0  0.14051  0.71653  0.93758  1.0000
  C   C751      1.0  0.20482  0.88915  0.81933  1.0000
  C   C752      1.0  0.41678  0.58409  0.90307  1.0000
  C   C753      1.0  0.47870  0.76233  0.89026  1.0000
  C   C754      1.0  0.51465  0.72821  0.77283  1.0000
  H   H612      1.0  0.24962  0.87924  0.80623  1.0000
  C   C755      1.0  0.21697  0.00231  0.77476  1.0000
  C   C756      1.0  0.45853  0.82120  0.72205  1.0000
  C   C757      1.0  0.40764  0.59263  0.71582  1.0000
  H   H613      1.0  0.11121  0.59473  0.90833  1.0000
  H   H614      1.0  0.20333  0.74181  0.74622  1.0000
  C   C758      1.0  0.56368  0.58071  0.90244  1.0000
  H   H615      1.0  0.18581  0.02483  0.73224  1.0000
  C   C759      1.0  0.55484  0.62880  0.92463  1.0000
  H   H616      1.0  0.19369  0.87560  0.91967  1.0000
  C   C760      1.0  0.13381  0.78417  0.94921  1.0000
  C   C761      1.0  0.25089  0.04458  0.91481  1.0000
  C   C762      1.0  0.39226  0.88585  0.89907  1.0000
  C   C763      1.0  0.52397  0.02216  0.80484  1.0000
  H   H617      1.0  0.09029  0.97350  0.83839  1.0000
  C   C764      1.0  0.38171  0.55149  0.94473  1.0000
  C   C765      1.0  0.32663  0.92397  0.72866  1.0000
  H   H618      1.0  0.15847  0.89075  0.82932  1.0000
  P   P26       1.0  0.41989  0.59774  0.80791  1.0000
  C   C766      1.0  0.29868  0.92713  0.85397  1.0000
  H   H619      1.0  0.15241  0.82690  0.93283  1.0000
  H   H620      1.0  0.51702  0.65902  0.86078  1.0000
  C   C767      1.0  0.50176  0.80587  0.76126  1.0000
  C   C768      1.0  0.48938  0.03052  0.88230  1.0000
  C   C769      1.0  0.09073  0.88956  0.84513  1.0000
  C   C770      1.0  0.41042  0.82975  0.88570  1.0000
  C   C771      1.0  0.40577  0.56951  0.94453  1.0000
  C   C772      1.0  0.40166  0.83605  0.92972  1.0000
  H   H621      1.0  0.40717  0.02454  0.84293  1.0000
  C   C773      1.0  0.19748  0.01661  0.91972  1.0000
  H   H622      1.0  0.52916  0.54961  0.91884  1.0000
  C   C774      1.0  0.16820  0.60596  0.73531  1.0000
  C   C775      1.0  0.22209  0.84811  0.78126  1.0000
  C   C776      1.0  0.30028  0.70182  0.72201  1.0000
  C   C777      1.0  0.16370  0.65270  0.76427  1.0000
  C   C778      1.0  0.45459  0.89402  0.77926  1.0000
  H   H623      1.0  0.43265  0.72021  0.80134  1.0000
  C   C779      1.0  0.19390  0.83863  0.77784  1.0000
  C   C780      1.0  0.33770  0.01495  0.77121  1.0000
  C   C781      1.0  0.56146  0.76468  0.85933  1.0000
  C   C782      1.0  0.48829  0.82247  0.72535  1.0000
  C   C783      1.0  0.51938  0.99909  0.83969  1.0000
  C   C784      1.0  0.07772  0.71367  0.94450  1.0000
  H   H624      1.0  0.52421  0.65501  0.77712  1.0000
  H   H625      1.0  0.44249  0.77303  0.81573  1.0000
  C   C785      1.0  0.22893  0.59487  0.92466  1.0000
  C   C786      1.0  0.51640  0.67834  0.83623  1.0000
  C   C787      1.0  0.17179  0.77276  0.83544  1.0000
  C   C788      1.0  0.34667  0.73007  0.95147  1.0000
  H   H626      1.0  0.26789  0.92958  0.80079  1.0000
  C   C789      1.0  0.13614  0.62756  0.93499  1.0000
  H   H627      1.0  0.16143  0.69485  0.83402  1.0000
  H   H628      1.0  0.41914  0.80195  0.75173  1.0000
  C   C790      1.0  0.18056  0.89450  0.92373  1.0000
  C   C791      1.0  0.50090  0.88945  0.90870  1.0000
  C   C792      1.0  0.27949  0.91944  0.93232  1.0000
  H   H629      1.0  0.46976  0.96163  0.85178  1.0000
  C   C793      1.0  0.39652  0.59687  0.75991  1.0000
  C   C794      1.0  0.40530  0.00222  0.83516  1.0000
  C   C795      1.0  0.19974  0.04459  0.93298  1.0000
  H   H630      1.0  0.49928  0.88878  0.76052  1.0000
  H   H631      1.0  0.21304  0.71146  0.94681  1.0000
  C   C796      1.0  0.38377  0.98416  0.85709  1.0000
  P   P27       1.0  0.53198  0.96312  0.83057  1.0000
  C   C797      1.0  0.18477  0.92028  0.89408  1.0000
  C   C798      1.0  0.07945  0.56891  0.73553  1.0000
  C   C799      1.0  0.10396  0.56375  0.76157  1.0000
  C   C800      1.0  0.40407  0.58033  0.86127  1.0000
  H   H632      1.0  0.18645  0.90635  0.72864  1.0000
  S   S102      1.0  0.25430  0.79454  0.85514  1.0000
  C   C801      1.0  0.19650  0.60387  0.74946  1.0000
  C   C802      1.0  0.53684  0.78192  0.85273  1.0000
  C   C803      1.0  0.53643  0.57162  0.92075  1.0000
  C   C804      1.0  0.23865  0.61762  0.94795  1.0000
  C   C805      1.0  0.16807  0.94467  0.90102  1.0000
  H   H633      1.0  0.44035  0.00588  0.78496  1.0000
  H   H634      1.0  0.36880  0.99273  0.88127  1.0000
  H   H635      1.0  0.36556  0.73442  0.73480  1.0000
  S   S103      1.0  0.10133  0.81046  0.71309  1.0000
  H   H636      1.0  0.41040  0.70947  0.71476  1.0000
  C   C806      1.0  0.35373  0.92575  0.74717  1.0000
  C   C807      1.0  0.22372  0.97662  0.80171  1.0000
  H   H637      1.0  0.32587  0.77159  0.95184  1.0000
  P   P28       1.0  0.24532  0.62458  0.78900  1.0000
  Fe  Fe50      1.0  0.25032  0.80219  0.92993  1.0000
  C   C808      1.0  0.24715  0.92203  0.86849  1.0000
  H   H638      1.0  0.07793  0.89036  0.91674  1.0000
  H   H639      1.0  0.10456  0.94961  0.76942  1.0000
  H   H640      1.0  0.16273  0.93813  0.78846  1.0000
  H   H641      1.0  0.37157  0.55630  0.82949  1.0000
  H   H642      1.0  0.52491  0.80636  0.76206  1.0000
  H   H643      1.0  0.06962  0.75158  0.89596  1.0000
  H   H644      1.0  0.43608  0.95541  0.76721  1.0000
  C   C809      1.0  0.26438  0.59408  0.76953  1.0000
  C   C810      1.0  0.20888  0.62664  0.77011  1.0000
  C   C811      1.0  0.48552  0.78811  0.79467  1.0000
  H   H645      1.0  0.22056  0.98025  0.89680  1.0000
  C   C812      1.0  0.50350  0.00404  0.87986  1.0000
  C   C813      1.0  0.40069  0.87971  0.85441  1.0000
  P   P29       1.0  0.21116  0.92137  0.84724  1.0000
  C   C814      1.0  0.44677  0.68132  0.77377  1.0000
  C   C815      1.0  0.53877  0.81188  0.85662  1.0000
  H   H646      1.0  0.45564  0.63962  0.75141  1.0000
  H   H647      1.0  0.33211  0.68637  0.77037  1.0000
  H   H648      1.0  0.52011  0.82561  0.85192  1.0000
  C   C816      1.0  0.34535  0.87942  0.79329  1.0000
  H   H649      1.0  0.12763  0.64499  0.91158  1.0000
  H   H650      1.0  0.22009  0.57532  0.94399  1.0000
  H   H651      1.0  0.18950  0.81869  0.76322  1.0000
  S   S104      1.0  0.27980  0.99854  0.88502  1.0000
  H   H652      1.0  0.23134  0.02078  0.77332  1.0000
  H   H653      1.0  0.33054  0.03232  0.83604  1.0000
  C   C817      1.0  0.13848  0.70818  0.89304  1.0000
  C   C818      1.0  0.50157  0.96452  0.75017  1.0000
  H   H654      1.0  0.50875  0.70679  0.88848  1.0000
  C   C819      1.0  0.51855  0.59116  0.94139  1.0000
  C   C820      1.0  0.26603  0.59094  0.72225  1.0000
  H   H655      1.0  0.52301  0.69915  0.72097  1.0000
  C   C821      1.0  0.23060  0.59734  0.87642  1.0000
  C   C822      1.0  0.43092  0.69676  0.80422  1.0000
  C   C823      1.0  0.43748  0.73876  0.93221  1.0000
  H   H656      1.0  0.56146  0.65116  0.92460  1.0000
  C   C824      1.0  0.38067  0.56112  0.86144  1.0000
  C   C825      1.0  0.19645  0.78281  0.85501  1.0000
  C   C826      1.0  0.12665  0.59897  0.93358  1.0000
  C   C827      1.0  0.18993  0.70133  0.88820  1.0000
  C   C828      1.0  0.27093  0.92626  0.83755  1.0000
  C   C829      1.0  0.40107  0.94395  0.81690  1.0000
  H   H657      1.0  0.32431  0.92427  0.91445  1.0000
  C   C830      1.0  0.51984  0.70102  0.75750  1.0000
  C   C831      1.0  0.47936  0.78250  0.92285  1.0000
  H   H658      1.0  0.28005  0.57755  0.83656  1.0000
  C   C832      1.0  0.52052  0.67608  0.78914  1.0000
  H   H659      1.0  0.30224  0.64549  0.80700  1.0000
  C   C833      1.0  0.36738  0.60392  0.76525  1.0000
  S   S105      1.0  0.45758  0.66012  0.94492  1.0000
  C   C834      1.0  0.08388  0.90316  0.88464  1.0000
  H   H660      1.0  0.50966  0.86948  0.92553  1.0000
  C   C835      1.0  0.40974  0.85137  0.84819  1.0000
  C   C836      1.0  0.45756  0.74045  0.89542  1.0000
  H   H661      1.0  0.08981  0.86625  0.84710  1.0000
  C   C837      1.0  0.44387  0.65119  0.77625  1.0000
  H   H662      1.0  0.24686  0.76091  0.77946  1.0000
  H   H663      1.0  0.24329  0.97610  0.82041  1.0000
  C   C838      1.0  0.22355  0.77894  0.83456  1.0000
  H   H664      1.0  0.20907  0.69649  0.86848  1.0000
  S   S106      1.0  0.37598  0.67909  0.95029  1.0000
  H   H665      1.0  0.15151  0.98323  0.73971  1.0000
  H   H666      1.0  0.10749  0.57589  0.79051  1.0000
  C   C839      1.0  0.32805  0.03582  0.79915  1.0000
  P   P30       1.0  0.50299  0.76571  0.84013  1.0000
  H   H667      1.0  0.34338  0.72878  0.91525  1.0000
  Fe  Fe51      1.0  0.09260  0.84263  0.76390  1.0000
  C   C840      1.0  0.19215  0.70986  0.93230  1.0000
  C   C841      1.0  0.42300  0.90494  0.71563  1.0000
  H   H668      1.0  0.10697  0.85255  0.94605  1.0000
  C   C842      1.0  0.19118  0.00459  0.75198  1.0000
  H   H669      1.0  0.43838  0.92684  0.89902  1.0000
  H   H670      1.0  0.31744  0.59853  0.94278  1.0000
  C   C843      1.0  0.46077  0.92160  0.89369  1.0000
  C   C844      1.0  0.41244  0.68197  0.83766  1.0000
  H   H671      1.0  0.17069  0.96482  0.87870  1.0000
  C   C845      1.0  0.20136  0.75324  0.77657  1.0000
  H   H672      1.0  0.56072  0.74151  0.85707  1.0000
  C   C846      1.0  0.28004  0.57515  0.80015  1.0000
  C   C847      1.0  0.09124  0.95013  0.84082  1.0000
  C   C848      1.0  0.52789  0.61971  0.94326  1.0000
  S   S107      1.0  0.41787  0.00343  0.95354  1.0000
  C   C849      1.0  0.29756  0.54973  0.73666  1.0000
  C   C850      1.0  0.42692  0.90019  0.76334  1.0000
  C   C851      1.0  0.36334  0.90350  0.77967  1.0000
  C   C852      1.0  0.55262  0.95796  0.73953  1.0000
  C   C853      1.0  0.22761  0.87317  0.80224  1.0000
  C   C854      1.0  0.17655  0.87928  0.81579  1.0000
  H   H673      1.0  0.22285  0.57964  0.85870  1.0000
  H   H674      1.0  0.12970  0.63141  0.73232  1.0000
  H   H675      1.0  0.13468  0.96213  0.94229  1.0000
  C   C855      1.0  0.24870  0.01656  0.90152  1.0000
  S   S108      1.0  0.10135  0.81097  0.82579  1.0000
  H   H676      1.0  0.07043  0.55985  0.94600  1.0000
  C   C856      1.0  0.14743  0.94320  0.93699  1.0000
  C   C857      1.0  0.47881  0.94148  0.86698  1.0000
  H   H677      1.0  0.42147  0.72161  0.93615  1.0000
  C   C858      1.0  0.17420  0.75821  0.79597  1.0000
  H   H678      1.0  0.38519  0.90713  0.90578  1.0000
  C   C859      1.0  0.45602  0.55513  0.77756  1.0000
  C   C860      1.0  0.50831  0.93598  0.86190  1.0000
  H   H679      1.0  0.45781  0.87996  0.93487  1.0000
  H   H680      1.0  0.15089  0.67155  0.76997  1.0000
  C   C861      1.0  0.25131  0.64554  0.87478  1.0000
  C   C862      1.0  0.50783  0.55629  0.78123  1.0000
  H   H681      1.0  0.48318  0.96859  0.77176  1.0000
  H   H682      1.0  0.36356  0.94238  0.86302  1.0000
  H   H683      1.0  0.47829  0.61146  0.83387  1.0000
  C   C863      1.0  0.15173  0.63020  0.74292  1.0000
  Fe  Fe52      1.0  0.08559  0.99741  0.92094  1.0000
  C   C864      1.0  0.08408  0.93339  0.88266  1.0000
  C   C865      1.0  0.17195  0.98117  0.75630  1.0000
  H   H684      1.0  0.19434  0.79469  0.88463  1.0000
  H   H685      1.0  0.49552  0.79938  0.92041  1.0000
  C   C866      1.0  0.24253  0.62237  0.85119  1.0000
  S   S109      1.0  0.12183  0.01628  0.87390  1.0000
  S   S110      1.0  0.10821  0.88912  0.75433  1.0000
  C   C867      1.0  0.30875  0.90013  0.74285  1.0000
  H   H686      1.0  0.28779  0.89870  0.72839  1.0000
  C   C868      1.0  0.29646  0.55301  0.78368  1.0000
  H   H687      1.0  0.45834  0.89067  0.81581  1.0000
  H   H688      1.0  0.41722  0.80791  0.88059  1.0000
  H   H689      1.0  0.23971  0.83520  0.76966  1.0000
  C   C869      1.0  0.31812  0.87785  0.77504  1.0000
  H   H690      1.0  0.36722  0.94448  0.73590  1.0000
  C   C870      1.0  0.25596  0.67408  0.72635  1.0000
  H   H691      1.0  0.15894  0.58849  0.71884  1.0000
  C   C871      1.0  0.50989  0.73060  0.82011  1.0000
  H   H692      1.0  0.23388  0.91694  0.94074  1.0000
  H   H693      1.0  0.43554  0.59789  0.90357  1.0000
  C   C872      1.0  0.24949  0.64306  0.92301  1.0000
  H   H694      1.0  0.47510  0.03336  0.91162  1.0000
  C   C873      1.0  0.45556  0.78691  0.79106  1.0000
  C   C874      1.0  0.10743  0.82903  0.95077  1.0000
  H   H695      1.0  0.41582  0.84576  0.81416  1.0000
  H   H696      1.0  0.11818  0.70860  0.87614  1.0000
  C   C875      1.0  0.17851  0.95548  0.78379  1.0000
  C   C876      1.0  0.22203  0.00245  0.90452  1.0000
  C   C877      1.0  0.50600  0.58063  0.80548  1.0000
  C   C878      1.0  0.47791  0.89304  0.74806  1.0000
  C   C879      1.0  0.33475  0.01963  0.72361  1.0000
  S   S111      1.0  0.07595  0.94971  0.93311  1.0000
  C   C880      1.0  0.51917  0.90966  0.88299  1.0000
  H   H697      1.0  0.20134  0.66873  0.79380  1.0000
  C   C881      1.0  0.19221  0.65101  0.77770  1.0000
  S   S112      1.0  0.14345  0.74650  0.77020  1.0000
  C   C882      1.0  0.34946  0.60529  0.72764  1.0000
  P   P31       1.0  0.39813  0.90656  0.80421  1.0000
  H   H698      1.0  0.15406  0.77363  0.94360  1.0000
  H   H699      1.0  0.30425  0.85931  0.78606  1.0000
  Fe  Fe53      1.0  0.31090  0.00841  0.93755  1.0000
  C   C883      1.0  0.42180  0.96274  0.79337  1.0000
  C   C884      1.0  0.47175  0.89544  0.91422  1.0000
  H   H700      1.0  0.25944  0.66561  0.85628  1.0000
  H   H701      1.0  0.25654  0.66087  0.94111  1.0000
  H   H702      1.0  0.15093  0.77611  0.85108  1.0000
  C   C885      1.0  0.13309  0.81456  0.94345  1.0000
  C   C886      1.0  0.39262  0.86407  0.93638  1.0000
  C   C887      1.0  0.30297  0.92341  0.90137  1.0000
  C   C888      1.0  0.20453  0.95296  0.80675  1.0000
  H   H703      1.0  0.52534  0.59030  0.81681  1.0000
  H   H704      1.0  0.14944  0.84673  0.79247  1.0000
  C   C889      1.0  0.25169  0.91905  0.91604  1.0000
  C   C890      1.0  0.40961  0.65168  0.84047  1.0000
  H   H705      1.0  0.40004  0.69400  0.86114  1.0000
  C   C891      1.0  0.51143  0.70548  0.85176  1.0000
  H   H706      1.0  0.45666  0.72445  0.87134  1.0000
  H   H707      1.0  0.54177  0.90470  0.88080  1.0000
  H   H708      1.0  0.50066  0.98700  0.90815  1.0000
  C   C892      1.0  0.42540  0.63612  0.80963  1.0000
  C   C893      1.0  0.31071  0.68318  0.75855  1.0000
  H   H709      1.0  0.23545  0.67020  0.71181  1.0000
  C   C894      1.0  0.09895  0.93654  0.80151  1.0000
  C   C895      1.0  0.09860  0.90617  0.80358  1.0000
  H   H710      1.0  0.35196  0.86194  0.81838  1.0000
  H   H711      1.0  0.31673  0.93135  0.83001  1.0000
  H   H712      1.0  0.51445  0.74724  0.74767  1.0000
  C   C896      1.0  0.07584  0.54692  0.91831  1.0000
  C   C897      1.0  0.45415  0.58063  0.79933  1.0000
  C   C898      1.0  0.22596  0.76402  0.79538  1.0000
  H   H713      1.0  0.46066  0.69266  0.74707  1.0000
  H   H714      1.0  0.35862  0.60879  0.79834  1.0000
  H   H715      1.0  0.20836  0.58434  0.74437  1.0000
  C   C899      1.0  0.42406  0.99163  0.80280  1.0000
  Fe  Fe54      1.0  0.10720  0.77809  0.77517  1.0000
  C   C900      1.0  0.17122  0.85423  0.79494  1.0000
  C   C901      1.0  0.52864  0.96065  0.76930  1.0000
  S   S113      1.0  0.34267  0.04504  0.92897  1.0000
  H   H716      1.0  0.17696  0.00563  0.92263  1.0000
  H   H717      1.0  0.43035  0.58946  0.70959  1.0000
  H   H718      1.0  0.06407  0.58503  0.74439  1.0000
  H   H719      1.0  0.52865  0.54742  0.77332  1.0000
  C   C902      1.0  0.36914  0.54733  0.90319  1.0000
  C   C903      1.0  0.16751  0.71714  0.95709  1.0000
  C   C904      1.0  0.43618  0.97426  0.08469  1.0000
  H   H720      1.0  0.34041  0.81139  0.13211  1.0000
  H   H721      1.0  0.35782  0.75991  0.15842  1.0000
  H   H722      1.0  0.42453  0.80944  0.19746  1.0000
  H   H723      1.0  0.28290  0.00816  0.12150  1.0000
  S   S114      1.0  0.49964  0.86658  0.06858  1.0000
  C   C905      1.0  0.28932  0.90649  0.08661  1.0000
  H   H724      1.0  0.50449  0.03077  0.13505  1.0000
  Fe  Fe55      1.0  0.50404  0.90175  0.11487  1.0000
  C   C906      1.0  0.08239  0.81311  0.96354  1.0000
  C   C907      1.0  0.15471  0.73791  0.18569  1.0000
  H   H725      1.0  0.44287  0.76312  0.17369  1.0000
  H   H726      1.0  0.26915  0.55972  0.05897  1.0000
  C   C908      1.0  0.44182  0.04324  0.12997  1.0000
  C   C909      1.0  0.26497  0.95028  0.05679  1.0000
  H   H727      1.0  0.49565  0.55566  0.15781  1.0000
  H   H728      1.0  0.30732  0.89600  0.10346  1.0000
  H   H729      1.0  0.09282  0.94689  0.15270  1.0000
  C   C910      1.0  0.39291  0.88023  0.10334  1.0000
  S   S115      1.0  0.49948  0.79235  0.15202  1.0000
  C   C911      1.0  0.36540  0.70967  0.02422  1.0000
  S   S116      1.0  0.35566  0.02850  0.03885  1.0000
  C   C912      1.0  0.18428  0.82937  0.12141  1.0000
  H   H730      1.0  0.53336  0.67256  0.09949  1.0000
  C   C913      1.0  0.52672  0.99854  0.10028  1.0000
  H   H731      1.0  0.36552  0.94181  0.04732  1.0000
  C   C914      1.0  0.31831  0.63299  0.98654  1.0000
  C   C915      1.0  0.33675  0.75427  0.97219  1.0000
  Fe  Fe56      1.0  0.47755  0.68238  0.00018  1.0000
  C   C916      1.0  0.54584  0.62109  0.18943  1.0000
  H   H732      1.0  0.21705  0.01342  0.18097  1.0000
  S   S117      1.0  0.22311  0.54633  0.17025  1.0000
  C   C917      1.0  0.50459  0.02625  0.01919  1.0000
  H   H733      1.0  0.52208  0.80653  0.05888  1.0000
  H   H734      1.0  0.14322  0.97050  0.16364  1.0000
  C   C918      1.0  0.50199  0.64694  0.20282  1.0000
  C   C919      1.0  0.50910  0.02280  0.10211  1.0000
  H   H735      1.0  0.40633  0.93474  0.99328  1.0000
  C   C920      1.0  0.14294  0.91733  0.96584  1.0000
  H   H736      1.0  0.51424  0.63511  0.95831  1.0000
  C   C921      1.0  0.15803  0.99434  0.05138  1.0000
  H   H737      1.0  0.35885  0.55772  0.19016  1.0000
  H   H738      1.0  0.22014  0.94013  0.12622  1.0000
  C   C922      1.0  0.55043  0.63763  0.14634  1.0000
  H   H739      1.0  0.14000  0.01442  0.10875  1.0000
  H   H740      1.0  0.25267  0.75932  0.15805  1.0000
  C   C923      1.0  0.10991  0.71550  0.02902  1.0000
  H   H741      1.0  0.15694  0.87319  0.98230  1.0000
  H   H742      1.0  0.22710  0.98919  0.11032  1.0000
  C   C924      1.0  0.40280  0.91958  0.02400  1.0000
  S   S118      1.0  0.16638  0.57596  0.11891  1.0000
  C   C925      1.0  0.43851  0.75861  0.96469  1.0000
  C   C926      1.0  0.45900  0.95540  0.07946  1.0000
  H   H743      1.0  0.25496  0.66572  0.02409  1.0000
  C   C927      1.0  0.44338  0.60485  0.17556  1.0000
  Fe  Fe57      1.0  0.51624  0.83671  0.12739  1.0000
  Fe  Fe58      1.0  0.20941  0.59021  0.13928  1.0000
  H   H744      1.0  0.16953  0.72413  0.99089  1.0000
  C   C928      1.0  0.26083  0.68567  0.17094  1.0000
  H   H745      1.0  0.34507  0.89032  0.19811  1.0000
  C   C929      1.0  0.47024  0.95207  0.03521  1.0000
  H   H746      1.0  0.45094  0.02309  0.12125  1.0000
  C   C930      1.0  0.49823  0.03712  0.06144  1.0000
  H   H747      1.0  0.22399  0.01694  0.03308  1.0000
  H   H748      1.0  0.15716  0.01401  0.02750  1.0000
  C   C931      1.0  0.15022  0.96937  0.12826  1.0000
  S   S119      1.0  0.21905  0.88279  0.02282  1.0000
  H   H749      1.0  0.13061  0.84445  0.04696  1.0000
  H   H750      1.0  0.06434  0.64774  0.15533  1.0000
  C   C932      1.0  0.09724  0.73153  0.06252  1.0000
  H   H751      1.0  0.56039  0.60397  0.20094  1.0000
  C   C933      1.0  0.39937  0.81937  0.13673  1.0000
  H   H752      1.0  0.51081  0.55265  0.07158  1.0000
  C   C934      1.0  0.42434  0.98968  0.04614  1.0000
  C   C935      1.0  0.36142  0.70798  0.97730  1.0000
  C   C936      1.0  0.40314  0.86451  0.20172  1.0000
  C   C937      1.0  0.13607  0.90845  0.19661  1.0000
  H   H753      1.0  0.44070  0.89464  0.01236  1.0000
  S   S120      1.0  0.47264  0.93629  0.12904  1.0000
  H   H754      1.0  0.11514  0.87195  0.17038  1.0000
  C   C938      1.0  0.53068  0.65940  0.13232  1.0000
  C   C939      1.0  0.14598  0.84776  0.07284  1.0000
  C   C940      1.0  0.21659  0.02574  0.14719  1.0000
  Fe  Fe59      1.0  0.23728  0.84071  0.00578  1.0000
  H   H755      1.0  0.22660  0.94416  0.02038  1.0000
  H   H756      1.0  0.54968  0.65713  0.02906  1.0000
  C   C941      1.0  0.14838  0.99454  0.09716  1.0000
  C   C942      1.0  0.41781  0.04221  0.16027  1.0000
  H   H757      1.0  0.35648  0.90764  0.11611  1.0000
  H   H758      1.0  0.08100  0.67171  0.98450  1.0000
  C   C943      1.0  0.51702  0.76776  0.02566  1.0000
  Fe  Fe60      1.0  0.22505  0.77621  0.02366  1.0000
  H   H759      1.0  0.53494  0.98742  0.13176  1.0000
  C   C944      1.0  0.46806  0.59305  0.15670  1.0000
  H   H760      1.0  0.26370  0.94862  0.16875  1.0000
  C   C945      1.0  0.49584  0.72651  0.07304  1.0000
  C   C946      1.0  0.16678  0.87854  0.12559  1.0000
  C   C947      1.0  0.31826  0.60390  0.97788  1.0000
  H   H761      1.0  0.40896  0.02144  0.17503  1.0000
  C   C948      1.0  0.19133  0.68877  0.10061  1.0000
  H   H762      1.0  0.26422  0.84778  0.18694  1.0000
  H   H763      1.0  0.09933  0.02366  0.17163  1.0000
  C   C949      1.0  0.34706  0.85097  0.16422  1.0000
  C   C950      1.0  0.42086  0.76693  0.11002  1.0000
  Fe  Fe61      1.0  0.15094  0.58532  0.18911  1.0000
  C   C951      1.0  0.30101  0.82696  0.15867  1.0000
  C   C952      1.0  0.31975  0.58179  0.01448  1.0000
  S   S121      1.0  0.43177  0.63939  0.15325  1.0000
  C   C953      1.0  0.35531  0.74598  0.19076  1.0000
  C   C954      1.0  0.28543  0.02229  0.18920  1.0000
  C   C955      1.0  0.12246  0.68858  0.04332  1.0000
  H   H764      1.0  0.11029  0.68589  0.15931  1.0000
  S   S122      1.0  0.31499  0.95819  0.09906  1.0000
  H   H765      1.0  0.42940  0.56872  0.10274  1.0000
  H   H766      1.0  0.52708  0.99373  0.98487  1.0000
  Fe  Fe62      1.0  0.41621  0.66394  0.98520  1.0000
  C   C956      1.0  0.22353  0.65157  0.07753  1.0000
  H   H767      1.0  0.28175  0.75392  0.08736  1.0000
  H   H768      1.0  0.12653  0.91629  0.99316  1.0000
  H   H769      1.0  0.20033  0.85814  0.16721  1.0000
  H   H770      1.0  0.18014  0.92431  0.05535  1.0000
  C   C957      1.0  0.24368  0.93355  0.03973  1.0000
  C   C958      1.0  0.14707  0.87430  0.09157  1.0000
  C   C959      1.0  0.42833  0.77611  0.15205  1.0000
  C   C960      1.0  0.54113  0.58470  0.08853  1.0000
  H   H771      1.0  0.38540  0.86877  0.97050  1.0000
  H   H772      1.0  0.42348  0.75641  0.99390  1.0000
  C   C961      1.0  0.50290  0.77178  0.10546  1.0000
  C   C962      1.0  0.35561  0.73390  0.04490  1.0000
  Fe  Fe63      1.0  0.46425  0.61920  0.99205  1.0000
  C   C963      1.0  0.26808  0.88966  0.06928  1.0000
  C   C964      1.0  0.22135  0.93125  0.16185  1.0000
  H   H773      1.0  0.44011  0.88353  0.16243  1.0000
  C   C965      1.0  0.30346  0.87076  0.19639  1.0000
  H   H774      1.0  0.40688  0.00412  0.05101  1.0000
  C   C966      1.0  0.16473  0.82539  0.08748  1.0000
  H   H775      1.0  0.38013  0.58650  0.11271  1.0000
  C   C967      1.0  0.45828  0.96766  0.99634  1.0000
  H   H776      1.0  0.13229  0.67576  0.01845  1.0000
  C   C968      1.0  0.24517  0.90325  0.04608  1.0000
  H   H777      1.0  0.08764  0.73340  0.13508  1.0000
  H   H778      1.0  0.48026  0.60566  0.12955  1.0000
  S   S123      1.0  0.56253  0.84345  0.10680  1.0000
  H   H779      1.0  0.52683  0.59217  0.11444  1.0000
  C   C969      1.0  0.16857  0.61104  0.99518  1.0000
  C   C970      1.0  0.16128  0.94353  0.11358  1.0000
  C   C971      1.0  0.54992  0.55211  0.03031  1.0000
  H   H780      1.0  0.18500  0.61566  0.01883  1.0000
  C   C972      1.0  0.53364  0.98855  0.05785  1.0000
  C   C973      1.0  0.53208  0.56198  0.06460  1.0000
  C   C974      1.0  0.31847  0.57308  0.16204  1.0000
  S   S124      1.0  0.43572  0.68960  0.03691  1.0000
  H   H781      1.0  0.42742  0.97683  0.11869  1.0000
  H   H782      1.0  0.43221  0.85984  0.08170  1.0000
  H   H783      1.0  0.26351  0.97361  0.05203  1.0000
  H   H784      1.0  0.14810  0.03698  0.19418  1.0000
  S   S125      1.0  0.23673  0.61620  0.08530  1.0000
  C   C975      1.0  0.38344  0.56453  0.10404  1.0000
  S   S126      1.0  0.29115  0.02047  0.00338  1.0000
  C   C976      1.0  0.23687  0.67198  0.04489  1.0000
  C   C977      1.0  0.18427  0.73389  0.18941  1.0000
  H   H785      1.0  0.13218  0.65716  0.10100  1.0000
  C   C978      1.0  0.43500  0.98626  0.00185  1.0000
  S   S127      1.0  0.51610  0.87076  0.17524  1.0000
  C   C979      1.0  0.07540  0.57470  0.16370  1.0000
  H   H786      1.0  0.37559  0.69203  0.04481  1.0000
  C   C980      1.0  0.33897  0.56881  0.19624  1.0000
  H   H787      1.0  0.42917  0.74667  0.09967  1.0000
  C   C981      1.0  0.47678  0.56492  0.17279  1.0000
  H   H788      1.0  0.48788  0.93738  0.03097  1.0000
  Fe  Fe64      1.0  0.44316  0.64652  0.07742  1.0000
  H   H789      1.0  0.26957  0.86623  0.07356  1.0000
  P   P32       1.0  0.38550  0.85345  0.15230  1.0000
  C   C982      1.0  0.06455  0.59391  0.03451  1.0000
  H   H790      1.0  0.06805  0.65979  0.07490  1.0000
  H   H791      1.0  0.07773  0.57888  0.01740  1.0000
  H   H792      1.0  0.46069  0.79540  0.98609  1.0000
  Fe  Fe65      1.0  0.54621  0.87546  0.05046  1.0000
  C   C983      1.0  0.20511  0.70943  0.06876  1.0000
  C   C984      1.0  0.18526  0.85575  0.14058  1.0000
  C   C985      1.0  0.39238  0.81023  0.09422  1.0000
  C   C986      1.0  0.34146  0.75633  0.01880  1.0000
  H   H793      1.0  0.08746  0.75232  0.05289  1.0000
  C   C987      1.0  0.42189  0.89681  0.03444  1.0000
  C   C988      1.0  0.09723  0.72083  0.10932  1.0000
  P   P33       1.0  0.16541  0.91132  0.15421  1.0000
  S   S128      1.0  0.09456  0.02496  0.97764  1.0000
  H   H794      1.0  0.17396  0.69522  0.12259  1.0000
  C   C989      1.0  0.22040  0.02769  0.06397  1.0000
  H   H795      1.0  0.32327  0.62384  0.10303  1.0000
  H   H796      1.0  0.28281  0.91723  0.96905  1.0000
  H   H797      1.0  0.49619  0.03639  0.98741  1.0000
  C   C990      1.0  0.07635  0.61980  0.04591  1.0000
  C   C991      1.0  0.12234  0.67790  0.09008  1.0000
  H   H798      1.0  0.28856  0.80965  0.14667  1.0000
  C   C992      1.0  0.15941  0.58244  0.99345  1.0000
  C   C993      1.0  0.27608  0.73498  0.11101  1.0000
  C   C994      1.0  0.42982  0.87875  0.19626  1.0000
  P   P34       1.0  0.10918  0.72857  0.96812  1.0000
  C   C995      1.0  0.22758  0.70083  0.04051  1.0000
  C   C996      1.0  0.51472  0.78423  0.06307  1.0000
  H   H799      1.0  0.13218  0.89131  0.08026  1.0000
  C   C997      1.0  0.29238  0.58637  0.17234  1.0000
  C   C998      1.0  0.40297  0.78412  0.08111  1.0000
  C   C999      1.0  0.32141  0.61793  0.06843  1.0000
  C   C1000     1.0  0.50635  0.66362  0.16030  1.0000
  S   S129      1.0  0.42097  0.62109  0.02785  1.0000
  C   C1001     1.0  0.10989  0.69409  0.12306  1.0000
  H   H800      1.0  0.49021  0.67920  0.14871  1.0000
  H   H801      1.0  0.18946  0.64402  0.12925  1.0000
  H   H802      1.0  0.52585  0.77748  0.99275  1.0000
  C   C1002     1.0  0.34029  0.71972  0.19223  1.0000
  H   H803      1.0  0.40007  0.95566  0.18214  1.0000
  S   S130      1.0  0.54935  0.91307  0.09227  1.0000
  Fe  Fe66      1.0  0.28677  0.79865  0.01509  1.0000
  C   C1003     1.0  0.11458  0.88723  0.19579  1.0000
  H   H804      1.0  0.29727  0.70553  0.06915  1.0000
  S   S131      1.0  0.19389  0.74574  0.06443  1.0000
  C   C1004     1.0  0.19830  0.91520  0.18380  1.0000
  C   C1005     1.0  0.49357  0.74288  0.11052  1.0000
  C   C1006     1.0  0.33069  0.82816  0.15023  1.0000
  S   S132      1.0  0.26338  0.76534  0.98077  1.0000
  H   H805      1.0  0.09544  0.94303  0.06824  1.0000
  S   S133      1.0  0.56279  0.87446  0.97774  1.0000
  C   C1007     1.0  0.22197  0.01201  0.10750  1.0000
  S   S134      1.0  0.34098  0.97687  0.97358  1.0000
  C   C1008     1.0  0.20031  0.65979  0.10468  1.0000
  H   H806      1.0  0.23760  0.61563  0.98535  1.0000
  C   C1009     1.0  0.25215  0.71325  0.18193  1.0000
  C   C1010     1.0  0.28778  0.93682  0.08022  1.0000
  S   S135      1.0  0.48685  0.64138  0.04506  1.0000
  C   C1011     1.0  0.31998  0.63999  0.03172  1.0000
  H   H807      1.0  0.16413  0.80491  0.07267  1.0000
  H   H808      1.0  0.23811  0.71632  0.01561  1.0000
  H   H809      1.0  0.19849  0.74248  0.16111  1.0000
  H   H810      1.0  0.17793  0.96914  0.00158  1.0000
  S   S136      1.0  0.32936  0.78669  0.04461  1.0000
  H   H811      1.0  0.48430  0.73326  0.14317  1.0000
  H   H812      1.0  0.09872  0.62486  0.03745  1.0000
  H   H813      1.0  0.28327  0.66152  0.12203  1.0000
  Fe  Fe67      1.0  0.32394  0.99218  0.03924  1.0000
  H   H814      1.0  0.14645  0.74920  0.15440  1.0000
  C   C1012     1.0  0.52235  0.00214  0.01745  1.0000
  C   C1013     1.0  0.28734  0.84834  0.18149  1.0000
  H   H815      1.0  0.37841  0.82318  0.07127  1.0000
  C   C1014     1.0  0.37462  0.90394  0.09360  1.0000
  H   H816      1.0  0.46635  0.96452  0.96217  1.0000
  C   C1015     1.0  0.25959  0.73787  0.15116  1.0000
  H   H817      1.0  0.54745  0.97006  0.05613  1.0000
  C   C1016     1.0  0.27727  0.68292  0.13071  1.0000
  H   H818      1.0  0.16940  0.56509  0.01525  1.0000
  H   H819      1.0  0.35874  0.73508  0.08117  1.0000
  H   H820      1.0  0.25489  0.66610  0.19288  1.0000
  S   S137      1.0  0.24938  0.80684  0.06198  1.0000
  P   P35       1.0  0.32398  0.55974  0.10650  1.0000
  H   H821      1.0  0.39689  0.77720  0.04866  1.0000
  C   C1017     1.0  0.16955  0.96898  0.03670  1.0000
  C   C1018     1.0  0.37960  0.92346  0.05412  1.0000
  C   C1019     1.0  0.41146  0.55457  0.09838  1.0000
  H   H822      1.0  0.33139  0.71328  0.16108  1.0000
  C   C1020     1.0  0.17092  0.94362  0.06746  1.0000
  H   H823      1.0  0.32069  0.66256  0.03808  1.0000
  C   C1021     1.0  0.07524  0.93943  0.08762  1.0000
  C   C1022     1.0  0.41789  0.80240  0.16530  1.0000
  H   H824      1.0  0.27600  0.58902  0.14694  1.0000
  C   C1023     1.0  0.33311  0.87222  0.18759  1.0000
  H   H825      1.0  0.09234  0.57399  0.13761  1.0000
  H   H826      1.0  0.19860  0.81187  0.13292  1.0000
  C   C1024     1.0  0.28501  0.70760  0.10083  1.0000
  C   C1025     1.0  0.24609  0.93585  0.18584  1.0000
  C   C1026     1.0  0.50763  0.73888  0.03073  1.0000
  C   C1027     1.0  0.41705  0.87724  0.07402  1.0000
  C   C1028     1.0  0.07384  0.94156  0.13502  1.0000
  H   H827      1.0  0.48852  0.70425  0.07668  1.0000
  C   C1029     1.0  0.32094  0.58864  0.06007  1.0000
  Fe  Fe68      1.0  0.56133  0.88032  0.15025  1.0000
  C   C1030     1.0  0.07948  0.59012  0.20160  1.0000
  C   C1031     1.0  0.08290  0.78274  0.96854  1.0000
  S   S138      1.0  0.50983  0.71821  0.98422  1.0000
  S   S139      1.0  0.21005  0.81080  0.97047  1.0000
  C   C1032     1.0  0.28933  0.02541  0.14124  1.0000
  H   H828      1.0  0.41620  0.57185  0.97647  1.0000
  Fe  Fe69      1.0  0.37169  0.01436  0.97116  1.0000
  C   C1033     1.0  0.15962  0.89303  0.95931  1.0000
  H   H829      1.0  0.52825  0.71432  0.19315  1.0000
  H   H830      1.0  0.56264  0.74118  0.13903  1.0000
  S   S140      1.0  0.48452  0.58022  0.96469  1.0000
  H   H831      1.0  0.12432  0.55225  0.05555  1.0000
  C   C1034     1.0  0.55085  0.71360  0.20045  1.0000
  H   H832      1.0  0.40145  0.81911  0.95860  1.0000
  H   H833      1.0  0.32003  0.55932  0.00732  1.0000
  C   C1035     1.0  0.10593  0.01782  0.20659  1.0000
  C   C1036     1.0  0.46037  0.54824  0.20697  1.0000
  C   C1037     1.0  0.13807  0.57618  0.96313  1.0000
  C   C1038     1.0  0.45940  0.78051  0.96007  1.0000
  H   H834      1.0  0.16522  0.65543  0.96583  1.0000
  C   C1039     1.0  0.10862  0.76795  0.96144  1.0000
  C   C1040     1.0  0.15723  0.63352  0.96554  1.0000
  C   C1041     1.0  0.06941  0.68476  0.95849  1.0000
  S   S141      1.0  0.27672  0.83521  0.96116  1.0000
  H   H835      1.0  0.31772  0.65020  0.95819  1.0000
  S   S142      1.0  0.11135  0.60948  0.20669  1.0000
  H   H836      1.0  0.27625  0.00225  0.20603  1.0000
  S   S143      1.0  0.19315  0.60335  0.20697  1.0000
  H   H837      1.0  0.22727  0.89697  0.28854  1.0000
  C   C1042     1.0  0.56310  0.60626  0.35957  1.0000
  H   H838      1.0  0.30906  0.98995  0.33660  1.0000
  P   P36       1.0  0.46610  0.97275  0.30515  1.0000
  C   C1043     1.0  0.08044  0.92643  0.39613  1.0000
  H   H839      1.0  0.34922  0.57420  0.26620  1.0000
  H   H840      1.0  0.30318  0.97100  0.42973  1.0000
  H   H841      1.0  0.47278  0.76892  0.24295  1.0000
  C   C1044     1.0  0.16041  0.88393  0.37101  1.0000
  C   C1045     1.0  0.08955  0.89855  0.38922  1.0000
  H   H842      1.0  0.50975  0.02830  0.44324  1.0000
  C   C1046     1.0  0.35150  0.77091  0.34406  1.0000
  Fe  Fe70      1.0  0.17724  0.03066  0.35896  1.0000
  C   C1047     1.0  0.53624  0.69702  0.37298  1.0000
  H   H843      1.0  0.52529  0.99335  0.28525  1.0000
  S   S144      1.0  0.36869  0.90405  0.40701  1.0000
  C   C1048     1.0  0.08808  0.62271  0.38238  1.0000
  C   C1049     1.0  0.14186  0.01803  0.26466  1.0000
  C   C1050     1.0  0.08646  0.00407  0.23965  1.0000
  H   H844      1.0  0.47745  0.91663  0.35884  1.0000
  C   C1051     1.0  0.46539  0.97874  0.36524  1.0000
  H   H845      1.0  0.08040  0.98438  0.30950  1.0000
  C   C1052     1.0  0.30733  0.80774  0.36934  1.0000
  H   H846      1.0  0.23319  0.01855  0.26527  1.0000
  C   C1053     1.0  0.24523  0.95522  0.33213  1.0000
  H   H847      1.0  0.25730  0.56106  0.37937  1.0000
  H   H848      1.0  0.15170  0.94285  0.23429  1.0000
  H   H849      1.0  0.23426  0.93531  0.34586  1.0000
  H   H850      1.0  0.40578  0.65198  0.45625  1.0000
  C   C1054     1.0  0.41294  0.76578  0.31424  1.0000
  H   H851      1.0  0.40011  0.83437  0.42964  1.0000
  C   C1055     1.0  0.30521  0.99404  0.43212  1.0000
  C   C1056     1.0  0.40830  0.95525  0.31400  1.0000
  Fe  Fe71      1.0  0.11830  0.75910  0.36963  1.0000
  H   H852      1.0  0.27560  0.70760  0.31052  1.0000
  H   H853      1.0  0.13236  0.70621  0.29177  1.0000
  P   P37       1.0  0.37881  0.74718  0.32437  1.0000
  S   S145      1.0  0.13927  0.01802  0.40586  1.0000
  H   H854      1.0  0.35232  0.81096  0.42907  1.0000
  H   H855      1.0  0.07342  0.90188  0.28883  1.0000
  C   C1057     1.0  0.09515  0.99585  0.28441  1.0000
  C   C1058     1.0  0.48860  0.94253  0.29429  1.0000
  H   H856      1.0  0.13040  0.99374  0.32978  1.0000
  C   C1059     1.0  0.44224  0.99851  0.43072  1.0000
  C   C1060     1.0  0.26441  0.68747  0.30749  1.0000
  C   C1061     1.0  0.12321  0.00185  0.29630  1.0000
  H   H857      1.0  0.32478  0.73610  0.37849  1.0000
  H   H858      1.0  0.08922  0.85351  0.41646  1.0000
  H   H859      1.0  0.22302  0.94181  0.43078  1.0000
  C   C1062     1.0  0.17217  0.71491  0.40801  1.0000
  H   H860      1.0  0.24268  0.61657  0.43661  1.0000
  C   C1063     1.0  0.52688  0.72408  0.38519  1.0000
  C   C1064     1.0  0.20098  0.90231  0.22925  1.0000
  S   S146      1.0  0.20817  0.00315  0.40162  1.0000
  H   H861      1.0  0.28656  0.76879  0.40151  1.0000
  H   H862      1.0  0.42620  0.74307  0.25611  1.0000
  C   C1065     1.0  0.33120  0.81935  0.34339  1.0000
  C   C1066     1.0  0.45834  0.77366  0.27108  1.0000
  H   H863      1.0  0.48262  0.64972  0.22349  1.0000
  C   C1067     1.0  0.50902  0.81569  0.45059  1.0000
  C   C1068     1.0  0.33361  0.57827  0.23960  1.0000
  H   H864      1.0  0.17172  0.95542  0.38281  1.0000
  C   C1069     1.0  0.10689  0.61887  0.41882  1.0000
  S   S147      1.0  0.22013  0.55333  0.30756  1.0000
  H   H865      1.0  0.45404  0.81628  0.35893  1.0000
  C   C1070     1.0  0.16669  0.93275  0.39263  1.0000
  C   C1071     1.0  0.43594  0.56018  0.22661  1.0000
  Fe  Fe72      1.0  0.12829  0.82349  0.33703  1.0000
  H   H866      1.0  0.29287  0.88758  0.21336  1.0000
  P   P38       1.0  0.28983  0.04180  0.27618  1.0000
  H   H867      1.0  0.29025  0.74379  0.24182  1.0000
  C   C1072     1.0  0.34680  0.02547  0.28503  1.0000
  H   H868      1.0  0.35831  0.94376  0.23554  1.0000
  C   C1073     1.0  0.54502  0.60919  0.43786  1.0000
  C   C1074     1.0  0.11238  0.92457  0.26474  1.0000
  C   C1075     1.0  0.26894  0.54935  0.35465  1.0000
  H   H869      1.0  0.51085  0.03164  0.35834  1.0000
  H   H870      1.0  0.22397  0.89040  0.41414  1.0000
  C   C1076     1.0  0.48091  0.00541  0.27376  1.0000
  C   C1077     1.0  0.11439  0.56204  0.32245  1.0000
  H   H871      1.0  0.34457  0.69630  0.30628  1.0000
  C   C1078     1.0  0.52520  0.89667  0.27786  1.0000
  C   C1079     1.0  0.44290  0.99437  0.38396  1.0000
  H   H872      1.0  0.34057  0.00560  0.27159  1.0000
  C   C1080     1.0  0.55540  0.77542  0.33399  1.0000
  H   H873      1.0  0.41024  0.95380  0.35102  1.0000
  C   C1081     1.0  0.50853  0.89511  0.31873  1.0000
  H   H874      1.0  0.49141  0.83031  0.44225  1.0000
  H   H875      1.0  0.39117  0.01338  0.28770  1.0000
  S   S148      1.0  0.13414  0.78285  0.30219  1.0000
  C   C1082     1.0  0.15908  0.92290  0.43859  1.0000
  H   H876      1.0  0.20229  0.76691  0.27059  1.0000
  C   C1083     1.0  0.44339  0.88729  0.23460  1.0000
  C   C1084     1.0  0.33380  0.03814  0.42279  1.0000
  S   S149      1.0  0.08290  0.83009  0.31515  1.0000
  C   C1085     1.0  0.08222  0.87512  0.42176  1.0000
  H   H877      1.0  0.54481  0.68581  0.26445  1.0000
  H   H878      1.0  0.45480  0.71035  0.39191  1.0000
  H   H879      1.0  0.21842  0.81382  0.29221  1.0000
  C   C1086     1.0  0.23088  0.97618  0.30347  1.0000
  C   C1087     1.0  0.22504  0.77173  0.26880  1.0000
  H   H880      1.0  0.55966  0.93798  0.40410  1.0000
  C   C1088     1.0  0.22756  0.65987  0.27495  1.0000
  C   C1089     1.0  0.38909  0.69538  0.44577  1.0000
  C   C1090     1.0  0.46288  0.02728  0.25430  1.0000
  C   C1091     1.0  0.24516  0.75157  0.25474  1.0000
  H   H881      1.0  0.39949  0.60392  0.42597  1.0000
  H   H882      1.0  0.09061  0.64124  0.35637  1.0000
  C   C1092     1.0  0.13352  0.02517  0.21925  1.0000
  H   H883      1.0  0.50767  0.79684  0.38704  1.0000
  H   H884      1.0  0.55497  0.99144  0.38851  1.0000
  C   C1093     1.0  0.14679  0.71349  0.26281  1.0000
  C   C1094     1.0  0.28699  0.59567  0.21578  1.0000
  H   H885      1.0  0.51819  0.61240  0.25016  1.0000
  H   H886      1.0  0.28459  0.94411  0.36615  1.0000
  C   C1095     1.0  0.27353  0.96021  0.34349  1.0000
  H   H887      1.0  0.23078  0.79420  0.39641  1.0000
  H   H888      1.0  0.26111  0.99884  0.45447  1.0000
  C   C1096     1.0  0.48858  0.97000  0.39286  1.0000
  C   C1097     1.0  0.22073  0.61181  0.44838  1.0000
  H   H889      1.0  0.55884  0.69279  0.36716  1.0000
  H   H890      1.0  0.37037  0.84689  0.25122  1.0000
  C   C1098     1.0  0.09079  0.90383  0.26300  1.0000
  H   H891      1.0  0.44658  0.96902  0.21207  1.0000
  H   H892      1.0  0.42406  0.00929  0.44546  1.0000
  H   H893      1.0  0.53477  0.92143  0.21214  1.0000
  C   C1099     1.0  0.34828  0.71008  0.27409  1.0000
  C   C1100     1.0  0.24812  0.92390  0.23171  1.0000
  H   H894      1.0  0.41392  0.64824  0.37239  1.0000
  H   H895      1.0  0.15876  0.58453  0.41281  1.0000
  H   H896      1.0  0.55813  0.82592  0.21814  1.0000
  H   H897      1.0  0.50718  0.95974  0.37871  1.0000
  H   H898      1.0  0.52457  0.58478  0.38928  1.0000
  C   C1101     1.0  0.40433  0.86673  0.28455  1.0000
  H   H899      1.0  0.17369  0.92100  0.32368  1.0000
  H   H900      1.0  0.18380  0.88902  0.24626  1.0000
  C   C1102     1.0  0.20155  0.60008  0.41960  1.0000
  C   C1103     1.0  0.13496  0.92690  0.23179  1.0000
  C   C1104     1.0  0.42158  0.78571  0.34411  1.0000
  H   H901      1.0  0.15805  0.57515  0.33087  1.0000
  C   C1105     1.0  0.23557  0.63490  0.30278  1.0000
  C   C1106     1.0  0.18460  0.69479  0.44076  1.0000
  C   C1107     1.0  0.43185  0.75927  0.27838  1.0000
  C   C1108     1.0  0.23414  0.79851  0.28119  1.0000
  C   C1109     1.0  0.37878  0.94907  0.24903  1.0000
  H   H902      1.0  0.36357  0.94333  0.32001  1.0000
  H   H903      1.0  0.51056  0.88003  0.42265  1.0000
  H   H904      1.0  0.07631  0.86793  0.22860  1.0000
  H   H905      1.0  0.18430  0.81925  0.40395  1.0000
  C   C1110     1.0  0.48712  0.67963  0.37538  1.0000
  C   C1111     1.0  0.30522  0.77778  0.38186  1.0000
  H   H906      1.0  0.26647  0.60520  0.22376  1.0000
  C   C1112     1.0  0.51078  0.00928  0.26890  1.0000
  C   C1113     1.0  0.47753  0.70668  0.38633  1.0000
  C   C1114     1.0  0.27445  0.75881  0.25305  1.0000
  C   C1115     1.0  0.19186  0.80474  0.43263  1.0000
  C   C1116     1.0  0.42856  0.96371  0.23605  1.0000
  C   C1117     1.0  0.18978  0.73277  0.37697  1.0000
  C   C1118     1.0  0.24466  0.00231  0.28690  1.0000
  C   C1119     1.0  0.54048  0.77680  0.43059  1.0000
  H   H907      1.0  0.20866  0.59526  0.38552  1.0000
  C   C1120     1.0  0.50263  0.88975  0.45246  1.0000
  H   H908      1.0  0.10736  0.58389  0.31108  1.0000
  C   C1121     1.0  0.42759  0.58863  0.21120  1.0000
  C   C1122     1.0  0.46621  0.79442  0.29970  1.0000
  H   H909      1.0  0.37349  0.73827  0.42569  1.0000
  C   C1123     1.0  0.17320  0.59421  0.43502  1.0000
  H   H910      1.0  0.54530  0.03607  0.23742  1.0000
  C   C1124     1.0  0.23207  0.71090  0.41236  1.0000
  H   H911      1.0  0.47192  0.66223  0.37257  1.0000
  C   C1125     1.0  0.48783  0.97412  0.43954  1.0000
  C   C1126     1.0  0.51641  0.67493  0.36835  1.0000
  P   P39       1.0  0.23362  0.71741  0.23641  1.0000
  H   H912      1.0  0.12387  0.63471  0.42057  1.0000
  H   H913      1.0  0.37143  0.81010  0.31047  1.0000
  H   H914      1.0  0.28930  0.66352  0.35957  1.0000
  H   H915      1.0  0.53663  0.74370  0.29435  1.0000
  C   C1127     1.0  0.52189  0.62583  0.21761  1.0000
  H   H916      1.0  0.50186  0.96070  0.22494  1.0000
  C   C1128     1.0  0.21450  0.69320  0.44357  1.0000
  C   C1129     1.0  0.22574  0.90671  0.25319  1.0000
  Fe  Fe73      1.0  0.40652  0.89614  0.45143  1.0000
  H   H917      1.0  0.07335  0.68972  0.38713  1.0000
  H   H918      1.0  0.11200  0.93849  0.29214  1.0000
  C   C1130     1.0  0.44791  0.80031  0.33643  1.0000
  Fe  Fe74      1.0  0.21380  0.04190  0.44024  1.0000
  C   C1131     1.0  0.38181  0.94863  0.29654  1.0000
  C   C1132     1.0  0.28405  0.03956  0.44948  1.0000
  C   C1133     1.0  0.55735  0.81185  0.25044  1.0000
  C   C1134     1.0  0.16781  0.91322  0.35910  1.0000
  C   C1135     1.0  0.26333  0.80551  0.27931  1.0000
  S   S150      1.0  0.16078  0.86010  0.32800  1.0000
  H   H919      1.0  0.21044  0.65836  0.25115  1.0000
  H   H920      1.0  0.30749  0.54691  0.39290  1.0000
  C   C1136     1.0  0.09214  0.88498  0.22883  1.0000
  C   C1137     1.0  0.40048  0.66999  0.43098  1.0000
  S   S151      1.0  0.11550  0.79940  0.40534  1.0000
  C   C1138     1.0  0.17635  0.70948  0.26659  1.0000
  C   C1139     1.0  0.39782  0.69113  0.35152  1.0000
  H   H921      1.0  0.22442  0.61457  0.30074  1.0000
  H   H922      1.0  0.32443  0.68177  0.23512  1.0000
  H   H923      1.0  0.26432  0.61664  0.35417  1.0000
  C   C1140     1.0  0.32709  0.75934  0.36906  1.0000
  C   C1141     1.0  0.21973  0.73031  0.37863  1.0000
  Fe  Fe75      1.0  0.20295  0.55790  0.23634  1.0000
  C   C1142     1.0  0.54647  0.78358  0.25215  1.0000
  C   C1143     1.0  0.36710  0.75418  0.23084  1.0000
  C   C1144     1.0  0.28347  0.78568  0.26519  1.0000
  H   H924      1.0  0.08049  0.65938  0.23017  1.0000
  C   C1145     1.0  0.38559  0.71642  0.36610  1.0000
  C   C1146     1.0  0.21813  0.79077  0.42839  1.0000
  S   S152      1.0  0.36003  0.98964  0.39684  1.0000
  H   H925      1.0  0.42547  0.00278  0.36291  1.0000
  C   C1147     1.0  0.52231  0.03355  0.24183  1.0000
  H   H926      1.0  0.40790  0.79007  0.37322  1.0000
  H   H927      1.0  0.29056  0.82197  0.38018  1.0000
  H   H928      1.0  0.53973  0.87928  0.27142  1.0000
  C   C1148     1.0  0.27300  0.00762  0.29831  1.0000
  C   C1149     1.0  0.35315  0.80096  0.33066  1.0000
  C   C1150     1.0  0.38444  0.58900  0.44507  1.0000
  H   H929      1.0  0.30609  0.79113  0.26347  1.0000
  Fe  Fe76      1.0  0.36424  0.94627  0.43717  1.0000
  C   C1151     1.0  0.37570  0.03003  0.29326  1.0000
  C   C1152     1.0  0.25807  0.63608  0.33280  1.0000
  C   C1153     1.0  0.51802  0.79630  0.41973  1.0000
  H   H930      1.0  0.50976  0.87617  0.34387  1.0000
  C   C1154     1.0  0.28741  0.98632  0.32661  1.0000
  H   H931      1.0  0.56128  0.59793  0.32658  1.0000
  C   C1155     1.0  0.40226  0.95619  0.21887  1.0000
  H   H932      1.0  0.10275  0.89501  0.35918  1.0000
  C   C1156     1.0  0.54539  0.76540  0.29376  1.0000
  H   H933      1.0  0.33285  0.84263  0.33404  1.0000
  C   C1157     1.0  0.14295  0.55715  0.33356  1.0000
  H   H934      1.0  0.42342  0.54749  0.25359  1.0000
  S   S153      1.0  0.13466  0.71744  0.40671  1.0000
  C   C1158     1.0  0.50403  0.94300  0.25213  1.0000
  C   C1159     1.0  0.52265  0.92049  0.24450  1.0000
  H   H935      1.0  0.46372  0.89878  0.22981  1.0000
  H   H936      1.0  0.14607  0.85190  0.42600  1.0000
  H   H937      1.0  0.53883  0.77577  0.22112  1.0000
  H   H938      1.0  0.43985  0.02540  0.25915  1.0000
  H   H939      1.0  0.07448  0.00223  0.41475  1.0000
  C   C1160     1.0  0.54236  0.59888  0.39491  1.0000
  H   H940      1.0  0.37818  0.77483  0.22941  1.0000
  C   C1161     1.0  0.39074  0.85812  0.24624  1.0000
  C   C1162     1.0  0.13595  0.72772  0.22237  1.0000
  C   C1163     1.0  0.10356  0.59500  0.45285  1.0000
  H   H941      1.0  0.18034  0.74838  0.35172  1.0000
  H   H942      1.0  0.44093  0.88822  0.30841  1.0000
  H   H943      1.0  0.40844  0.59767  0.22585  1.0000
  H   H944      1.0  0.34729  0.60973  0.41471  1.0000
  C   C1164     1.0  0.33653  0.70191  0.23394  1.0000
  H   H945      1.0  0.08683  0.94476  0.37160  1.0000
  H   H946      1.0  0.48654  0.80585  0.29336  1.0000
  C   C1165     1.0  0.07358  0.00761  0.44997  1.0000
  Fe  Fe77      1.0  0.07048  0.80333  0.38129  1.0000
  S   S154      1.0  0.26944  0.71018  0.41677  1.0000
  C   C1166     1.0  0.43061  0.88138  0.27870  1.0000
  S   S155      1.0  0.44799  0.87712  0.42731  1.0000
  H   H947      1.0  0.40193  0.68934  0.31517  1.0000
  C   C1167     1.0  0.49727  0.72887  0.39095  1.0000
  C   C1168     1.0  0.15239  0.87422  0.41677  1.0000
  H   H948      1.0  0.23342  0.74424  0.35512  1.0000
  C   C1169     1.0  0.38189  0.71865  0.41352  1.0000
  H   H949      1.0  0.52382  0.65400  0.35967  1.0000
  C   C1170     1.0  0.40492  0.66788  0.38386  1.0000
  C   C1171     1.0  0.30764  0.59167  0.24939  1.0000
  H   H950      1.0  0.20879  0.97260  0.29499  1.0000
  C   C1172     1.0  0.33119  0.00840  0.41930  1.0000
  S   S156      1.0  0.07220  0.76096  0.35089  1.0000
  H   H951      1.0  0.48916  0.74944  0.39964  1.0000
  C   C1173     1.0  0.49026  0.91802  0.32702  1.0000
  H   H952      1.0  0.39448  0.86232  0.31882  1.0000
  C   C1174     1.0  0.23043  0.89606  0.44732  1.0000
  C   C1175     1.0  0.24206  0.68634  0.27677  1.0000
  C   C1176     1.0  0.27235  0.66239  0.33536  1.0000
  S   S157      1.0  0.17493  0.03065  0.28182  1.0000
  C   C1177     1.0  0.08072  0.57546  0.45036  1.0000
  Fe  Fe78      1.0  0.08752  0.78753  0.28580  1.0000
  H   H953      1.0  0.18433  0.69934  0.29886  1.0000
  H   H954      1.0  0.26713  0.92783  0.25043  1.0000
  P   P40       1.0  0.55261  0.75306  0.38870  1.0000
  H   H955      1.0  0.27032  0.82633  0.28869  1.0000
  H   H956      1.0  0.30314  0.59801  0.28352  1.0000
  C   C1178     1.0  0.52509  0.04511  0.37553  1.0000
  C   C1179     1.0  0.43166  0.96378  0.28378  1.0000
  C   C1180     1.0  0.36440  0.73589  0.27250  1.0000
  C   C1181     1.0  0.19531  0.71937  0.22962  1.0000
  C   C1182     1.0  0.06584  0.60277  0.37960  1.0000
  C   C1183     1.0  0.52437  0.04340  0.42366  1.0000
  C   C1184     1.0  0.29364  0.04488  0.21446  1.0000
  S   S158      1.0  0.07117  0.78166  0.21569  1.0000
  C   C1185     1.0  0.28137  0.00980  0.44587  1.0000
  C   C1186     1.0  0.15202  0.89356  0.45061  1.0000
  H   H957      1.0  0.11307  0.73132  0.21979  1.0000
  C   C1187     1.0  0.56012  0.69786  0.24082  1.0000
  C   C1188     1.0  0.23002  0.92500  0.45661  1.0000
  Fe  Fe79      1.0  0.17032  0.99226  0.44998  1.0000
  C   C1189     1.0  0.39436  0.81612  0.45487  1.0000
  C   C1190     1.0  0.35506  0.59213  0.43851  1.0000
  C   C1191     1.0  0.36760  0.80273  0.45406  1.0000
  C   C1192     1.0  0.97326  0.27036  0.47957  1.0000
  H   H958      1.0  0.97502  0.15208  0.49750  1.0000
  C   C1193     1.0  0.04982  0.39543  0.47333  1.0000
  H   H959      1.0  0.01057  0.04657  0.59180  1.0000
  S   S159      1.0  0.61767  0.12300  0.63645  1.0000
  C   C1194     1.0  0.02226  0.06653  0.59371  1.0000
  C   C1195     1.0  0.77805  0.50777  0.50756  1.0000
  H   H960      1.0  0.87921  0.48226  0.60126  1.0000
  C   C1196     1.0  0.62170  0.43396  0.63764  1.0000
  C   C1197     1.0  0.93414  0.44997  0.48722  1.0000
  C   C1198     1.0  0.00497  0.26749  0.65580  1.0000
  H   H961      1.0  0.61575  0.24684  0.51089  1.0000
  P   P41       1.0  0.66785  0.28348  0.48871  1.0000
  H   H962      1.0  0.73602  0.22536  0.62321  1.0000
  C   C1199     1.0  0.73158  0.37382  0.68134  1.0000
  C   C1200     1.0  0.04878  0.16789  0.68117  1.0000
  H   H963      1.0  0.84286  0.49203  0.66132  1.0000
  H   H964      1.0  0.71906  0.43406  0.70498  1.0000
  S   S160      1.0  0.82689  0.42001  0.60215  1.0000
  C   C1201     1.0  0.89867  0.53369  0.49579  1.0000
  H   H965      1.0  0.84378  0.14066  0.61617  1.0000
  C   C1202     1.0  0.67239  0.36546  0.67632  1.0000
  H   H966      1.0  0.78334  0.26333  0.49782  1.0000
  H   H967      1.0  0.94151  0.10686  0.66089  1.0000
  C   C1203     1.0  0.58885  0.09989  0.65419  1.0000
  H   H968      1.0  0.64515  0.40608  0.55336  1.0000
  C   C1204     1.0  0.96647  0.34776  0.70559  1.0000
  C   C1205     1.0  0.93074  0.24373  0.66486  1.0000
  H   H969      1.0  0.63575  0.32722  0.53866  1.0000
  C   C1206     1.0  0.86531  0.49114  0.66940  1.0000
  H   H970      1.0  0.89303  0.12111  0.55236  1.0000
  S   S161      1.0  0.84485  0.15075  0.50226  1.0000
  C   C1207     1.0  0.56902  0.05342  0.68772  1.0000
  C   C1208     1.0  0.72689  0.53908  0.49506  1.0000
  H   H971      1.0  0.02179  0.35107  0.54509  1.0000
  H   H972      1.0  0.56802  0.49166  0.50607  1.0000
  H   H973      1.0  0.80571  0.33059  0.46659  1.0000
  H   H974      1.0  0.61426  0.06430  0.68437  1.0000
  H   H975      1.0  0.62465  0.41452  0.62090  1.0000
  C   C1209     1.0  0.93871  0.38955  0.58030  1.0000
  C   C1210     1.0  0.87122  0.53660  0.47857  1.0000
  C   C1211     1.0  0.59114  0.44017  0.53104  1.0000
  C   C1212     1.0  0.04685  0.37356  0.64741  1.0000
  C   C1213     1.0  0.96841  0.17387  0.67332  1.0000
  C   C1214     1.0  0.75543  0.23441  0.46845  1.0000
  H   H976      1.0  0.98736  0.34784  0.68842  1.0000
  C   C1215     1.0  0.74066  0.20789  0.47460  1.0000
  C   C1216     1.0  0.94554  0.41452  0.64790  1.0000
  H   H977      1.0  0.80158  0.08054  0.61555  1.0000
  S   S162      1.0  0.74876  0.14322  0.68702  1.0000
  H   H978      1.0  0.90776  0.41839  0.69133  1.0000
  Fe  Fe80      1.0  0.80684  0.44234  0.53930  1.0000
  C   C1217     1.0  0.96296  0.21708  0.53287  1.0000
  P   P42       1.0  0.89262  0.06126  0.53146  1.0000
  H   H979      1.0  0.76114  0.18310  0.58239  1.0000
  H   H980      1.0  0.61534  0.42959  0.47031  1.0000
  C   C1218     1.0  0.57443  0.40831  0.47663  1.0000
  C   C1219     1.0  0.87188  0.06625  0.48016  1.0000
  C   C1220     1.0  0.80447  0.20133  0.67497  1.0000
  S   S163      1.0  0.96771  0.43351  0.68187  1.0000
  H   H981      1.0  0.94729  0.38224  0.54882  1.0000
  H   H982      1.0  0.92355  0.21616  0.49651  1.0000
  P   P43       1.0  0.79554  0.23562  0.59091  1.0000
  C   C1221     1.0  0.00923  0.07383  0.70558  1.0000
  C   C1222     1.0  0.87050  0.06642  0.58213  1.0000
  H   H983      1.0  0.96198  0.15077  0.61435  1.0000
  C   C1223     1.0  0.93362  0.13922  0.52758  1.0000
  H   H984      1.0  0.89316  0.30634  0.64001  1.0000
  C   C1224     1.0  0.77241  0.24258  0.50339  1.0000
  H   H985      1.0  0.90609  0.06331  0.62826  1.0000
  S   S164      1.0  0.67070  0.06204  0.59480  1.0000
  C   C1225     1.0  0.87483  0.26343  0.65132  1.0000
  H   H986      1.0  0.59267  0.09284  0.52548  1.0000
  H   H987      1.0  0.01087  0.13966  0.58387  1.0000
  C   C1226     1.0  0.70232  0.31729  0.59783  1.0000
  S   S165      1.0  0.57858  0.24831  0.60736  1.0000
  H   H988      1.0  0.85321  0.27114  0.64580  1.0000
  H   H989      1.0  0.82397  0.07910  0.69150  1.0000
  Fe  Fe81      1.0  0.05339  0.46849  0.58063  1.0000
  C   C1227     1.0  0.65214  0.19524  0.57635  1.0000
  C   C1228     1.0  0.79142  0.52952  0.61410  1.0000
  H   H990      1.0  0.70871  0.50763  0.54822  1.0000
  C   C1229     1.0  0.82432  0.07629  0.61829  1.0000
  C   C1230     1.0  0.05203  0.06619  0.59965  1.0000
  C   C1231     1.0  0.95553  0.32742  0.52179  1.0000
  C   C1232     1.0  0.62328  0.32117  0.51079  1.0000
  H   H991      1.0  0.95931  0.19639  0.55318  1.0000
  H   H992      1.0  0.01165  0.27218  0.51634  1.0000
  C   C1233     1.0  0.88432  0.45773  0.50745  1.0000
  C   C1234     1.0  0.59558  0.42641  0.49083  1.0000
  H   H993      1.0  0.93074  0.48063  0.61929  1.0000
  H   H994      1.0  0.00231  0.26910  0.61886  1.0000
  H   H995      1.0  0.72383  0.42254  0.47470  1.0000
  H   H996      1.0  0.86273  0.21812  0.66045  1.0000
  C   C1235     1.0  0.59288  0.07182  0.67636  1.0000
  C   C1236     1.0  0.68457  0.23335  0.54270  1.0000
  H   H997      1.0  0.71184  0.47484  0.46104  1.0000
  H   H998      1.0  0.64672  0.05285  0.50323  1.0000
  H   H999      1.0  0.78118  0.05601  0.49234  1.0000
  H   H1000     1.0  0.79647  0.50779  0.62914  1.0000
  C   C1237     1.0  0.69929  0.46966  0.66466  1.0000
  C   C1238     1.0  0.98287  0.33980  0.51418  1.0000
  Fe  Fe82      1.0  0.05346  0.24404  0.54286  1.0000
  C   C1239     1.0  0.57864  0.32511  0.47063  1.0000
  H   H1001     1.0  0.75046  0.11995  0.55958  1.0000
  C   C1240     1.0  0.70687  0.45386  0.70610  1.0000
  C   C1241     1.0  0.76285  0.53828  0.61181  1.0000
  C   C1242     1.0  0.62942  0.20937  0.55369  1.0000
  C   C1243     1.0  0.70409  0.43052  0.48942  1.0000
  H   H1002     1.0  0.97786  0.19275  0.65286  1.0000
  S   S166      1.0  0.76890  0.37706  0.68115  1.0000
  H   H1003     1.0  0.69720  0.19631  0.58898  1.0000
  C   C1244     1.0  0.71903  0.31138  0.50647  1.0000
  C   C1245     1.0  0.95967  0.15012  0.65150  1.0000
  Fe  Fe83      1.0  0.72081  0.11296  0.65378  1.0000
  H   H1004     1.0  0.97933  0.40562  0.59942  1.0000
  C   C1246     1.0  0.72562  0.25801  0.66729  1.0000
  H   H1005     1.0  0.98441  0.09276  0.58518  1.0000
  H   H1006     1.0  0.92548  0.30571  0.57068  1.0000
  C   C1247     1.0  0.87584  0.26196  0.53953  1.0000
  H   H1007     1.0  0.64819  0.17535  0.59900  1.0000
  C   C1248     1.0  0.82233  0.18188  0.60604  1.0000
  C   C1249     1.0  0.99159  0.32978  0.59545  1.0000
  H   H1008     1.0  0.88991  0.30434  0.50920  1.0000
  H   H1009     1.0  0.00043  0.08904  0.67925  1.0000
  C   C1250     1.0  0.84094  0.07171  0.57893  1.0000
  Fe  Fe84      1.0  0.78684  0.39281  0.61030  1.0000
  C   C1251     1.0  0.76524  0.12019  0.53070  1.0000
  C   C1252     1.0  0.61061  0.50099  0.52808  1.0000
  H   H1010     1.0  0.75381  0.47965  0.55866  1.0000
  C   C1253     1.0  0.99283  0.25952  0.51195  1.0000
  C   C1254     1.0  0.82925  0.15510  0.68079  1.0000
  H   H1011     1.0  0.60612  0.50606  0.61729  1.0000
  H   H1012     1.0  0.95226  0.06280  0.49303  1.0000
  C   C1255     1.0  0.65976  0.42163  0.53443  1.0000
  C   C1256     1.0  0.05182  0.11915  0.59370  1.0000
  Fe  Fe85      1.0  0.84259  0.38746  0.55594  1.0000
  H   H1013     1.0  0.91265  0.51686  0.48518  1.0000
  C   C1257     1.0  0.82202  0.28701  0.54993  1.0000
  C   C1258     1.0  0.95672  0.40362  0.60829  1.0000
  Fe  Fe86      1.0  0.00184  0.50425  0.54785  1.0000
  C   C1259     1.0  0.85273  0.24492  0.55867  1.0000
  Fe  Fe87      1.0  0.03359  0.51936  0.63058  1.0000
  H   H1014     1.0  0.65000  0.51874  0.55121  1.0000
  H   H1015     1.0  0.67768  0.50751  0.63324  1.0000
  C   C1260     1.0  0.00070  0.34136  0.55112  1.0000
  C   C1261     1.0  0.92548  0.27375  0.65767  1.0000
  H   H1016     1.0  0.04350  0.24219  0.65217  1.0000
  H   H1017     1.0  0.83064  0.07291  0.54615  1.0000
  C   C1262     1.0  0.61114  0.48516  0.63533  1.0000
  Fe  Fe88      1.0  0.70761  0.08919  0.56293  1.0000
  C   C1263     1.0  0.78122  0.27945  0.64666  1.0000
  H   H1018     1.0  0.83678  0.13597  0.70166  1.0000
  H   H1019     1.0  0.72633  0.30891  0.47152  1.0000
  C   C1264     1.0  0.91481  0.48488  0.64560  1.0000
  S   S167      1.0  0.97196  0.51764  0.49145  1.0000
  S   S168      1.0  0.63594  0.35913  0.66941  1.0000
  Fe  Fe89      1.0  0.78562  0.38597  0.50672  1.0000
  H   H1020     1.0  0.80119  0.29698  0.55280  1.0000
  H   H1021     1.0  0.57580  0.05960  0.58924  1.0000
  H   H1022     1.0  0.73108  0.16920  0.52041  1.0000
  H   H1023     1.0  0.68997  0.16247  0.67484  1.0000
  Fe  Fe90      1.0  0.99762  0.46359  0.63764  1.0000
  H   H1024     1.0  0.95220  0.23565  0.66991  1.0000
  S   S169      1.0  0.80366  0.35891  0.56754  1.0000
  C   C1265     1.0  0.04401  0.37655  0.69447  1.0000
  S   S170      1.0  0.63969  0.27525  0.67448  1.0000
  Fe  Fe91      1.0  0.62188  0.31515  0.70081  1.0000
  Fe  Fe92      1.0  0.65963  0.10078  0.63186  1.0000
  H   H1025     1.0  0.00598  0.33035  0.62334  1.0000
  C   C1266     1.0  0.67972  0.20717  0.57078  1.0000
  H   H1026     1.0  0.83530  0.54086  0.59656  1.0000
  C   C1267     1.0  0.79265  0.13117  0.53462  1.0000
  C   C1268     1.0  0.02221  0.11919  0.58842  1.0000
  C   C1269     1.0  0.57458  0.10726  0.52713  1.0000
  H   H1027     1.0  0.85660  0.22220  0.56835  1.0000
  S   S171      1.0  0.82579  0.41198  0.49217  1.0000
  C   C1270     1.0  0.72921  0.32735  0.58058  1.0000
  C   C1271     1.0  0.91646  0.41025  0.66044  1.0000
  C   C1272     1.0  0.81482  0.17682  0.70178  1.0000
  H   H1028     1.0  0.64552  0.10631  0.49502  1.0000
  H   H1029     1.0  0.67479  0.40017  0.62098  1.0000
  C   C1273     1.0  0.73534  0.28194  0.68758  1.0000
  H   H1030     1.0  0.91720  0.44875  0.55692  1.0000
  C   C1274     1.0  0.77513  0.22408  0.54458  1.0000
  C   C1275     1.0  0.94646  0.31561  0.56610  1.0000
  C   C1276     1.0  0.64371  0.06445  0.46950  1.0000
  H   H1031     1.0  0.70602  0.24254  0.53942  1.0000
  C   C1277     1.0  0.94818  0.25500  0.47418  1.0000
  C   C1278     1.0  0.71614  0.39068  0.64828  1.0000
  C   C1279     1.0  0.94540  0.32747  0.69743  1.0000
  C   C1280     1.0  0.88579  0.48564  0.63549  1.0000
  H   H1032     1.0  0.91232  0.20065  0.67040  1.0000
  S   S172      1.0  0.04782  0.51609  0.55699  1.0000
  C   C1281     1.0  0.88321  0.06668  0.62507  1.0000
  Fe  Fe93      1.0  0.69963  0.05086  0.65405  1.0000
  S   S173      1.0  0.05976  0.25355  0.46592  1.0000
  C   C1282     1.0  0.62162  0.43174  0.68583  1.0000
  H   H1033     1.0  0.60789  0.20054  0.55930  1.0000
  C   C1283     1.0  0.88016  0.23363  0.65961  1.0000
  C   C1284     1.0  0.75315  0.49837  0.53309  1.0000
  C   C1285     1.0  0.76301  0.29287  0.67689  1.0000
  C   C1286     1.0  0.74369  0.24458  0.63701  1.0000
  H   H1034     1.0  0.84281  0.32664  0.51842  1.0000
  H   H1035     1.0  0.82473  0.18333  0.56890  1.0000
  H   H1036     1.0  0.04644  0.43756  0.49778  1.0000
  C   C1287     1.0  0.90816  0.22377  0.66544  1.0000
  H   H1037     1.0  0.80278  0.28783  0.63995  1.0000
  H   H1038     1.0  0.86736  0.45924  0.53330  1.0000
  S   S174      1.0  0.98737  0.51053  0.61963  1.0000
  C   C1288     1.0  0.00744  0.09288  0.58853  1.0000
  H   H1039     1.0  0.01237  0.14017  0.70122  1.0000
  H   H1040     1.0  0.89668  0.25236  0.53554  1.0000
  H   H1041     1.0  0.97761  0.29084  0.45873  1.0000
  H   H1042     1.0  0.04652  0.05899  0.51222  1.0000
  S   S175      1.0  0.00863  0.45655  0.56494  1.0000
  C   C1289     1.0  0.77700  0.53216  0.47486  1.0000
  S   S176      1.0  0.73722  0.07497  0.61995  1.0000
  C   C1290     1.0  0.89846  0.39593  0.63256  1.0000
  C   C1291     1.0  0.68540  0.41136  0.51606  1.0000
  C   C1292     1.0  0.57952  0.13600  0.53547  1.0000
  H   H1043     1.0  0.77034  0.31183  0.69194  1.0000
  C   C1293     1.0  0.69168  0.30187  0.52341  1.0000
  C   C1294     1.0  0.68653  0.38692  0.64642  1.0000
  S   S177      1.0  0.69392  0.12889  0.59472  1.0000
  H   H1044     1.0  0.74352  0.33745  0.60264  1.0000
  C   C1295     1.0  0.94812  0.12545  0.67765  1.0000
  C   C1296     1.0  0.96456  0.31651  0.60332  1.0000
  H   H1045     1.0  0.95590  0.44576  0.49780  1.0000
  C   C1297     1.0  0.05729  0.41695  0.50109  1.0000
  C   C1298     1.0  0.83700  0.07574  0.66104  1.0000
  H   H1046     1.0  0.66706  0.49309  0.49230  1.0000
  C   C1299     1.0  0.98809  0.23268  0.53800  1.0000
  C   C1300     1.0  0.77160  0.25528  0.62617  1.0000
  H   H1047     1.0  0.69588  0.31919  0.63329  1.0000
  C   C1301     1.0  0.86647  0.07101  0.66441  1.0000
  S   S178      1.0  0.88714  0.36935  0.55527  1.0000
  C   C1302     1.0  0.68391  0.30409  0.56972  1.0000
  C   C1303     1.0  0.61738  0.46086  0.61174  1.0000
  C   C1304     1.0  0.83313  0.15770  0.63288  1.0000
  H   H1048     1.0  0.60104  0.14322  0.54146  1.0000
  S   S179      1.0  0.57605  0.30228  0.69638  1.0000
  C   C1305     1.0  0.84525  0.30382  0.53016  1.0000
  C   C1306     1.0  0.92340  0.48936  0.68974  1.0000
  H   H1049     1.0  0.70553  0.46192  0.63203  1.0000
  H   H1050     1.0  0.72688  0.40703  0.62460  1.0000
  C   C1307     1.0  0.82563  0.25740  0.56512  1.0000
  P   P44       1.0  0.61849  0.46368  0.54918  1.0000
  H   H1051     1.0  0.87636  0.07057  0.69758  1.0000
  P   P45       1.0  0.95436  0.29959  0.66036  1.0000
  C   C1308     1.0  0.64286  0.09484  0.46498  1.0000
  H   H1052     1.0  0.79312  0.21766  0.69214  1.0000
  C   C1309     1.0  0.57655  0.53728  0.49765  1.0000
  C   C1310     1.0  0.68359  0.49527  0.66534  1.0000
  H   H1053     1.0  0.70412  0.24965  0.67548  1.0000
  C   C1311     1.0  0.80831  0.20408  0.62665  1.0000
  S   S180      1.0  0.81088  0.49000  0.51652  1.0000
  Fe  Fe94      1.0  0.59377  0.26093  0.67417  1.0000
  S   S181      1.0  0.01537  0.21765  0.57253  1.0000
  C   C1312     1.0  0.02833  0.25209  0.67467  1.0000
  C   C1313     1.0  0.91233  0.45184  0.52071  1.0000
  C   C1314     1.0  0.69951  0.17431  0.70037  1.0000
  C   C1315     1.0  0.92048  0.08856  0.52601  1.0000
  H   H1054     1.0  0.79884  0.13733  0.56736  1.0000
  H   H1055     1.0  0.01246  0.19120  0.48727  1.0000
  C   C1316     1.0  0.67174  0.47032  0.50009  1.0000
  S   S182      1.0  0.04273  0.47276  0.65511  1.0000
  C   C1317     1.0  0.98516  0.28044  0.68442  1.0000
  H   H1056     1.0  0.94158  0.32623  0.49318  1.0000
  H   H1057     1.0  0.04036  0.39107  0.62209  1.0000
  H   H1058     1.0  0.92761  0.16092  0.53446  1.0000
  C   C1318     1.0  0.89752  0.28335  0.64851  1.0000
  H   H1059     1.0  0.66361  0.29536  0.58422  1.0000
  S   S183      1.0  0.76545  0.41781  0.55057  1.0000
  C   C1319     1.0  0.90952  0.38588  0.59208  1.0000
  C   C1320     1.0  0.91398  0.11646  0.53777  1.0000
  C   C1321     1.0  0.63386  0.30171  0.48057  1.0000
  C   C1322     1.0  0.96700  0.10643  0.49509  1.0000
  H   H1060     1.0  0.03699  0.14433  0.48140  1.0000
  S   S184      1.0  0.68561  0.08747  0.69359  1.0000
  C   C1323     1.0  0.94304  0.22812  0.50049  1.0000
  C   C1324     1.0  0.75998  0.19757  0.55060  1.0000
  H   H1061     1.0  0.87613  0.39247  0.64262  1.0000
  C   C1325     1.0  0.61077  0.48276  0.68347  1.0000
  C   C1326     1.0  0.87209  0.29131  0.52500  1.0000
  C   C1327     1.0  0.96016  0.13423  0.50635  1.0000
  C   C1328     1.0  0.62975  0.52347  0.53508  1.0000
  C   C1329     1.0  0.73772  0.32386  0.53520  1.0000
  C   C1330     1.0  0.94712  0.08367  0.50444  1.0000
  H   H1062     1.0  0.99056  0.34784  0.47972  1.0000
  H   H1063     1.0  0.98732  0.10266  0.47753  1.0000
  C   C1331     1.0  0.66172  0.24801  0.52037  1.0000
  C   C1332     1.0  0.81127  0.13518  0.49620  1.0000
  C   C1333     1.0  0.74286  0.18957  0.51563  1.0000
  H   H1064     1.0  0.75880  0.33089  0.52204  1.0000
  H   H1065     1.0  0.74585  0.52353  0.62579  1.0000
  C   C1334     1.0  0.72768  0.51433  0.52735  1.0000
  C   C1335     1.0  0.65283  0.45135  0.52740  1.0000
  H   H1066     1.0  0.58755  0.34729  0.52975  1.0000
  S   S185      1.0  0.06053  0.29027  0.55561  1.0000
  C   C1336     1.0  0.63407  0.23575  0.52604  1.0000
  H   H1067     1.0  0.69078  0.38849  0.52228  1.0000
  C   C1337     1.0  0.75682  0.11075  0.48954  1.0000
  C   C1338     1.0  0.58382  0.50822  0.50965  1.0000
  S   S186      1.0  0.72337  0.09368  0.48862  1.0000
  C   C1339     1.0  0.59576  0.33281  0.50573  1.0000
  C   C1340     1.0  0.69724  0.45993  0.48145  1.0000
  H   H1068     1.0  0.60600  0.50171  0.70092  1.0000
  C   C1341     1.0  0.05914  0.34850  0.63292  1.0000
  C   C1342     1.0  0.87807  0.46175  0.46073  1.0000
  H   H1069     1.0  0.04087  0.17540  0.64743  1.0000
  H   H1070     1.0  0.06213  0.34647  0.59654  1.0000
  H   H1071     1.0  0.62512  0.41097  0.70561  1.0000
  H   H1072     1.0  0.05139  0.09339  0.69928  1.0000
  C   C1343     1.0  0.56486  0.43629  0.55590  1.0000
  H   H1073     1.0  0.06342  0.13955  0.59265  1.0000
  H   H1074     1.0  0.56409  0.37687  0.70616  1.0000
  H   H1075     1.0  0.94601  0.48933  0.69688  1.0000
  C   C1344     1.0  0.67511  0.50487  0.70748  1.0000
  H   H1076     1.0  0.59927  0.16508  0.70748  1.0000
  H   H1077     1.0  0.03515  0.39657  0.70478  1.0000
  C   C1345     1.0  0.00372  0.33518  0.80516  1.0000
  H   H1078     1.0  0.69687  0.06113  0.89816  1.0000
  H   H1079     1.0  0.67711  0.29406  0.83188  1.0000
  C   C1346     1.0  0.76518  0.43981  0.76600  1.0000
  H   H1080     1.0  0.67911  0.14758  0.93705  1.0000
  C   C1347     1.0  0.69008  0.49477  0.90336  1.0000
  H   H1081     1.0  0.78161  0.22748  0.83436  1.0000
  C   C1348     1.0  0.97552  0.33761  0.87602  1.0000
  C   C1349     1.0  0.02370  0.19261  0.86930  1.0000
  C   C1350     1.0  0.01233  0.26208  0.75101  1.0000
  H   H1082     1.0  0.87447  0.20546  0.89105  1.0000
  H   H1083     1.0  0.80885  0.43781  0.73975  1.0000
  Fe  Fe95      1.0  0.57985  0.28082  0.76840  1.0000
  H   H1084     1.0  0.76160  0.46113  0.74791  1.0000
  H   H1085     1.0  0.62136  0.51900  0.91392  1.0000
  H   H1086     1.0  0.97747  0.38358  0.74248  1.0000
  C   C1351     1.0  0.78360  0.29993  0.79823  1.0000
  H   H1087     1.0  0.74474  0.08432  0.74833  1.0000
  C   C1352     1.0  0.05417  0.35473  0.72732  1.0000
  C   C1353     1.0  0.04899  0.05790  0.75323  1.0000
  H   H1088     1.0  0.76181  0.18010  0.75582  1.0000
  C   C1354     1.0  0.90835  0.27521  0.86537  1.0000
  H   H1089     1.0  0.77300  0.52990  0.81524  1.0000
  H   H1090     1.0  0.77276  0.31626  0.77570  1.0000
  H   H1091     1.0  0.59116  0.47508  0.92289  1.0000
  H   H1092     1.0  0.86479  0.41855  0.88898  1.0000
  H   H1093     1.0  0.71290  0.14028  0.80032  1.0000
  C   C1355     1.0  0.93316  0.05674  0.88480  1.0000
  C   C1356     1.0  0.99561  0.35683  0.89029  1.0000
  C   C1357     1.0  0.88143  0.28218  0.84717  1.0000
  H   H1094     1.0  0.64005  0.36640  0.77293  1.0000
  C   C1358     1.0  0.85375  0.28299  0.94186  1.0000
  H   H1095     1.0  0.82183  0.24166  0.87986  1.0000
  H   H1096     1.0  0.81800  0.39395  0.90848  1.0000
  H   H1097     1.0  0.94787  0.50832  0.86029  1.0000
  C   C1359     1.0  0.95639  0.06274  0.85361  1.0000
  H   H1098     1.0  0.97528  0.52252  0.76652  1.0000
  C   C1360     1.0  0.60044  0.05248  0.91440  1.0000
  C   C1361     1.0  0.95985  0.09044  0.82967  1.0000
  H   H1099     1.0  0.58607  0.35888  0.77969  1.0000
  C   C1362     1.0  0.83835  0.49999  0.88415  1.0000
  H   H1100     1.0  0.85771  0.50160  0.73830  1.0000
  C   C1363     1.0  0.58425  0.47530  0.84980  1.0000
  H   H1101     1.0  0.93953  0.24511  0.77484  1.0000
  C   C1364     1.0  0.59902  0.08101  0.89256  1.0000
  C   C1365     1.0  0.57514  0.39701  0.81290  1.0000
  C   C1366     1.0  0.68310  0.19470  0.72197  1.0000
  C   C1367     1.0  0.59582  0.48578  0.88862  1.0000
  H   H1102     1.0  0.77937  0.36440  0.83279  1.0000
  C   C1368     1.0  0.60455  0.21852  0.90780  1.0000
  C   C1369     1.0  0.98891  0.27738  0.73220  1.0000
  C   C1370     1.0  0.05517  0.54274  0.88609  1.0000
  H   H1103     1.0  0.67116  0.11139  0.78417  1.0000
  C   C1371     1.0  0.85740  0.52348  0.88029  1.0000
  H   H1104     1.0  0.69697  0.32618  0.88524  1.0000
  C   C1372     1.0  0.76767  0.54371  0.72030  1.0000
  S   S187      1.0  0.67544  0.23440  0.78487  1.0000
  H   H1105     1.0  0.71867  0.51627  0.94492  1.0000
  C   C1373     1.0  0.67713  0.13962  0.90372  1.0000
  S   S188      1.0  0.59393  0.23794  0.74604  1.0000
  C   C1374     1.0  0.83917  0.10213  0.86078  1.0000
  C   C1375     1.0  0.75932  0.07228  0.87913  1.0000
  C   C1376     1.0  0.85668  0.33558  0.88094  1.0000
  C   C1377     1.0  0.00057  0.14958  0.84736  1.0000
  C   C1378     1.0  0.94063  0.11279  0.83792  1.0000
  H   H1106     1.0  0.63089  0.13819  0.76183  1.0000
  C   C1379     1.0  0.60818  0.13369  0.76542  1.0000
  H   H1107     1.0  0.67681  0.33240  0.73379  1.0000
  C   C1380     1.0  0.62121  0.20013  0.88253  1.0000
  H   H1108     1.0  0.63055  0.34985  0.85594  1.0000
  H   H1109     1.0  0.90162  0.33747  0.85904  1.0000
  C   C1381     1.0  0.74795  0.04936  0.85761  1.0000
  S   S189      1.0  0.04540  0.26517  0.93907  1.0000
  C   C1382     1.0  0.65807  0.38233  0.87925  1.0000
  H   H1110     1.0  0.89412  0.30415  0.95294  1.0000
  H   H1111     1.0  0.04006  0.40507  0.94166  1.0000
  C   C1383     1.0  0.67684  0.40560  0.86605  1.0000
  C   C1384     1.0  0.91856  0.32825  0.72083  1.0000
  C   C1385     1.0  0.58050  0.19137  0.83684  1.0000
  C   C1386     1.0  0.95280  0.48751  0.84810  1.0000
  S   S190      1.0  0.74647  0.40784  0.93583  1.0000
  C   C1387     1.0  0.02435  0.16303  0.86394  1.0000
  H   H1112     1.0  0.75899  0.46601  0.84673  1.0000
  H   H1113     1.0  0.64371  0.19672  0.88948  1.0000
  C   C1388     1.0  0.65766  0.04880  0.81428  1.0000
  H   H1114     1.0  0.63708  0.11852  0.92227  1.0000
  H   H1115     1.0  0.81118  0.26339  0.94728  1.0000
  C   C1389     1.0  0.99927  0.20880  0.85789  1.0000
  C   C1390     1.0  0.58218  0.10153  0.91303  1.0000
  H   H1116     1.0  0.84405  0.21502  0.82335  1.0000
  H   H1117     1.0  0.63142  0.54555  0.83667  1.0000
  C   C1391     1.0  0.88109  0.19781  0.85860  1.0000
  C   C1392     1.0  0.94512  0.12451  0.72564  1.0000
  H   H1118     1.0  0.81805  0.38954  0.78244  1.0000
  H   H1119     1.0  0.90653  0.39024  0.86386  1.0000
  H   H1120     1.0  0.96387  0.31215  0.82228  1.0000
  C   C1393     1.0  0.90615  0.18152  0.85526  1.0000
  H   H1121     1.0  0.01531  0.26013  0.78786  1.0000
  C   C1394     1.0  0.61650  0.45614  0.70873  1.0000
  H   H1122     1.0  0.74561  0.26974  0.88615  1.0000
  C   C1395     1.0  0.96161  0.54132  0.76037  1.0000
  C   C1396     1.0  0.61289  0.51085  0.88375  1.0000
  H   H1123     1.0  0.66107  0.19870  0.71277  1.0000
  H   H1124     1.0  0.67554  0.49686  0.78102  1.0000
  H   H1125     1.0  0.91340  0.27903  0.89987  1.0000
  C   C1397     1.0  0.01957  0.36537  0.86184  1.0000
  H   H1126     1.0  0.87299  0.05355  0.79748  1.0000
  C   C1398     1.0  0.65317  0.12312  0.89492  1.0000
  H   H1127     1.0  0.61047  0.42712  0.90662  1.0000
  C   C1399     1.0  0.73945  0.47376  0.86200  1.0000
  C   C1400     1.0  0.69874  0.46346  0.74864  1.0000
  H   H1128     1.0  0.67116  0.50346  0.91885  1.0000
  C   C1401     1.0  0.68221  0.41519  0.81912  1.0000
  H   H1129     1.0  0.81539  0.09011  0.92454  1.0000
  H   H1130     1.0  0.58514  0.28559  0.93243  1.0000
  H   H1131     1.0  0.75670  0.26466  0.78247  1.0000
  H   H1132     1.0  0.65427  0.06425  0.94962  1.0000
  P   P46       1.0  0.05712  0.36203  0.78660  1.0000
  C   C1402     1.0  0.76098  0.10317  0.80635  1.0000
  C   C1403     1.0  0.94014  0.47931  0.80844  1.0000
  C   C1404     1.0  0.59205  0.41611  0.92437  1.0000
  C   C1405     1.0  0.82843  0.08254  0.89714  1.0000
  H   H1133     1.0  0.76667  0.12368  0.78640  1.0000
  C   C1406     1.0  0.93158  0.53869  0.76541  1.0000
  C   C1407     1.0  0.88482  0.50254  0.82015  1.0000
  H   H1134     1.0  0.66273  0.52465  0.70795  1.0000
  C   C1408     1.0  0.68764  0.47680  0.86830  1.0000
  H   H1135     1.0  0.97376  0.28689  0.75492  1.0000
  P   P47       1.0  0.85279  0.29677  0.88133  1.0000
  H   H1136     1.0  0.85820  0.19690  0.74977  1.0000
  C   C1409     1.0  0.99215  0.05109  0.72705  1.0000
  C   C1410     1.0  0.02374  0.35476  0.81899  1.0000
  H   H1137     1.0  0.05001  0.23729  0.73687  1.0000
  H   H1138     1.0  0.77485  0.11653  0.87014  1.0000
  H   H1139     1.0  0.90152  0.12283  0.87571  1.0000
  C   C1411     1.0  0.76563  0.09907  0.85358  1.0000
  C   C1412     1.0  0.64646  0.26203  0.93274  1.0000
  C   C1413     1.0  0.57583  0.22348  0.89682  1.0000
  C   C1414     1.0  0.91356  0.07858  0.89242  1.0000
  C   C1415     1.0  0.67236  0.11919  0.81769  1.0000
  C   C1416     1.0  0.68235  0.48889  0.74900  1.0000
  C   C1417     1.0  0.86254  0.39552  0.88593  1.0000
  C   C1418     1.0  0.05322  0.45080  0.78050  1.0000
  C   C1419     1.0  0.67684  0.30279  0.94599  1.0000
  H   H1140     1.0  0.77996  0.52384  0.72458  1.0000
  C   C1420     1.0  0.74315  0.42531  0.79368  1.0000
  C   C1421     1.0  0.88601  0.37950  0.87193  1.0000
  C   C1422     1.0  0.74857  0.39796  0.81748  1.0000
  C   C1423     1.0  0.57598  0.38005  0.77605  1.0000
  C   C1424     1.0  0.75204  0.29388  0.94367  1.0000
  C   C1425     1.0  0.90301  0.49425  0.72431  1.0000
  C   C1426     1.0  0.66881  0.40082  0.78570  1.0000
  C   C1427     1.0  0.81996  0.28745  0.85477  1.0000
  H   H1141     1.0  0.82400  0.54238  0.79738  1.0000
  C   C1428     1.0  0.06134  0.52556  0.85063  1.0000
  C   C1429     1.0  0.04260  0.13860  0.75481  1.0000
  C   C1430     1.0  0.97194  0.46898  0.87248  1.0000
  C   C1431     1.0  0.87386  0.49591  0.71343  1.0000
  C   C1432     1.0  0.68304  0.30824  0.89864  1.0000
  H   H1142     1.0  0.05417  0.30046  0.82191  1.0000
  C   C1433     1.0  0.56401  0.21018  0.86110  1.0000
  C   C1434     1.0  0.56710  0.10665  0.80078  1.0000
  H   H1143     1.0  0.72126  0.29196  0.71148  1.0000
  S   S191      1.0  0.75331  0.32767  0.91045  1.0000
  Fe  Fe96      1.0  0.82049  0.14594  0.93623  1.0000
  H   H1144     1.0  0.85617  0.28180  0.78598  1.0000
  C   C1435     1.0  0.61838  0.52594  0.84020  1.0000
  C   C1436     1.0  0.97943  0.32702  0.83324  1.0000
  C   C1437     1.0  0.83387  0.05287  0.89795  1.0000
  C   C1438     1.0  0.84283  0.47733  0.85692  1.0000
  C   C1439     1.0  0.72351  0.20405  0.76816  1.0000
  H   H1145     1.0  0.93660  0.44517  0.76400  1.0000
  H   H1146     1.0  0.65451  0.37484  0.91553  1.0000
  H   H1147     1.0  0.58558  0.04857  0.79841  1.0000
  H   H1148     1.0  0.97211  0.19173  0.73774  1.0000
  H   H1149     1.0  0.73224  0.38635  0.83960  1.0000
  H   H1150     1.0  0.81405  0.33026  0.81833  1.0000
  C   C1440     1.0  0.91401  0.17049  0.81367  1.0000
  H   H1151     1.0  0.92954  0.38557  0.78159  1.0000
  C   C1441     1.0  0.73874  0.54344  0.73388  1.0000
  C   C1442     1.0  0.74918  0.24126  0.94933  1.0000
  C   C1443     1.0  0.91285  0.34914  0.75095  1.0000
  C   C1444     1.0  0.74169  0.49128  0.89777  1.0000
  C   C1445     1.0  0.85480  0.09164  0.82414  1.0000
  H   H1152     1.0  0.99340  0.36422  0.92423  1.0000
  C   C1446     1.0  0.69514  0.20938  0.75614  1.0000
  C   C1447     1.0  0.96578  0.43359  0.81841  1.0000
  H   H1153     1.0  0.00713  0.32608  0.77294  1.0000
  H   H1154     1.0  0.68765  0.41556  0.89259  1.0000
  H   H1155     1.0  0.60938  0.52884  0.76805  1.0000
  C   C1448     1.0  0.81111  0.25822  0.85763  1.0000
  C   C1449     1.0  0.97592  0.19561  0.83951  1.0000
  C   C1450     1.0  0.60626  0.51628  0.80154  1.0000
  C   C1451     1.0  0.96550  0.17302  0.72141  1.0000
  H   H1156     1.0  0.71719  0.15877  0.87625  1.0000
  H   H1157     1.0  0.58128  0.12377  0.89701  1.0000
  H   H1158     1.0  0.81320  0.34116  0.90657  1.0000
  C   C1452     1.0  0.88063  0.52478  0.84845  1.0000
  C   C1453     1.0  0.83621  0.38166  0.89735  1.0000
  P   P48       1.0  0.91473  0.50349  0.77919  1.0000
  Fe  Fe97      1.0  0.63848  0.25591  0.74817  1.0000
  C   C1454     1.0  0.93406  0.36906  0.75893  1.0000
  C   C1455     1.0  0.89634  0.17602  0.77570  1.0000
  P   P49       1.0  0.70909  0.44282  0.80187  1.0000
  H   H1159     1.0  0.04305  0.15023  0.87386  1.0000
  H   H1160     1.0  0.58492  0.38858  0.84458  1.0000
  S   S192      1.0  0.62434  0.29741  0.77462  1.0000
  C   C1456     1.0  0.97845  0.44200  0.85766  1.0000
  H   H1161     1.0  0.91900  0.17706  0.88535  1.0000
  C   C1457     1.0  0.92938  0.26237  0.83913  1.0000
  C   C1458     1.0  0.68766  0.34889  0.71024  1.0000
  H   H1162     1.0  0.66650  0.47109  0.85793  1.0000
  H   H1163     1.0  0.74694  0.22151  0.93309  1.0000
  C   C1459     1.0  0.77556  0.38534  0.81376  1.0000
  H   H1164     1.0  0.89182  0.35007  0.76766  1.0000
  H   H1165     1.0  0.85357  0.54116  0.90098  1.0000
  H   H1166     1.0  0.00154  0.12650  0.84527  1.0000
  C   C1460     1.0  0.03200  0.24935  0.72226  1.0000
  H   H1167     1.0  0.91596  0.22286  0.92727  1.0000
  H   H1168     1.0  0.82018  0.49933  0.90841  1.0000
  H   H1169     1.0  0.93537  0.10539  0.74490  1.0000
  H   H1170     1.0  0.03047  0.12247  0.77730  1.0000
  H   H1171     1.0  0.72906  0.34097  0.73975  1.0000
  C   C1461     1.0  0.86036  0.06162  0.82505  1.0000
  H   H1172     1.0  0.72886  0.52347  0.74954  1.0000
  C   C1462     1.0  0.88312  0.34960  0.86926  1.0000
  C   C1463     1.0  0.03789  0.07652  0.71736  1.0000
  H   H1173     1.0  0.94950  0.14237  0.92670  1.0000
  C   C1464     1.0  0.69864  0.14591  0.86958  1.0000
  H   H1174     1.0  0.94991  0.25697  0.85392  1.0000
  H   H1175     1.0  0.67338  0.40698  0.74932  1.0000
  C   C1465     1.0  0.78863  0.24999  0.83124  1.0000
  H   H1176     1.0  0.73265  0.21509  0.79502  1.0000
  C   C1466     1.0  0.71699  0.50182  0.91839  1.0000
  H   H1177     1.0  0.95740  0.33031  0.89869  1.0000
  C   C1467     1.0  0.71234  0.46635  0.84694  1.0000
  H   H1178     1.0  0.90108  0.16704  0.74368  1.0000
  C   C1468     1.0  0.64466  0.36828  0.84575  1.0000
  H   H1179     1.0  0.89515  0.07377  0.91579  1.0000
  C   C1469     1.0  0.59671  0.11246  0.79936  1.0000
  C   C1470     1.0  0.92367  0.25588  0.79480  1.0000
  H   H1180     1.0  0.04189  0.20279  0.88333  1.0000
  C   C1471     1.0  0.04724  0.42125  0.79211  1.0000
  C   C1472     1.0  0.74882  0.26840  0.92272  1.0000
  C   C1473     1.0  0.74877  0.08091  0.78490  1.0000
  H   H1181     1.0  0.86325  0.10672  0.79592  1.0000
  H   H1182     1.0  0.04552  0.52277  0.82514  1.0000
  C   C1474     1.0  0.89717  0.26290  0.77633  1.0000
  C   C1475     1.0  0.65310  0.26753  0.88529  1.0000
  C   C1476     1.0  0.86388  0.20332  0.82049  1.0000
  H   H1183     1.0  0.89243  0.25734  0.74254  1.0000
  C   C1477     1.0  0.74009  0.18441  0.74570  1.0000
  H   H1184     1.0  0.98166  0.47565  0.90295  1.0000
  H   H1185     1.0  0.02652  0.41514  0.80760  1.0000
  H   H1186     1.0  0.82821  0.45892  0.86063  1.0000
  C   C1478     1.0  0.58912  0.49117  0.80635  1.0000
  H   H1187     1.0  0.57901  0.48473  0.77634  1.0000
  H   H1188     1.0  0.76259  0.49727  0.90884  1.0000
  H   H1189     1.0  0.76360  0.06953  0.91551  1.0000
  C   C1479     1.0  0.79210  0.42689  0.76187  1.0000
  H   H1190     1.0  0.99332  0.42768  0.87663  1.0000
  P   P50       1.0  0.61944  0.09159  0.83950  1.0000
  C   C1480     1.0  0.67159  0.29033  0.86845  1.0000
  C   C1481     1.0  0.62926  0.05886  0.81430  1.0000
  H   H1191     1.0  0.03554  0.37942  0.87399  1.0000
  C   C1482     1.0  0.97628  0.16586  0.83400  1.0000
  P   P51       1.0  0.94621  0.14914  0.80893  1.0000
  H   H1192     1.0  0.97751  0.09424  0.80459  1.0000
  C   C1483     1.0  0.69623  0.13559  0.82674  1.0000
  C   C1484     1.0  0.59021  0.14929  0.73443  1.0000
  C   C1485     1.0  0.96093  0.36810  0.73663  1.0000
  C   C1486     1.0  0.83345  0.35175  0.89580  1.0000
  H   H1193     1.0  0.99836  0.23146  0.86402  1.0000
  C   C1487     1.0  0.91728  0.10652  0.86928  1.0000
  C   C1488     1.0  0.95417  0.14814  0.74804  1.0000
  H   H1194     1.0  0.97111  0.41283  0.80673  1.0000
  C   C1489     1.0  0.80653  0.30803  0.82371  1.0000
  S   S193      1.0  0.83381  0.13960  0.86296  1.0000
  H   H1195     1.0  0.64389  0.25457  0.86090  1.0000
  H   H1196     1.0  0.62263  0.17342  0.82694  1.0000
  C   C1490     1.0  0.86628  0.47832  0.82562  1.0000
  C   C1491     1.0  0.60922  0.18665  0.84720  1.0000
  C   C1492     1.0  0.65048  0.11281  0.85160  1.0000
  C   C1493     1.0  0.77468  0.27090  0.80187  1.0000
  C   C1494     1.0  0.56418  0.42122  0.90856  1.0000
  H   H1197     1.0  0.95748  0.20855  0.83021  1.0000
  H   H1198     1.0  0.03756  0.46696  0.78836  1.0000
  H   H1199     1.0  0.61662  0.45417  0.74601  1.0000
  C   C1495     1.0  0.64998  0.37760  0.79902  1.0000
  C   C1496     1.0  0.74195  0.05424  0.81040  1.0000
  H   H1200     1.0  0.86981  0.46035  0.80531  1.0000
  C   C1497     1.0  0.87639  0.27651  0.80178  1.0000
  C   C1498     1.0  0.79730  0.39966  0.78583  1.0000
  H   H1201     1.0  0.67494  0.06146  0.82564  1.0000
  C   C1499     1.0  0.94647  0.45208  0.79400  1.0000
  H   H1202     1.0  0.57136  0.18149  0.80875  1.0000
  C   C1500     1.0  0.87169  0.19274  0.77900  1.0000
  C   C1501     1.0  0.72810  0.16929  0.71208  1.0000
  H   H1203     1.0  0.81114  0.17422  0.73889  1.0000
  H   H1204     1.0  0.89494  0.54337  0.84551  1.0000
  H   H1205     1.0  0.90177  0.31305  0.71635  1.0000
  C   C1502     1.0  0.71722  0.35361  0.71343  1.0000
  P   P52       1.0  0.62054  0.23445  0.95455  1.0000
  S   S194      1.0  0.96470  0.25436  0.94958  1.0000
  C   C1503     1.0  0.56715  0.09359  0.95492  1.0000
  H   H1206     1.0  0.95542  0.09045  0.95572  1.0000
  S   S195      1.0  0.98726  0.53621  0.95718  1.0000
  C   C1504     1.0  0.03232  0.14872  0.71175  1.0000
  H   H1207     1.0  0.75522  0.26436  0.05526  1.0000
  C   C1505     1.0  0.83968  0.05617  0.17292  1.0000
  C   C1506     1.0  0.84376  0.05241  0.09045  1.0000
  H   H1208     1.0  0.86059  0.24755  0.06794  1.0000
  H   H1209     1.0  0.56773  0.49721  0.08982  1.0000
  H   H1210     1.0  0.63208  0.47530  0.97358  1.0000
  C   C1507     1.0  0.03104  0.12333  0.16753  1.0000
  S   S196      1.0  0.67059  0.42767  0.98869  1.0000
  Fe  Fe98      1.0  0.79568  0.11080  0.02159  1.0000
  C   C1508     1.0  0.78637  0.20859  0.19179  1.0000
  C   C1509     1.0  0.03746  0.41413  0.01265  1.0000
  H   H1211     1.0  0.98433  0.38437  0.12559  1.0000
  C   C1510     1.0  0.63129  0.15416  0.02457  1.0000
  C   C1511     1.0  0.64665  0.48018  0.99962  1.0000
  C   C1512     1.0  0.83128  0.32579  0.19621  1.0000
  C   C1513     1.0  0.62556  0.37272  0.07728  1.0000
  H   H1212     1.0  0.81573  0.24098  0.02651  1.0000
  C   C1514     1.0  0.82707  0.05140  0.13146  1.0000
  H   H1213     1.0  0.85097  0.29487  0.09950  1.0000
  H   H1214     1.0  0.92629  0.20502  0.09640  1.0000
  C   C1515     1.0  0.75712  0.43926  0.17324  1.0000
  H   H1215     1.0  0.84703  0.34517  0.06665  1.0000
  H   H1216     1.0  0.04117  0.46591  0.15958  1.0000
  C   C1516     1.0  0.95989  0.11412  0.14920  1.0000
  C   C1517     1.0  0.71664  0.35657  0.15729  1.0000
  C   C1518     1.0  0.00558  0.34835  0.16295  1.0000
  C   C1519     1.0  0.70126  0.38033  0.13748  1.0000
  H   H1217     1.0  0.93247  0.40910  0.03571  1.0000
  H   H1218     1.0  0.97715  0.16729  0.05516  1.0000
  C   C1520     1.0  0.89044  0.38457  0.19279  1.0000
  H   H1219     1.0  0.97209  0.07665  0.03359  1.0000
  H   H1220     1.0  0.73431  0.54625  0.05763  1.0000
  S   S197      1.0  0.01977  0.50796  0.07439  1.0000
  C   C1521     1.0  0.91432  0.39438  0.04217  1.0000
  Fe  Fe99      1.0  0.78234  0.17514  0.00531  1.0000
  C   C1522     1.0  0.66685  0.45953  0.01549  1.0000
  C   C1523     1.0  0.84086  0.44660  0.00739  1.0000
  H   H1221     1.0  0.65427  0.46665  0.17609  1.0000
  S   S198      1.0  0.03504  0.42380  0.10402  1.0000
  C   C1524     1.0  0.05883  0.16478  0.10430  1.0000
  H   H1222     1.0  0.92681  0.37909  0.11034  1.0000
  Fe  Fe100     1.0  0.84278  0.15679  0.02970  1.0000
  C   C1525     1.0  0.87726  0.45341  0.07972  1.0000
  C   C1526     1.0  0.59656  0.39616  0.96299  1.0000
  C   C1527     1.0  0.63073  0.50264  0.14300  1.0000
  H   H1223     1.0  0.69950  0.49755  0.09256  1.0000
  C   C1528     1.0  0.90680  0.53636  0.97261  1.0000
  C   C1529     1.0  0.83260  0.43580  0.05260  1.0000
  S   S199      1.0  0.58250  0.06458  0.16384  1.0000
  Fe  Fe101     1.0  0.05455  0.30296  0.97789  1.0000
  C   C1530     1.0  0.91786  0.21943  0.96418  1.0000
  C   C1531     1.0  0.89948  0.19984  0.99082  1.0000
  C   C1532     1.0  0.86927  0.06192  0.17241  1.0000
  Fe  Fe102     1.0  0.98817  0.51737  0.13036  1.0000
  H   H1224     1.0  0.04093  0.19073  0.96833  1.0000
  C   C1533     1.0  0.05195  0.11774  0.97858  1.0000
  S   S200      1.0  0.87871  0.17079  0.07185  1.0000
  H   H1225     1.0  0.87364  0.46933  0.96339  1.0000
  C   C1534     1.0  0.67762  0.07301  0.05865  1.0000
  H   H1226     1.0  0.04235  0.08483  0.07786  1.0000
  P   P53       1.0  0.56623  0.43308  0.10935  1.0000
  H   H1227     1.0  0.02761  0.43516  0.00509  1.0000
  H   H1228     1.0  0.78566  0.48532  0.99139  1.0000
  C   C1535     1.0  0.68505  0.46538  0.05039  1.0000
  C   C1536     1.0  0.61953  0.17865  0.00001  1.0000
  C   C1537     1.0  0.56421  0.53927  0.19059  1.0000
  S   S201      1.0  0.74913  0.42000  0.04395  1.0000
  H   H1229     1.0  0.82857  0.20541  0.09477  1.0000
  C   C1538     1.0  0.00108  0.07298  0.11087  1.0000
  H   H1230     1.0  0.74662  0.24356  0.13496  1.0000
  H   H1231     1.0  0.64712  0.37298  0.06199  1.0000
  H   H1232     1.0  0.61863  0.13451  0.03285  1.0000
  C   C1539     1.0  0.71690  0.12723  0.13205  1.0000
  H   H1233     1.0  0.64625  0.51883  0.15025  1.0000
  S   S202      1.0  0.82527  0.18650  0.97143  1.0000
  H   H1234     1.0  0.69355  0.18668  0.17984  1.0000
  C   C1540     1.0  0.83345  0.54179  0.13112  1.0000
  H   H1235     1.0  0.96578  0.24316  0.14201  1.0000
  Fe  Fe103     1.0  0.00564  0.46154  0.08972  1.0000
  C   C1541     1.0  0.91015  0.30558  0.14629  1.0000
  C   C1542     1.0  0.76763  0.41092  0.17867  1.0000
  C   C1543     1.0  0.58938  0.24344  0.03565  1.0000
  C   C1544     1.0  0.72696  0.22977  0.20217  1.0000
  S   S203      1.0  0.97715  0.47051  0.14950  1.0000
  C   C1545     1.0  0.97639  0.12086  0.05031  1.0000
  H   H1236     1.0  0.97347  0.18622  0.17416  1.0000
  S   S204      1.0  0.77519  0.06852  0.05084  1.0000
  C   C1546     1.0  0.93986  0.23315  0.98484  1.0000
  H   H1237     1.0  0.56433  0.16047  0.05891  1.0000
  C   C1547     1.0  0.69850  0.14894  0.14459  1.0000
  H   H1238     1.0  0.71006  0.39387  0.10803  1.0000
  H   H1239     1.0  0.96017  0.23850  0.04853  1.0000
  C   C1548     1.0  0.05033  0.46714  0.19268  1.0000
  H   H1240     1.0  0.90857  0.06793  0.13165  1.0000
  P   P54       1.0  0.98890  0.11022  0.10770  1.0000
  C   C1549     1.0  0.86967  0.37542  0.01804  1.0000
  S   S205      1.0  0.90009  0.45721  0.12492  1.0000
  C   C1550     1.0  0.96934  0.09942  0.02208  1.0000
  C   C1551     1.0  0.94301  0.22802  0.03256  1.0000
  S   S206      1.0  0.74994  0.34814  0.13252  1.0000
  C   C1552     1.0  0.87309  0.53587  0.18273  1.0000
  C   C1553     1.0  0.78404  0.50533  0.00711  1.0000
  C   C1554     1.0  0.84433  0.53122  0.17379  1.0000
  H   H1241     1.0  0.60000  0.22457  0.05240  1.0000
  C   C1555     1.0  0.83322  0.25416  0.00989  1.0000
  C   C1556     1.0  0.75354  0.26541  0.01828  1.0000
  H   H1242     1.0  0.87971  0.06598  0.20341  1.0000
  C   C1557     1.0  0.87736  0.28944  0.96770  1.0000
  H   H1243     1.0  0.67810  0.22361  0.99399  1.0000
  C   C1558     1.0  0.90270  0.27692  0.16396  1.0000
  C   C1559     1.0  0.88724  0.35846  0.09383  1.0000
  C   C1560     1.0  0.05223  0.17039  0.97419  1.0000
  C   C1561     1.0  0.75520  0.14762  0.17228  1.0000
  C   C1562     1.0  0.60667  0.51102  0.11775  1.0000
  C   C1563     1.0  0.58108  0.27786  0.96860  1.0000
  C   C1564     1.0  0.86720  0.46099  0.99836  1.0000
  H   H1244     1.0  0.02104  0.10684  0.19216  1.0000
  C   C1565     1.0  0.66669  0.51445  0.04703  1.0000
  S   S207      1.0  0.97011  0.46483  0.03993  1.0000
  C   C1566     1.0  0.92257  0.25443  0.16206  1.0000
  C   C1567     1.0  0.04335  0.40373  0.05820  1.0000
  H   H1245     1.0  0.63227  0.52435  0.00078  1.0000
  H   H1246     1.0  0.02068  0.21162  0.16491  1.0000
  C   C1568     1.0  0.63532  0.47330  0.15737  1.0000
  C   C1569     1.0  0.75506  0.53960  0.04467  1.0000
  Fe  Fe104     1.0  0.78056  0.41414  0.98593  1.0000
  C   C1570     1.0  0.93824  0.31138  0.12857  1.0000
  S   S208      1.0  0.78688  0.36672  0.00718  1.0000
  Fe  Fe105     1.0  0.98198  0.51240  0.02856  1.0000
  C   C1571     1.0  0.67611  0.18005  0.02767  1.0000
  C   C1572     1.0  0.87986  0.27655  0.01295  1.0000
  C   C1573     1.0  0.88583  0.06322  0.13139  1.0000
  H   H1247     1.0  0.67656  0.14952  0.13416  1.0000
  C   C1574     1.0  0.69276  0.08686  0.02010  1.0000
  C   C1575     1.0  0.59193  0.46048  0.12036  1.0000
  H   H1248     1.0  0.66868  0.13591  0.05739  1.0000
  H   H1249     1.0  0.81118  0.53768  0.12502  1.0000
  S   S209      1.0  0.95109  0.52474  0.08379  1.0000
  C   C1576     1.0  0.01553  0.19701  0.19578  1.0000
  C   C1577     1.0  0.95958  0.10716  0.97775  1.0000
  H   H1250     1.0  0.90617  0.47456  0.02747  1.0000
  C   C1578     1.0  0.91436  0.13537  0.17034  1.0000
  C   C1579     1.0  0.65955  0.15490  0.03840  1.0000
  C   C1580     1.0  0.73765  0.06986  0.05248  1.0000
  C   C1581     1.0  0.89247  0.35414  0.19598  1.0000
  C   C1582     1.0  0.96290  0.15788  0.98937  1.0000
  H   H1251     1.0  0.57778  0.47174  0.02247  1.0000
  H   H1252     1.0  0.82901  0.51481  0.99856  1.0000
  H   H1253     1.0  0.57708  0.36485  0.01490  1.0000
  H   H1254     1.0  0.89708  0.15043  0.16218  1.0000
  C   C1583     1.0  0.87307  0.05850  0.09034  1.0000
  H   H1255     1.0  0.80245  0.27326  0.11356  1.0000
  C   C1584     1.0  0.61581  0.45238  0.14663  1.0000
  H   H1256     1.0  0.96117  0.05296  0.13947  1.0000
  H   H1257     1.0  0.73417  0.09543  0.98670  1.0000
  S   S210      1.0  0.64022  0.07636  0.06342  1.0000
  C   C1585     1.0  0.91100  0.37722  0.08456  1.0000
  C   C1586     1.0  0.63606  0.20406  0.98892  1.0000
  C   C1587     1.0  0.75740  0.51394  0.02386  1.0000
  C   C1588     1.0  0.75419  0.29236  0.99151  1.0000
  C   C1589     1.0  0.95022  0.26043  0.14338  1.0000
  C   C1590     1.0  0.97253  0.15024  0.03388  1.0000
  C   C1591     1.0  0.84301  0.21943  0.15812  1.0000
  H   H1258     1.0  0.76164  0.45305  0.14126  1.0000
  S   S211      1.0  0.81875  0.44164  0.96177  1.0000
  C   C1592     1.0  0.04461  0.39719  0.97686  1.0000
  C   C1593     1.0  0.81074  0.28758  0.13699  1.0000
  C   C1594     1.0  0.75147  0.23990  0.99714  1.0000
  S   S212      1.0  0.62247  0.12358  0.15904  1.0000
  C   C1595     1.0  0.64696  0.50791  0.01465  1.0000
  H   H1259     1.0  0.78006  0.40267  0.15086  1.0000
  C   C1596     1.0  0.72962  0.24728  0.15976  1.0000
  Fe  Fe106     1.0  0.00587  0.25952  0.98498  1.0000
  H   H1260     1.0  0.71235  0.28320  0.11604  1.0000
  H   H1261     1.0  0.89888  0.28037  0.03180  1.0000
  H   H1262     1.0  0.81237  0.42448  0.05965  1.0000
  H   H1263     1.0  0.61807  0.39269  0.97537  1.0000
  H   H1264     1.0  0.93701  0.14731  0.10647  1.0000
  C   C1597     1.0  0.95908  0.09685  0.19183  1.0000
  C   C1598     1.0  0.56890  0.06517  0.97654  1.0000
  C   C1599     1.0  0.74517  0.12636  0.14618  1.0000
  H   H1265     1.0  0.69947  0.44893  0.06471  1.0000
  H   H1266     1.0  0.86508  0.22231  0.14562  1.0000
  H   H1267     1.0  0.65384  0.27592  0.99984  1.0000
  H   H1268     1.0  0.01551  0.14439  0.96265  1.0000
  H   H1269     1.0  0.94517  0.33314  0.11603  1.0000
  H   H1270     1.0  0.57718  0.10937  0.08254  1.0000
  H   H1271     1.0  0.88583  0.05985  0.05841  1.0000
  C   C1600     1.0  0.58686  0.49013  0.10758  1.0000
  Fe  Fe107     1.0  0.75229  0.37158  0.06103  1.0000
  C   C1601     1.0  0.88412  0.53976  0.00412  1.0000
  C   C1602     1.0  0.98313  0.04954  0.12824  1.0000
  H   H1272     1.0  0.73863  0.50059  0.02080  1.0000
  P   P55       1.0  0.88429  0.33472  0.14770  1.0000
  C   C1603     1.0  0.68695  0.27370  0.17907  1.0000
  C   C1604     1.0  0.85073  0.43939  0.08884  1.0000
  S   S213      1.0  0.80002  0.14729  0.06485  1.0000
  H   H1273     1.0  0.59763  0.17771  0.98921  1.0000
  C   C1605     1.0  0.79423  0.20497  0.14587  1.0000
  C   C1606     1.0  0.57087  0.25919  0.06220  1.0000
  C   C1607     1.0  0.89379  0.39329  0.00876  1.0000
  C   C1608     1.0  0.80852  0.52227  0.01107  1.0000
  C   C1609     1.0  0.70839  0.17024  0.17041  1.0000
  S   S214      1.0  0.03342  0.08529  0.97395  1.0000
  H   H1274     1.0  0.01787  0.34274  0.13302  1.0000
  H   H1275     1.0  0.68650  0.31623  0.96939  1.0000
  H   H1276     1.0  0.92119  0.51806  0.97808  1.0000
  C   C1610     1.0  0.02874  0.06725  0.09377  1.0000
  H   H1277     1.0  0.68138  0.09918  0.99292  1.0000
  H   H1278     1.0  0.67148  0.29063  0.17007  1.0000
  H   H1279     1.0  0.70923  0.11122  0.11123  1.0000
  H   H1280     1.0  0.84435  0.43104  0.12380  1.0000
  C   C1611     1.0  0.79397  0.29382  0.17519  1.0000
  S   S215      1.0  0.02666  0.22907  0.03926  1.0000
  C   C1612     1.0  0.61233  0.34636  0.09418  1.0000
  Fe  Fe108     1.0  0.71509  0.40926  0.99564  1.0000
  C   C1613     1.0  0.57034  0.37243  0.11789  1.0000
  H   H1281     1.0  0.88104  0.52381  0.03397  1.0000
  H   H1282     1.0  0.80426  0.04776  0.13022  1.0000
  H   H1283     1.0  0.61941  0.42983  0.15880  1.0000
  C   C1614     1.0  0.95812  0.28892  0.12724  1.0000
  C   C1615     1.0  0.98895  0.18278  0.20100  1.0000
  H   H1284     1.0  0.69803  0.18038  0.03858  1.0000
  C   C1616     1.0  0.01941  0.13060  0.12401  1.0000
  H   H1285     1.0  0.56769  0.40049  0.20165  1.0000
  H   H1286     1.0  0.62366  0.32609  0.09219  1.0000
  C   C1617     1.0  0.68481  0.49280  0.06649  1.0000
  H   H1287     1.0  0.66270  0.40529  0.13996  1.0000
  C   C1618     1.0  0.86629  0.35817  0.06036  1.0000
  H   H1288     1.0  0.88168  0.27188  0.17960  1.0000
  C   C1619     1.0  0.69252  0.05717  0.09367  1.0000
  C   C1620     1.0  0.84855  0.31934  0.15819  1.0000
  C   C1621     1.0  0.65859  0.27977  0.96307  1.0000
  H   H1289     1.0  0.97984  0.29365  0.11397  1.0000
  H   H1290     1.0  0.77870  0.19771  0.12280  1.0000
  C   C1622     1.0  0.72275  0.08520  0.01693  1.0000
  Fe  Fe109     1.0  0.62648  0.07893  0.13736  1.0000
  H   H1291     1.0  0.89600  0.40712  0.97636  1.0000
  C   C1623     1.0  0.92395  0.20905  0.05952  1.0000
  Fe  Fe110     1.0  0.03822  0.26926  0.07095  1.0000
  C   C1624     1.0  0.88556  0.46403  0.03450  1.0000
  C   C1625     1.0  0.59456  0.25263  0.98854  1.0000
  H   H1292     1.0  0.56713  0.25222  0.09871  1.0000
  C   C1626     1.0  0.70990  0.26942  0.14855  1.0000
  C   C1627     1.0  0.97060  0.37864  0.19741  1.0000
  H   H1293     1.0  0.88519  0.39717  0.16074  1.0000
  C   C1628     1.0  0.93737  0.13363  0.13886  1.0000
  C   C1629     1.0  0.58460  0.34620  0.11401  1.0000
  C   C1630     1.0  0.85816  0.25822  0.03350  1.0000
  S   S216      1.0  0.01373  0.29889  0.02067  1.0000
  C   C1631     1.0  0.98646  0.37158  0.15874  1.0000
  C   C1632     1.0  0.03368  0.15132  0.09248  1.0000
  C   C1633     1.0  0.83506  0.22477  0.20299  1.0000
  C   C1634     1.0  0.90223  0.19485  0.03852  1.0000
  C   C1635     1.0  0.73701  0.17015  0.18356  1.0000
  C   C1636     1.0  0.72245  0.05547  0.09037  1.0000
  C   C1637     1.0  0.66457  0.20460  0.00270  1.0000
  C   C1638     1.0  0.83806  0.29999  0.12890  1.0000
  H   H1294     1.0  0.62207  0.41917  0.06800  1.0000
  C   C1639     1.0  0.82250  0.20980  0.12949  1.0000
  H   H1295     1.0  0.75937  0.10944  0.13617  1.0000
  C   C1640     1.0  0.67424  0.38675  0.15562  1.0000
  H   H1296     1.0  0.75642  0.31188  0.00810  1.0000
  Fe  Fe111     1.0  0.94239  0.47701  0.09918  1.0000
  S   S217      1.0  0.71686  0.36139  0.01569  1.0000
  S   S218      1.0  0.03848  0.27228  0.14702  1.0000
  Fe  Fe112     1.0  0.57999  0.10830  0.18998  1.0000
  C   C1641     1.0  0.66177  0.36858  0.19233  1.0000
  H   H1297     1.0  0.84025  0.11420  0.17404  1.0000
  C   C1642     1.0  0.58393  0.39905  0.10259  1.0000
  C   C1643     1.0  0.05635  0.13663  0.17910  1.0000
  H   H1298     1.0  0.02598  0.15673  0.05839  1.0000
  H   H1299     1.0  0.97615  0.08184  0.20100  1.0000
  H   H1300     1.0  0.77724  0.14687  0.18272  1.0000
  C   C1644     1.0  0.61136  0.39897  0.08113  1.0000
  H   H1301     1.0  0.77268  0.28460  0.18133  1.0000
  H   H1302     1.0  0.83044  0.51947  0.20002  1.0000
  C   C1645     1.0  0.70498  0.33936  0.19597  1.0000
  H   H1303     1.0  0.95599  0.39688  0.19407  1.0000
  H   H1304     1.0  0.84778  0.16241  0.19868  1.0000
  H   H1305     1.0  0.88383  0.18788  0.97422  1.0000
  C   C1646     1.0  0.57348  0.38055  0.98537  1.0000
  S   S219      1.0  0.84085  0.11695  0.99286  1.0000
  H   H1306     1.0  0.60365  0.53373  0.10561  1.0000
  H   H1307     1.0  0.57436  0.32574  0.12720  1.0000
  C   C1647     1.0  0.05626  0.37670  0.06793  1.0000
  H   H1308     1.0  0.85318  0.37553  0.99282  1.0000
  H   H1309     1.0  0.96152  0.18047  0.97595  1.0000
  S   S220      1.0  0.75119  0.20658  0.03125  1.0000
  S   S221      1.0  0.64790  0.06090  0.20209  1.0000
  C   C1648     1.0  0.83091  0.26661  0.96431  1.0000
  H   H1310     1.0  0.91665  0.23236  0.17553  1.0000
  C   C1649     1.0  0.95635  0.13639  0.96138  1.0000
  H   H1311     1.0  0.83381  0.04932  0.05838  1.0000
  C   C1650     1.0  0.05737  0.36994  0.98695  1.0000
  C   C1651     1.0  0.03765  0.14418  0.97158  1.0000
  H   H1312     1.0  0.06084  0.36873  0.10312  1.0000
  H   H1313     1.0  0.73277  0.47169  0.20347  1.0000
  C   C1652     1.0  0.00928  0.33251  0.20589  1.0000
  S   S222      1.0  0.99347  0.54539  0.18759  1.0000
  Fe  Fe113     1.0  0.75102  0.36078  0.96027  1.0000
  S   S223      1.0  0.77529  0.13805  0.96378  1.0000
  C   C1653     1.0  0.06299  0.35971  0.03250  1.0000
  H   H1314     1.0  0.68116  0.04650  0.12357  1.0000
  C   C1654     1.0  0.80429  0.31276  0.20490  1.0000
  H   H1315     1.0  0.66769  0.33087  0.24155  1.0000
  H   H1316     1.0  0.64128  0.13393  0.41747  1.0000
  H   H1317     1.0  0.89056  0.10813  0.45305  1.0000
  H   H1318     1.0  0.57368  0.37228  0.33855  1.0000
  C   C1655     1.0  0.98219  0.16446  0.24125  1.0000
  H   H1319     1.0  0.79322  0.47255  0.43155  1.0000
  H   H1320     1.0  0.85623  0.46657  0.45114  1.0000
  C   C1656     1.0  0.69844  0.30474  0.35635  1.0000
  C   C1657     1.0  0.98209  0.33806  0.34478  1.0000
  H   H1321     1.0  0.57624  0.09339  0.43637  1.0000
  C   C1658     1.0  0.68940  0.25381  0.41638  1.0000
  H   H1322     1.0  0.94794  0.16720  0.36536  1.0000
  C   C1659     1.0  0.69157  0.52892  0.25113  1.0000
  H   H1323     1.0  0.57602  0.29986  0.41314  1.0000
  C   C1660     1.0  0.66004  0.15811  0.28430  1.0000
  H   H1324     1.0  0.79713  0.42596  0.39763  1.0000
  C   C1661     1.0  0.74468  0.40307  0.25481  1.0000
  H   H1325     1.0  0.66017  0.53230  0.42361  1.0000
  C   C1662     1.0  0.66177  0.52694  0.24944  1.0000
  C   C1663     1.0  0.66861  0.16624  0.32644  1.0000
  H   H1326     1.0  0.68258  0.15226  0.34767  1.0000
  H   H1327     1.0  0.96674  0.50187  0.39901  1.0000
  H   H1328     1.0  0.03263  0.42626  0.22290  1.0000
  S   S224      1.0  0.87900  0.24135  0.34243  1.0000
  C   C1664     1.0  0.02965  0.17259  0.26959  1.0000
  C   C1665     1.0  0.02720  0.50633  0.33057  1.0000
  C   C1666     1.0  0.82802  0.15165  0.26622  1.0000
  S   S225      1.0  0.79899  0.26412  0.34606  1.0000
  H   H1329     1.0  0.73554  0.05616  0.33569  1.0000
  C   C1667     1.0  0.70051  0.25237  0.37151  1.0000
  C   C1668     1.0  0.67786  0.39758  0.30106  1.0000
  C   C1669     1.0  0.04541  0.44504  0.22861  1.0000
  S   S226      1.0  0.90069  0.16201  0.30360  1.0000
  C   C1670     1.0  0.89975  0.45970  0.42676  1.0000
  C   C1671     1.0  0.77561  0.11403  0.45083  1.0000
  C   C1672     1.0  0.96399  0.12374  0.38057  1.0000
  H   H1330     1.0  0.91343  0.52384  0.36577  1.0000
  H   H1331     1.0  0.03285  0.39934  0.44937  1.0000
  H   H1332     1.0  0.91402  0.50485  0.28720  1.0000
  Fe  Fe114     1.0  0.64035  0.10470  0.22573  1.0000
  H   H1333     1.0  0.98958  0.46038  0.24842  1.0000
  C   C1673     1.0  0.82030  0.09592  0.23942  1.0000
  H   H1334     1.0  0.60839  0.23255  0.43008  1.0000
  H   H1335     1.0  0.00451  0.22497  0.41734  1.0000
  Fe  Fe115     1.0  0.60303  0.33649  0.24192  1.0000
  H   H1336     1.0  0.02225  0.21268  0.34086  1.0000
  C   C1674     1.0  0.85256  0.43875  0.31213  1.0000
  C   C1675     1.0  0.68811  0.30633  0.40155  1.0000
  C   C1676     1.0  0.86666  0.43634  0.35411  1.0000
  H   H1337     1.0  0.04727  0.45947  0.42207  1.0000
  H   H1338     1.0  0.95552  0.22731  0.37856  1.0000
  C   C1677     1.0  0.96109  0.09450  0.37317  1.0000
  H   H1339     1.0  0.81647  0.37402  0.32490  1.0000
  C   C1678     1.0  0.92231  0.13610  0.33470  1.0000
  C   C1679     1.0  0.74358  0.14889  0.33892  1.0000
  H   H1340     1.0  0.66510  0.19799  0.37472  1.0000
  C   C1680     1.0  0.56570  0.22061  0.41347  1.0000
  H   H1341     1.0  0.96367  0.23235  0.23126  1.0000
  C   C1681     1.0  0.64089  0.21058  0.31434  1.0000
  C   C1682     1.0  0.93543  0.09766  0.22216  1.0000
  H   H1342     1.0  0.87427  0.40795  0.41687  1.0000
  C   C1683     1.0  0.75642  0.48685  0.39280  1.0000
  H   H1343     1.0  0.62463  0.18200  0.44740  1.0000
  H   H1344     1.0  0.91938  0.34161  0.40772  1.0000
  C   C1684     1.0  0.06001  0.07575  0.30741  1.0000
  C   C1685     1.0  0.84505  0.38849  0.37414  1.0000
  C   C1686     1.0  0.65184  0.37644  0.37012  1.0000
  C   C1687     1.0  0.83138  0.53082  0.35093  1.0000
  H   H1345     1.0  0.65284  0.45470  0.28232  1.0000
  H   H1346     1.0  0.75934  0.22966  0.29468  1.0000
  C   C1688     1.0  0.58181  0.44455  0.30469  1.0000
  Fe  Fe116     1.0  0.88200  0.19269  0.35030  1.0000
  C   C1689     1.0  0.78062  0.04991  0.21786  1.0000
  C   C1690     1.0  0.91830  0.10661  0.33037  1.0000
  S   S227      1.0  0.62720  0.37634  0.21248  1.0000
  C   C1691     1.0  0.04405  0.15210  0.40782  1.0000
  C   C1692     1.0  0.64279  0.04951  0.43025  1.0000
  H   H1347     1.0  0.90360  0.34073  0.31109  1.0000
  H   H1348     1.0  0.76355  0.41415  0.33966  1.0000
  H   H1349     1.0  0.80701  0.13487  0.33051  1.0000
  C   C1693     1.0  0.92139  0.46348  0.32811  1.0000
  P   P56       1.0  0.99853  0.31849  0.30041  1.0000
  H   H1350     1.0  0.69289  0.43336  0.39330  1.0000
  H   H1351     1.0  0.75424  0.50700  0.40789  1.0000
  C   C1694     1.0  0.03425  0.47422  0.40059  1.0000
  C   C1695     1.0  0.65878  0.37677  0.32312  1.0000
  C   C1696     1.0  0.78072  0.44142  0.38644  1.0000
  C   C1697     1.0  0.84146  0.07163  0.39864  1.0000
  C   C1698     1.0  0.83059  0.39133  0.33278  1.0000
  C   C1699     1.0  0.75860  0.06963  0.22604  1.0000
  H   H1352     1.0  0.75028  0.16172  0.40648  1.0000
  C   C1700     1.0  0.63708  0.09561  0.38281  1.0000
  C   C1701     1.0  0.98847  0.49770  0.38746  1.0000
  C   C1702     1.0  0.64102  0.52454  0.40879  1.0000
  H   H1353     1.0  0.05551  0.13189  0.40655  1.0000
  H   H1354     1.0  0.04994  0.43189  0.30068  1.0000
  C   C1703     1.0  0.04722  0.29230  0.33972  1.0000
  H   H1355     1.0  0.71942  0.49505  0.35289  1.0000
  H   H1356     1.0  0.76179  0.21299  0.37720  1.0000
  C   C1704     1.0  0.94467  0.14455  0.36124  1.0000
  H   H1357     1.0  0.93363  0.42050  0.35726  1.0000
  S   S228      1.0  0.89968  0.19004  0.42047  1.0000
  C   C1705     1.0  0.93886  0.43872  0.33180  1.0000
  Fe  Fe117     1.0  0.83461  0.23519  0.37423  1.0000
  C   C1706     1.0  0.75635  0.19760  0.35350  1.0000
  C   C1707     1.0  0.83755  0.04706  0.43059  1.0000
  H   H1358     1.0  0.01828  0.36710  0.34824  1.0000
  C   C1708     1.0  0.00601  0.47911  0.41506  1.0000
  C   C1709     1.0  0.58420  0.16336  0.43174  1.0000
  C   C1710     1.0  0.97533  0.26640  0.34437  1.0000
  H   H1359     1.0  0.57703  0.09676  0.35176  1.0000
  C   C1711     1.0  0.77830  0.46750  0.40596  1.0000
  H   H1360     1.0  0.76328  0.09121  0.23464  1.0000
  C   C1712     1.0  0.86076  0.09337  0.40691  1.0000
  H   H1361     1.0  0.62465  0.28054  0.42007  1.0000
  C   C1713     1.0  0.69390  0.47720  0.27720  1.0000
  C   C1714     1.0  0.73967  0.45438  0.33953  1.0000
  C   C1715     1.0  0.05590  0.33617  0.28754  1.0000
  H   H1362     1.0  0.86376  0.52200  0.45502  1.0000
  C   C1716     1.0  0.74994  0.18699  0.27487  1.0000
  H   H1363     1.0  0.62511  0.49848  0.25769  1.0000
  H   H1364     1.0  0.90035  0.09973  0.31187  1.0000
  H   H1365     1.0  0.65910  0.39650  0.43181  1.0000
  H   H1366     1.0  0.94501  0.38333  0.43470  1.0000
  C   C1717     1.0  0.60283  0.18628  0.43710  1.0000
  H   H1367     1.0  0.70495  0.23153  0.35940  1.0000
  C   C1718     1.0  0.64135  0.17600  0.25745  1.0000
  H   H1368     1.0  0.93433  0.08268  0.25334  1.0000
  C   C1719     1.0  0.75020  0.16868  0.36984  1.0000
  C   C1720     1.0  0.96667  0.24203  0.26272  1.0000
  H   H1369     1.0  0.76931  0.10664  0.41879  1.0000
  P   P57       1.0  0.89045  0.46507  0.36680  1.0000
  H   H1370     1.0  0.68500  0.23384  0.43844  1.0000
  C   C1721     1.0  0.77419  0.34437  0.41725  1.0000
  H   H1371     1.0  0.73072  0.50619  0.26586  1.0000
  H   H1372     1.0  0.71300  0.07716  0.22921  1.0000
  C   C1722     1.0  0.86314  0.41081  0.38475  1.0000
  H   H1373     1.0  0.75994  0.31024  0.32292  1.0000
  C   C1723     1.0  0.97911  0.26964  0.26105  1.0000
  C   C1724     1.0  0.05055  0.10458  0.30268  1.0000
  C   C1725     1.0  0.98319  0.28233  0.30194  1.0000
  H   H1374     1.0  0.61831  0.21671  0.25095  1.0000
  P   P58       1.0  0.81791  0.05909  0.22490  1.0000
  H   H1375     1.0  0.93515  0.06346  0.34355  1.0000
  H   H1376     1.0  0.04687  0.05871  0.29627  1.0000
  H   H1377     1.0  0.73807  0.14221  0.26844  1.0000
  H   H1378     1.0  0.74492  0.35291  0.36213  1.0000
  C   C1726     1.0  0.00240  0.15952  0.27545  1.0000
  C   C1727     1.0  0.95232  0.48493  0.26460  1.0000
  S   S229      1.0  0.84816  0.23366  0.44719  1.0000
  C   C1728     1.0  0.01517  0.20445  0.41431  1.0000
  H   H1379     1.0  0.83038  0.48434  0.35527  1.0000
  H   H1380     1.0  0.85564  0.45789  0.28743  1.0000
  H   H1381     1.0  0.79954  0.08578  0.30669  1.0000
  C   C1729     1.0  0.80261  0.12715  0.45384  1.0000
  H   H1382     1.0  0.70064  0.22037  0.26491  1.0000
  H   H1383     1.0  0.60159  0.40628  0.28225  1.0000
  H   H1384     1.0  0.59408  0.45906  0.27978  1.0000
  H   H1385     1.0  0.84206  0.36901  0.39821  1.0000
  C   C1730     1.0  0.59257  0.53291  0.38367  1.0000
  H   H1386     1.0  0.89497  0.11820  0.23542  1.0000
  H   H1387     1.0  0.94213  0.31364  0.34987  1.0000
  H   H1388     1.0  0.68247  0.39783  0.26438  1.0000
  H   H1389     1.0  0.83192  0.17289  0.27706  1.0000
  Fe  Fe118     1.0  0.60290  0.27510  0.29185  1.0000
  C   C1731     1.0  0.03657  0.31545  0.30997  1.0000
  P   P59       1.0  0.71455  0.44553  0.29739  1.0000
  H   H1390     1.0  0.63463  0.16977  0.22485  1.0000
  C   C1732     1.0  0.61686  0.29502  0.44442  1.0000
  H   H1391     1.0  0.86384  0.11249  0.38208  1.0000
  C   C1733     1.0  0.87377  0.50046  0.35948  1.0000
  C   C1734     1.0  0.73439  0.43174  0.25006  1.0000
  C   C1735     1.0  0.65871  0.19214  0.34172  1.0000
  H   H1392     1.0  0.98199  0.13061  0.39914  1.0000
  C   C1736     1.0  0.81030  0.10234  0.28307  1.0000
  H   H1393     1.0  0.73799  0.12663  0.35167  1.0000
  H   H1394     1.0  0.70170  0.32441  0.33293  1.0000
  H   H1395     1.0  0.85085  0.23234  0.22536  1.0000
  H   H1396     1.0  0.96143  0.36835  0.26975  1.0000
  C   C1737     1.0  0.63813  0.06526  0.38713  1.0000
  C   C1738     1.0  0.59354  0.21486  0.42797  1.0000
  H   H1397     1.0  0.63507  0.10769  0.34907  1.0000
  H   H1398     1.0  0.94790  0.20571  0.30570  1.0000
  C   C1739     1.0  0.98292  0.37819  0.39191  1.0000
  H   H1399     1.0  0.97875  0.27533  0.37650  1.0000
  C   C1740     1.0  0.94071  0.34764  0.39386  1.0000
  H   H1400     1.0  0.82072  0.28760  0.42776  1.0000
  C   C1741     1.0  0.66399  0.47526  0.27411  1.0000
  H   H1401     1.0  0.65827  0.48224  0.40102  1.0000
  H   H1402     1.0  0.71301  0.27653  0.30650  1.0000
  S   S230      1.0  0.60316  0.31926  0.31626  1.0000
  H   H1403     1.0  0.63697  0.36023  0.38696  1.0000
  C   C1742     1.0  0.61748  0.54289  0.40214  1.0000
  C   C1743     1.0  0.58036  0.53613  0.26874  1.0000
  C   C1744     1.0  0.84399  0.50327  0.35510  1.0000
  C   C1745     1.0  0.76153  0.43483  0.35334  1.0000
  C   C1746     1.0  0.92778  0.48616  0.29308  1.0000
  C   C1747     1.0  0.83440  0.41642  0.30171  1.0000
  H   H1404     1.0  0.56821  0.19816  0.24044  1.0000
  C   C1748     1.0  0.04519  0.48792  0.35837  1.0000
  C   C1749     1.0  0.72984  0.06176  0.22289  1.0000
  H   H1405     1.0  0.72734  0.20154  0.44777  1.0000
  C   C1750     1.0  0.05590  0.44797  0.27209  1.0000
  H   H1406     1.0  0.61518  0.46469  0.36690  1.0000
  H   H1407     1.0  0.99415  0.39630  0.40369  1.0000
  H   H1408     1.0  0.04842  0.35459  0.26512  1.0000
  S   S231      1.0  0.63123  0.24396  0.33345  1.0000
  H   H1409     1.0  0.98555  0.52592  0.32396  1.0000
  H   H1410     1.0  0.03289  0.27640  0.35837  1.0000
  C   C1751     1.0  0.96344  0.43756  0.30324  1.0000
  H   H1411     1.0  0.02994  0.10917  0.28804  1.0000
  S   S232      1.0  0.76178  0.37386  0.44550  1.0000
  S   S233      1.0  0.59739  0.09276  0.25855  1.0000
  H   H1412     1.0  0.63729  0.05420  0.35630  1.0000
  H   H1413     1.0  0.80160  0.22351  0.25475  1.0000
  C   C1752     1.0  0.76156  0.33874  0.37640  1.0000
  C   C1753     1.0  0.89960  0.38335  0.27409  1.0000
  C   C1754     1.0  0.80419  0.30170  0.41332  1.0000
  C   C1755     1.0  0.89463  0.39914  0.23151  1.0000
  C   C1756     1.0  0.57050  0.39547  0.33772  1.0000
  H   H1414     1.0  0.94540  0.45294  0.41545  1.0000
  C   C1757     1.0  0.76134  0.39283  0.21936  1.0000
  C   C1758     1.0  0.79089  0.29557  0.37311  1.0000
  C   C1759     1.0  0.80684  0.21953  0.21973  1.0000
  C   C1760     1.0  0.74060  0.44969  0.20875  1.0000
  H   H1415     1.0  0.79108  0.31762  0.23432  1.0000
  H   H1416     1.0  0.73974  0.38850  0.28574  1.0000
  C   C1761     1.0  0.03574  0.19220  0.23011  1.0000
  H   H1417     1.0  0.99695  0.14513  0.30627  1.0000
  Fe  Fe119     1.0  0.85399  0.18579  0.44490  1.0000
  C   C1762     1.0  0.64031  0.11040  0.42147  1.0000
  H   H1418     1.0  0.97722  0.41871  0.30675  1.0000
  C   C1763     1.0  0.87589  0.09080  0.44756  1.0000
  C   C1764     1.0  0.70762  0.50414  0.26450  1.0000
  H   H1419     1.0  0.88153  0.52774  0.21576  1.0000
  C   C1765     1.0  0.99910  0.51141  0.34535  1.0000
  C   C1766     1.0  0.91321  0.11718  0.21172  1.0000
  C   C1767     1.0  0.69061  0.41801  0.32612  1.0000
  C   C1768     1.0  0.63203  0.20247  0.27224  1.0000
  C   C1769     1.0  0.73681  0.48011  0.36060  1.0000
  H   H1420     1.0  0.75383  0.24873  0.43659  1.0000
  C   C1770     1.0  0.95515  0.37106  0.40904  1.0000
  C   C1771     1.0  0.58618  0.41464  0.30600  1.0000
  C   C1772     1.0  0.95801  0.22685  0.30487  1.0000
  H   H1421     1.0  0.64932  0.36095  0.30351  1.0000
  H   H1422     1.0  0.96128  0.15401  0.24605  1.0000
  C   C1773     1.0  0.01961  0.18543  0.45392  1.0000
  C   C1774     1.0  0.02524  0.19741  0.37125  1.0000
  C   C1775     1.0  0.96237  0.23901  0.34573  1.0000
  H   H1423     1.0  0.05612  0.20356  0.22515  1.0000
  H   H1424     1.0  0.86892  0.06484  0.27905  1.0000
  H   H1425     1.0  0.81690  0.13045  0.42386  1.0000
  C   C1776     1.0  0.74360  0.15791  0.29156  1.0000
  C   C1777     1.0  0.04024  0.17140  0.36783  1.0000
  C   C1778     1.0  0.99651  0.36159  0.36032  1.0000
  C   C1779     1.0  0.68347  0.28087  0.43186  1.0000
  C   C1780     1.0  0.89054  0.52554  0.36125  1.0000
  C   C1781     1.0  0.68353  0.41765  0.37337  1.0000
  H   H1426     1.0  0.90207  0.39454  0.30433  1.0000
  C   C1782     1.0  0.59146  0.50492  0.36969  1.0000
  H   H1427     1.0  0.69666  0.05625  0.39435  1.0000
  C   C1783     1.0  0.61524  0.48650  0.37672  1.0000
  Fe  Fe120     1.0  0.60345  0.04996  0.23036  1.0000
  C   C1784     1.0  0.66425  0.39688  0.39528  1.0000
  S   S234      1.0  0.67290  0.12545  0.26623  1.0000
  C   C1785     1.0  0.83708  0.14573  0.22212  1.0000
  H   H1428     1.0  0.82343  0.41848  0.26938  1.0000
  H   H1429     1.0  0.89854  0.31492  0.24247  1.0000
  H   H1430     1.0  0.66628  0.25965  0.24500  1.0000
  C   C1786     1.0  0.63988  0.49633  0.39623  1.0000
  H   H1431     1.0  0.71705  0.32121  0.21182  1.0000
  C   C1787     1.0  0.92797  0.45398  0.44038  1.0000
  C   C1788     1.0  0.70485  0.27777  0.34144  1.0000
  C   C1789     1.0  0.97387  0.36244  0.24034  1.0000
  C   C1790     1.0  0.89778  0.33847  0.23882  1.0000
  S   S235      1.0  0.98717  0.06891  0.39206  1.0000
  C   C1791     1.0  0.64808  0.50008  0.26031  1.0000
  C   C1792     1.0  0.99339  0.33928  0.24497  1.0000
  H   H1432     1.0  0.82976  0.07367  0.36729  1.0000
  C   C1793     1.0  0.93784  0.08594  0.34891  1.0000
  C   C1794     1.0  0.95395  0.33145  0.36148  1.0000
  H   H1433     1.0  0.98546  0.28073  0.22773  1.0000
  C   C1795     1.0  0.90077  0.35303  0.27784  1.0000
  C   C1796     1.0  0.75550  0.20689  0.30641  1.0000
  H   H1434     1.0  0.03452  0.51644  0.29693  1.0000
  H   H1435     1.0  0.64931  0.54618  0.23957  1.0000
  S   S236      1.0  0.92343  0.27056  0.43543  1.0000
  Fe  Fe121     1.0  0.89248  0.23791  0.41565  1.0000
  S   S237      1.0  0.05325  0.34094  0.44507  1.0000
  H   H1436     1.0  0.59139  0.14124  0.43816  1.0000
  C   C1797     1.0  0.97037  0.46090  0.27016  1.0000
  C   C1798     1.0  0.81426  0.13009  0.29648  1.0000
  S   S238      1.0  0.83614  0.18652  0.37480  1.0000
  H   H1437     1.0  0.68363  0.32740  0.41289  1.0000
  C   C1799     1.0  0.79580  0.32608  0.43535  1.0000
  C   C1800     1.0  0.76997  0.31454  0.35432  1.0000
  C   C1801     1.0  0.68410  0.25634  0.22133  1.0000
  H   H1438     1.0  0.95739  0.50269  0.23810  1.0000
  C   C1802     1.0  0.58927  0.30623  0.44004  1.0000
  P   P60       1.0  0.05608  0.16423  0.31295  1.0000
  H   H1439     1.0  0.89353  0.42270  0.22837  1.0000
  H   H1440     1.0  0.02468  0.31499  0.20866  1.0000
  P   P61       1.0  0.75035  0.19907  0.21380  1.0000
  H   H1441     1.0  0.83838  0.34079  0.21937  1.0000
  H   H1442     1.0  0.99785  0.46886  0.44812  1.0000
  C   C1803     1.0  0.70392  0.23434  0.23282  1.0000
  H   H1443     1.0  0.80842  0.53299  0.34721  1.0000
  H   H1444     1.0  0.76875  0.37054  0.22269  1.0000
  H   H1445     1.0  0.59390  0.54473  0.29331  1.0000
  S   S239      1.0  0.60634  0.29255  0.21679  1.0000
  C   C1804     1.0  0.67714  0.34487  0.21280  1.0000
  H   H1446     1.0  0.79549  0.53835  0.45273  1.0000
  C   C1805     1.0  0.03359  0.15908  0.45062  1.0000
  H   H1447     1.0  0.57853  0.39694  0.44664  1.0000
  C   C1806     1.0  0.83302  0.11809  0.20848  1.0000
  H   H1448     1.0  0.83389  0.89991  0.63951  1.0000
  C   C1807     1.0  0.96761  0.84350  0.56524  1.0000
  C   C1808     1.0  0.97163  0.70694  0.53310  1.0000
  C   C1809     1.0  0.05966  0.00224  0.63954  1.0000
  H   H1449     1.0  0.03462  0.89318  0.62169  1.0000
  H   H1450     1.0  0.97423  0.91432  0.52109  1.0000
  Fe  Fe122     1.0  0.57245  0.84120  0.63368  1.0000
  C   C1810     1.0  0.84079  0.95341  0.49859  1.0000
  C   C1811     1.0  0.80402  0.64882  0.51906  1.0000
  C   C1812     1.0  0.73314  0.68099  0.56809  1.0000
  C   C1813     1.0  0.92250  0.71741  0.51182  1.0000
  C   C1814     1.0  0.70893  0.00866  0.53949  1.0000
  C   C1815     1.0  0.82233  0.93663  0.53011  1.0000
  C   C1816     1.0  0.96477  0.73329  0.64762  1.0000
  H   H1451     1.0  0.66850  0.91173  0.51763  1.0000
  H   H1452     1.0  0.99805  0.99449  0.59962  1.0000
  H   H1453     1.0  0.71111  0.97731  0.59935  1.0000
  C   C1817     1.0  0.91516  0.97734  0.57676  1.0000
  C   C1818     1.0  0.86554  0.94110  0.48067  1.0000
  C   C1819     1.0  0.03141  0.69312  0.67433  1.0000
  C   C1820     1.0  0.85256  0.04443  0.47138  1.0000
  C   C1821     1.0  0.66467  0.75631  0.65917  1.0000
  C   C1822     1.0  0.87864  0.64646  0.65869  1.0000
  C   C1823     1.0  0.91686  0.01381  0.49363  1.0000
  C   C1824     1.0  0.85217  0.61817  0.59136  1.0000
  H   H1454     1.0  0.84929  0.02539  0.49610  1.0000
  C   C1825     1.0  0.90667  0.02466  0.53429  1.0000
  H   H1455     1.0  0.73381  0.57161  0.58575  1.0000
  H   H1456     1.0  0.71440  0.83208  0.67545  1.0000
  C   C1826     1.0  0.99214  0.00109  0.52668  1.0000
  C   C1827     1.0  0.90804  0.55251  0.52655  1.0000
  C   C1828     1.0  0.72033  0.63620  0.61543  1.0000
  H   H1457     1.0  0.67024  0.80298  0.64565  1.0000
  C   C1829     1.0  0.89023  0.83811  0.61191  1.0000
  C   C1830     1.0  0.95110  0.61565  0.61711  1.0000
  H   H1458     1.0  0.86125  0.98943  0.65901  1.0000
  C   C1831     1.0  0.85090  0.60615  0.63764  1.0000
  H   H1459     1.0  0.75770  0.76212  0.56838  1.0000
  Fe  Fe123     1.0  0.62071  0.86747  0.56951  1.0000
  C   C1832     1.0  0.75153  0.54772  0.46859  1.0000
  H   H1460     1.0  0.00274  0.81423  0.57929  1.0000
  C   C1833     1.0  0.77911  0.98209  0.51463  1.0000
  H   H1461     1.0  0.93354  0.97660  0.46308  1.0000
  H   H1462     1.0  0.85831  0.87229  0.53435  1.0000
  H   H1463     1.0  0.96006  0.78007  0.51627  1.0000
  H   H1464     1.0  0.01241  0.56468  0.49831  1.0000
  C   C1834     1.0  0.85417  0.75144  0.46174  1.0000
  C   C1835     1.0  0.69484  0.01693  0.49869  1.0000
  C   C1836     1.0  0.76454  0.97582  0.47568  1.0000
  C   C1837     1.0  0.59808  0.01913  0.59411  1.0000
  C   C1838     1.0  0.58744  0.98728  0.53663  1.0000
  C   C1839     1.0  0.56920  0.00823  0.51550  1.0000
  H   H1465     1.0  0.77617  0.61562  0.68459  1.0000
  P   P62       1.0  0.99995  0.68130  0.54782  1.0000
  H   H1466     1.0  0.68276  0.75584  0.52805  1.0000
  C   C1840     1.0  0.72394  0.65204  0.57190  1.0000
  C   C1841     1.0  0.96672  0.59081  0.60959  1.0000
  H   H1467     1.0  0.71575  0.89799  0.65376  1.0000
  C   C1842     1.0  0.83889  0.98829  0.65109  1.0000
  H   H1468     1.0  0.89728  0.58778  0.56533  1.0000
  H   H1469     1.0  0.02040  0.02216  0.66177  1.0000
  S   S240      1.0  0.93315  0.69212  0.70011  1.0000
  C   C1843     1.0  0.03399  0.00337  0.66575  1.0000
  C   C1844     1.0  0.79657  0.89526  0.68512  1.0000
  C   C1845     1.0  0.99651  0.83613  0.56703  1.0000
  H   H1470     1.0  0.77355  0.01120  0.68629  1.0000
  S   S241      1.0  0.87651  0.92873  0.68519  1.0000
  H   H1471     1.0  0.78453  0.88312  0.66262  1.0000
  H   H1472     1.0  0.89154  0.90271  0.48091  1.0000
  C   C1846     1.0  0.77967  0.80109  0.65866  1.0000
  C   C1847     1.0  0.80912  0.75121  0.62003  1.0000
  H   H1473     1.0  0.81483  0.89383  0.56687  1.0000
  S   S242      1.0  0.61211  0.91288  0.58623  1.0000
  H   H1474     1.0  0.70229  0.03604  0.47678  1.0000
  C   C1848     1.0  0.86782  0.64399  0.57871  1.0000
  C   C1849     1.0  0.00037  0.76433  0.67623  1.0000
  C   C1850     1.0  0.81708  0.69072  0.62849  1.0000
  C   C1851     1.0  0.95542  0.75697  0.51911  1.0000
  H   H1475     1.0  0.74068  0.68834  0.68152  1.0000
  H   H1476     1.0  0.93441  0.90800  0.66990  1.0000
  H   H1477     1.0  0.89857  0.01366  0.60789  1.0000
  H   H1478     1.0  0.82475  0.01351  0.70526  1.0000
  P   P63       1.0  0.80330  0.79009  0.61349  1.0000
  C   C1852     1.0  0.98595  0.64569  0.56923  1.0000
  H   H1479     1.0  0.00159  0.84518  0.68987  1.0000
  C   C1853     1.0  0.98510  0.75569  0.63977  1.0000
  C   C1854     1.0  0.94188  0.88706  0.68503  1.0000
  H   H1480     1.0  0.91431  0.96315  0.60901  1.0000
  C   C1855     1.0  0.81069  0.70463  0.66762  1.0000
  P   P64       1.0  0.03750  0.91284  0.52220  1.0000
  H   H1481     1.0  0.61625  0.68670  0.48238  1.0000
  Fe  Fe124     1.0  0.56597  0.90138  0.58034  1.0000
  C   C1856     1.0  0.01536  0.68321  0.63958  1.0000
  H   H1482     1.0  0.67213  0.70949  0.57702  1.0000
  C   C1857     1.0  0.86366  0.62051  0.67133  1.0000
  C   C1858     1.0  0.78569  0.01126  0.51963  1.0000
  H   H1483     1.0  0.68214  0.80239  0.56274  1.0000
  H   H1484     1.0  0.58959  0.96645  0.52322  1.0000
  H   H1485     1.0  0.84716  0.96152  0.59715  1.0000
  H   H1486     1.0  0.83621  0.97600  0.48810  1.0000
  H   H1487     1.0  0.99861  0.74492  0.53470  1.0000
  C   C1859     1.0  0.66012  0.63370  0.68400  1.0000
  H   H1488     1.0  0.00452  0.57412  0.57767  1.0000
  H   H1489     1.0  0.89322  0.67796  0.60288  1.0000
  H   H1490     1.0  0.98443  0.89292  0.65453  1.0000
  C   C1860     1.0  0.81332  0.54832  0.59520  1.0000
  H   H1491     1.0  0.66872  0.94963  0.58049  1.0000
  H   H1492     1.0  0.56777  0.95523  0.66941  1.0000
  H   H1493     1.0  0.04724  0.72363  0.54684  1.0000
  C   C1861     1.0  0.63058  0.62905  0.69061  1.0000
  H   H1494     1.0  0.92954  0.55043  0.53941  1.0000
  H   H1495     1.0  0.59940  0.79509  0.60503  1.0000
  H   H1496     1.0  0.72678  0.02149  0.54895  1.0000
  H   H1497     1.0  0.71445  0.94556  0.69331  1.0000
  C   C1862     1.0  0.60192  0.99275  0.57590  1.0000
  C   C1863     1.0  0.69988  0.98404  0.56824  1.0000
  C   C1864     1.0  0.88711  0.81461  0.58620  1.0000
  C   C1865     1.0  0.73592  0.67802  0.65126  1.0000
  H   H1498     1.0  0.66155  0.70939  0.66017  1.0000
  C   C1866     1.0  0.78119  0.98484  0.63069  1.0000
  C   C1867     1.0  0.97582  0.55255  0.46170  1.0000
  C   C1868     1.0  0.84078  0.91919  0.70170  1.0000
  C   C1869     1.0  0.92575  0.98491  0.49456  1.0000
  C   C1870     1.0  0.05318  0.71369  0.66311  1.0000
  H   H1499     1.0  0.64268  0.96476  0.51038  1.0000
  H   H1500     1.0  0.82261  0.84122  0.65722  1.0000
  H   H1501     1.0  0.70377  0.86623  0.59381  1.0000
  H   H1502     1.0  0.75965  0.95373  0.47007  1.0000
  H   H1503     1.0  0.95960  0.56967  0.62572  1.0000
  P   P65       1.0  0.79139  0.95301  0.55571  1.0000
  C   C1871     1.0  0.63498  0.96958  0.69146  1.0000
  C   C1872     1.0  0.67081  0.78241  0.63126  1.0000
  H   H1504     1.0  0.56977  0.63599  0.47789  1.0000
  H   H1505     1.0  0.92678  0.79863  0.67787  1.0000
  P   P66       1.0  0.83556  0.59971  0.54793  1.0000
  C   C1873     1.0  0.05811  0.03175  0.46088  1.0000
  H   H1506     1.0  0.73127  0.87088  0.51938  1.0000
  C   C1874     1.0  0.85354  0.89501  0.52475  1.0000
  C   C1875     1.0  0.77661  0.03363  0.48749  1.0000
  H   H1507     1.0  0.78216  0.85454  0.47251  1.0000
  H   H1508     1.0  0.61025  0.72673  0.68520  1.0000
  C   C1876     1.0  0.85292  0.55786  0.49278  1.0000
  H   H1509     1.0  0.94939  0.66215  0.60614  1.0000
  H   H1510     1.0  0.70357  0.94194  0.46624  1.0000
  S   S243      1.0  0.04252  0.55733  0.66937  1.0000
  C   C1877     1.0  0.78103  0.56982  0.70303  1.0000
  H   H1511     1.0  0.80283  0.74497  0.69436  1.0000
  C   C1878     1.0  0.86175  0.57637  0.52436  1.0000
  H   H1512     1.0  0.93186  0.61377  0.63908  1.0000
  C   C1879     1.0  0.74797  0.79056  0.50825  1.0000
  C   C1880     1.0  0.99200  0.59333  0.58230  1.0000
  C   C1881     1.0  0.05772  0.03941  0.50583  1.0000
  H   H1513     1.0  0.84447  0.78962  0.49531  1.0000
  H   H1514     1.0  0.91104  0.75862  0.63577  1.0000
  H   H1515     1.0  0.02136  0.62205  0.54132  1.0000
  C   C1882     1.0  0.83067  0.97225  0.61588  1.0000
  C   C1883     1.0  0.05562  0.90721  0.46795  1.0000
  C   C1884     1.0  0.72708  0.90062  0.62049  1.0000
  H   H1516     1.0  0.75886  0.98499  0.62195  1.0000
  H   H1517     1.0  0.98941  0.76603  0.60530  1.0000
  H   H1518     1.0  0.66784  0.64487  0.65144  1.0000
  H   H1519     1.0  0.60896  0.02320  0.62493  1.0000
  C   C1885     1.0  0.78948  0.00027  0.66665  1.0000
  H   H1520     1.0  0.61869  0.75277  0.56954  1.0000
  C   C1886     1.0  0.66580  0.72993  0.63940  1.0000
  C   C1887     1.0  0.67777  0.78214  0.58428  1.0000
  H   H1521     1.0  0.61574  0.97644  0.59282  1.0000
  C   C1888     1.0  0.81833  0.00183  0.67708  1.0000
  Fe  Fe125     1.0  0.60553  0.89275  0.65936  1.0000
  H   H1522     1.0  0.02524  0.94908  0.59690  1.0000
  H   H1523     1.0  0.80363  0.56999  0.69411  1.0000
  C   C1889     1.0  0.05896  0.72432  0.61707  1.0000
  C   C1890     1.0  0.97006  0.87861  0.67647  1.0000
  H   H1524     1.0  0.83153  0.55951  0.48023  1.0000
  H   H1525     1.0  0.84058  0.58548  0.64766  1.0000
  S   S244      1.0  0.02663  0.79162  0.66406  1.0000
  S   S245      1.0  0.57015  0.55730  0.69015  1.0000
  H   H1526     1.0  0.85928  0.78089  0.56901  1.0000
  C   C1891     1.0  0.00229  0.98613  0.56697  1.0000
  C   C1892     1.0  0.82463  0.90434  0.67230  1.0000
  C   C1893     1.0  0.80164  0.97000  0.60572  1.0000
  C   C1894     1.0  0.02138  0.94831  0.52322  1.0000
  H   H1527     1.0  0.91107  0.76270  0.50206  1.0000
  C   C1895     1.0  0.84869  0.78104  0.46293  1.0000
  H   H1528     1.0  0.95158  0.82706  0.57611  1.0000
  C   C1896     1.0  0.82022  0.70702  0.58532  1.0000
  S   S246      1.0  0.61903  0.84844  0.64369  1.0000
  C   C1897     1.0  0.67843  0.75589  0.56477  1.0000
  C   C1898     1.0  0.05187  0.67418  0.49980  1.0000
  H   H1529     1.0  0.91767  0.02762  0.46103  1.0000
  C   C1899     1.0  0.58820  0.77448  0.61068  1.0000
  C   C1900     1.0  0.79329  0.67011  0.48657  1.0000
  C   C1901     1.0  0.95968  0.87184  0.54918  1.0000
  C   C1902     1.0  0.96087  0.64301  0.59765  1.0000
  H   H1530     1.0  0.56952  0.70785  0.46110  1.0000
  C   C1903     1.0  0.73486  0.82213  0.68354  1.0000
  H   H1531     1.0  0.74503  0.81597  0.61377  1.0000
  C   C1904     1.0  0.75257  0.81298  0.64854  1.0000
  C   C1905     1.0  0.68549  0.98164  0.68547  1.0000
  C   C1906     1.0  0.90020  0.76229  0.66797  1.0000
  H   H1532     1.0  0.93725  0.87754  0.54676  1.0000
  C   C1907     1.0  0.65692  0.99039  0.68258  1.0000
  H   H1533     1.0  0.88864  0.65733  0.68483  1.0000
  C   C1908     1.0  0.05691  0.89620  0.61067  1.0000
  C   C1909     1.0  0.75608  0.56553  0.58962  1.0000
  C   C1910     1.0  0.76541  0.59564  0.69850  1.0000
  C   C1911     1.0  0.00911  0.96244  0.48359  1.0000
  C   C1912     1.0  0.67599  0.96837  0.55736  1.0000
  C   C1913     1.0  0.58541  0.72351  0.59910  1.0000
  C   C1914     1.0  0.87809  0.74360  0.68607  1.0000
  C   C1915     1.0  0.94434  0.69736  0.52226  1.0000
  H   H1534     1.0  0.81993  0.66738  0.63183  1.0000
  C   C1916     1.0  0.92789  0.74719  0.51105  1.0000
  C   C1917     1.0  0.78617  0.79948  0.55951  1.0000
  H   H1535     1.0  0.71891  0.64214  0.54109  1.0000
  C   C1918     1.0  0.67113  0.00101  0.48667  1.0000
  C   C1919     1.0  0.67045  0.93145  0.70148  1.0000
  C   C1920     1.0  0.84045  0.83310  0.63784  1.0000
  H   H1536     1.0  0.85462  0.73702  0.49346  1.0000
  C   C1921     1.0  0.01756  0.85703  0.55333  1.0000
  C   C1922     1.0  0.86699  0.84717  0.63790  1.0000
  H   H1537     1.0  0.65177  0.01325  0.67663  1.0000
  C   C1923     1.0  0.62248  0.55248  0.52274  1.0000
  C   C1924     1.0  0.97730  0.73693  0.52951  1.0000
  C   C1925     1.0  0.67246  0.72979  0.59235  1.0000
  C   C1926     1.0  0.02101  0.69374  0.59303  1.0000
  H   H1538     1.0  0.71222  0.61410  0.61805  1.0000
  S   S247      1.0  0.60130  0.69263  0.57994  1.0000
  C   C1927     1.0  0.98078  0.89277  0.53475  1.0000
  C   C1928     1.0  0.88967  0.57384  0.54091  1.0000
  C   C1929     1.0  0.67382  0.87402  0.48130  1.0000
  C   C1930     1.0  0.83731  0.80891  0.61321  1.0000
  H   H1539     1.0  0.76922  0.90789  0.50300  1.0000
  H   H1540     1.0  0.98093  0.02145  0.52796  1.0000
  C   C1931     1.0  0.04277  0.71468  0.58221  1.0000
  C   C1932     1.0  0.82879  0.90725  0.54279  1.0000
  Fe  Fe126     1.0  0.56973  0.65624  0.59529  1.0000
  C   C1933     1.0  0.97970  0.85177  0.69648  1.0000
  C   C1934     1.0  0.95907  0.71979  0.69217  1.0000
  C   C1935     1.0  0.90899  0.78510  0.69202  1.0000
  C   C1936     1.0  0.88107  0.65806  0.61242  1.0000
  C   C1937     1.0  0.80681  0.57608  0.57349  1.0000
  C   C1938     1.0  0.02249  0.67995  0.49638  1.0000
  C   C1939     1.0  0.82208  0.62696  0.50502  1.0000
  H   H1541     1.0  0.81778  0.74917  0.54715  1.0000
  H   H1542     1.0  0.95317  0.72648  0.61926  1.0000
  H   H1543     1.0  0.61630  0.63626  0.66317  1.0000
  C   C1940     1.0  0.79286  0.82562  0.53215  1.0000
  C   C1941     1.0  0.57961  0.03995  0.57333  1.0000
  H   H1544     1.0  0.82617  0.69657  0.55501  1.0000
  H   H1545     1.0  0.93166  0.94429  0.53669  1.0000
  H   H1546     1.0  0.87211  0.72536  0.66810  1.0000
  C   C1942     1.0  0.67887  0.90296  0.48856  1.0000
  H   H1547     1.0  0.59039  0.58175  0.49457  1.0000
  C   C1943     1.0  0.76368  0.78196  0.54717  1.0000
  C   C1944     1.0  0.77695  0.83424  0.49338  1.0000
  C   C1945     1.0  0.69225  0.95220  0.69246  1.0000
  H   H1548     1.0  0.75334  0.93497  0.63865  1.0000
  H   H1549     1.0  0.73063  0.77707  0.49871  1.0000
  H   H1550     1.0  0.73483  0.69354  0.53440  1.0000
  C   C1946     1.0  0.92484  0.96667  0.53608  1.0000
  C   C1947     1.0  0.72565  0.64933  0.65546  1.0000
  H   H1551     1.0  0.99825  0.66779  0.64963  1.0000
  H   H1552     1.0  0.91063  0.84920  0.61243  1.0000
  C   C1948     1.0  0.00153  0.62061  0.56188  1.0000
  C   C1949     1.0  0.73963  0.69378  0.60771  1.0000
  C   C1950     1.0  0.64193  0.94029  0.70264  1.0000
  H   H1553     1.0  0.71374  0.73195  0.68983  1.0000
  C   C1951     1.0  0.80700  0.73478  0.66345  1.0000
  C   C1952     1.0  0.59926  0.75048  0.59080  1.0000
  C   C1953     1.0  0.99559  0.98926  0.48494  1.0000
  H   H1554     1.0  0.93998  0.67448  0.52096  1.0000
  C   C1954     1.0  0.00995  0.88553  0.53695  1.0000
  C   C1955     1.0  0.90619  0.00621  0.57595  1.0000
  H   H1555     1.0  0.90505  0.80743  0.56593  1.0000
  C   C1956     1.0  0.59595  0.55932  0.50399  1.0000
  S   S248      1.0  0.71303  0.00707  0.68389  1.0000
  H   H1556     1.0  0.80902  0.69211  0.70135  1.0000
  C   C1957     1.0  0.87210  0.91204  0.49421  1.0000
  H   H1557     1.0  0.63734  0.56975  0.52805  1.0000
  H   H1558     1.0  0.79766  0.01714  0.54829  1.0000
  C   C1958     1.0  0.75750  0.90642  0.53587  1.0000
  S   S249      1.0  0.69507  0.55894  0.48807  1.0000
  C   C1959     1.0  0.66143  0.97698  0.51705  1.0000
  H   H1559     1.0  0.03980  0.85099  0.55632  1.0000
  H   H1560     1.0  0.04466  0.79065  0.52524  1.0000
  H   H1561     1.0  0.86959  0.86524  0.65805  1.0000
  C   C1960     1.0  0.74841  0.92201  0.61141  1.0000
  H   H1562     1.0  0.61285  0.97640  0.69185  1.0000
  S   S250      1.0  0.57843  0.61144  0.57646  1.0000
  C   C1961     1.0  0.72071  0.88240  0.58718  1.0000
  H   H1563     1.0  0.77953  0.68711  0.49711  1.0000
  C   C1962     1.0  0.86093  0.79971  0.58761  1.0000
  H   H1564     1.0  0.74700  0.71608  0.60484  1.0000
  C   C1963     1.0  0.81590  0.73703  0.58103  1.0000
  C   C1964     1.0  0.01738  0.96016  0.56524  1.0000
  H   H1565     1.0  0.90161  0.70983  0.50308  1.0000
  H   H1566     1.0  0.79811  0.64931  0.55516  1.0000
  S   S251      1.0  0.57455  0.85735  0.55842  1.0000
  C   C1965     1.0  0.76354  0.92551  0.56862  1.0000
  S   S252      1.0  0.65240  0.85058  0.51958  1.0000
  H   H1567     1.0  0.77170  0.60472  0.55201  1.0000
  C   C1966     1.0  0.75431  0.81687  0.48177  1.0000
  H   H1568     1.0  0.86996  0.65310  0.54284  1.0000
  C   C1967     1.0  0.77788  0.58433  0.57035  1.0000
  C   C1968     1.0  0.73622  0.88504  0.54520  1.0000
  H   H1569     1.0  0.80996  0.83962  0.54088  1.0000
  C   C1969     1.0  0.56549  0.03494  0.53329  1.0000
  H   H1570     1.0  0.57168  0.76307  0.48222  1.0000
  C   C1970     1.0  0.69875  0.91994  0.45959  1.0000
  H   H1571     1.0  0.57192  0.03166  0.70456  1.0000
  C   C1971     1.0  0.99755  0.57144  0.47173  1.0000
  C   C1972     1.0  0.78878  0.79902  0.70419  1.0000
  H   H1572     1.0  0.06016  0.86063  0.48513  1.0000
  C   C1973     1.0  0.02575  0.98016  0.69852  1.0000
  H   H1573     1.0  0.97880  0.82786  0.46433  1.0000
  C   C1974     1.0  0.82976  0.62717  0.45800  1.0000
  C   C1975     1.0  0.04359  0.95616  0.70698  1.0000
  S   S253      1.0  0.95782  0.04564  0.70658  1.0000
  H   H1574     1.0  0.06063  0.66762  0.53297  1.0000
  H   H1575     1.0  0.86220  0.61138  0.70728  1.0000
  H   H1576     1.0  0.76894  0.99636  0.80828  1.0000
  C   C1976     1.0  0.91145  0.55694  0.93437  1.0000
  H   H1577     1.0  0.58728  0.66201  0.79730  1.0000
  C   C1977     1.0  0.69187  0.04328  0.92440  1.0000
  C   C1978     1.0  0.95706  0.76778  0.88686  1.0000
  H   H1578     1.0  0.57946  0.68589  0.71817  1.0000
  H   H1579     1.0  0.60666  0.76412  0.87286  1.0000
  S   S254      1.0  0.74865  0.83264  0.84566  1.0000
  S   S255      1.0  0.92270  0.64300  0.81639  1.0000
  C   C1979     1.0  0.80422  0.60203  0.84892  1.0000
  Fe  Fe127     1.0  0.05475  0.79842  0.72247  1.0000
  C   C1980     1.0  0.61414  0.01406  0.78563  1.0000
  H   H1580     1.0  0.72316  0.78202  0.93864  1.0000
  H   H1581     1.0  0.76038  0.72560  0.72609  1.0000
  H   H1582     1.0  0.57407  0.95667  0.75203  1.0000
  S   S256      1.0  0.06104  0.76401  0.78120  1.0000
  C   C1981     1.0  0.60099  0.67987  0.78262  1.0000
  Fe  Fe128     1.0  0.89812  0.95367  0.73617  1.0000
  C   C1982     1.0  0.84387  0.76830  0.87508  1.0000
  P   P67       1.0  0.65899  0.75627  0.72077  1.0000
  H   H1583     1.0  0.00337  0.97880  0.90317  1.0000
  C   C1983     1.0  0.02220  0.85966  0.89496  1.0000
  C   C1984     1.0  0.00348  0.03179  0.76200  1.0000
  H   H1584     1.0  0.65726  0.72016  0.81053  1.0000
  H   H1585     1.0  0.73004  0.82656  0.75575  1.0000
  C   C1985     1.0  0.88356  0.86022  0.81714  1.0000
  C   C1986     1.0  0.95934  0.63129  0.94224  1.0000
  H   H1586     1.0  0.04064  0.85519  0.91562  1.0000
  H   H1587     1.0  0.95720  0.87744  0.81763  1.0000
  Fe  Fe129     1.0  0.70299  0.58575  0.90035  1.0000
  C   C1987     1.0  0.74336  0.73671  0.74266  1.0000
  H   H1588     1.0  0.97154  0.04577  0.84733  1.0000
  H   H1589     1.0  0.60975  0.81673  0.87910  1.0000
  C   C1988     1.0  0.73104  0.98789  0.85307  1.0000
  C   C1989     1.0  0.73646  0.59576  0.71346  1.0000
  H   H1590     1.0  0.04084  0.01941  0.80045  1.0000
  H   H1591     1.0  0.97140  0.63096  0.87044  1.0000
  H   H1592     1.0  0.90155  0.87570  0.71957  1.0000
  C   C1990     1.0  0.70595  0.97100  0.86108  1.0000
  H   H1593     1.0  0.89722  0.59687  0.89775  1.0000
  H   H1594     1.0  0.78815  0.66339  0.81787  1.0000
  H   H1595     1.0  0.62911  0.59654  0.80086  1.0000
  C   C1991     1.0  0.74245  0.96314  0.78564  1.0000
  H   H1596     1.0  0.62623  0.91420  0.83975  1.0000
  Fe  Fe130     1.0  0.87546  0.63448  0.82321  1.0000
  S   S257      1.0  0.85779  0.59127  0.81132  1.0000
  C   C1992     1.0  0.62298  0.68968  0.80839  1.0000
  C   C1993     1.0  0.82174  0.58319  0.82621  1.0000
  S   S258      1.0  0.85672  0.00472  0.86680  1.0000
  S   S259      1.0  0.04550  0.83374  0.76674  1.0000
  H   H1597     1.0  0.77379  0.74720  0.88312  1.0000
  H   H1598     1.0  0.81522  0.88099  0.83947  1.0000
  H   H1599     1.0  0.77782  0.80556  0.77428  1.0000
  C   C1994     1.0  0.71206  0.76197  0.93522  1.0000
  H   H1600     1.0  0.99077  0.01369  0.77815  1.0000
  C   C1995     1.0  0.03969  0.71723  0.88924  1.0000
  C   C1996     1.0  0.92328  0.86865  0.71347  1.0000
  C   C1997     1.0  0.95734  0.59288  0.73628  1.0000
  H   H1601     1.0  0.68135  0.60461  0.78991  1.0000
  H   H1602     1.0  0.82593  0.03809  0.92669  1.0000
  Fe  Fe131     1.0  0.86174  0.69718  0.83449  1.0000
  C   C1998     1.0  0.70923  0.70935  0.94869  1.0000
  H   H1603     1.0  0.64561  0.94704  0.89292  1.0000
  H   H1604     1.0  0.94726  0.76909  0.77217  1.0000
  C   C1999     1.0  0.76355  0.56966  0.84412  1.0000
  H   H1605     1.0  0.02639  0.68541  0.71014  1.0000
  H   H1606     1.0  0.86288  0.77307  0.78517  1.0000
  C   C2000     1.0  0.99687  0.97980  0.93904  1.0000
  S   S260      1.0  0.05224  0.02725  0.88962  1.0000
  H   H1607     1.0  0.91608  0.93299  0.91430  1.0000
  Fe  Fe132     1.0  0.73888  0.87835  0.81815  1.0000
  H   H1608     1.0  0.01298  0.67908  0.88908  1.0000
  H   H1609     1.0  0.00591  0.98120  0.71858  1.0000
  S   S261      1.0  0.97336  0.92956  0.86055  1.0000
  C   C2001     1.0  0.89522  0.78968  0.73416  1.0000
  H   H1610     1.0  0.79058  0.92204  0.78878  1.0000
  C   C2002     1.0  0.03189  0.03517  0.77499  1.0000
  H   H1611     1.0  0.81308  0.62190  0.85895  1.0000
  Fe  Fe133     1.0  0.94185  0.95077  0.81121  1.0000
  C   C2003     1.0  0.87826  0.83879  0.78797  1.0000
  H   H1612     1.0  0.78319  0.96807  0.88420  1.0000
  C   C2004     1.0  0.71815  0.68299  0.81507  1.0000
  C   C2005     1.0  0.96045  0.76055  0.84189  1.0000
  H   H1613     1.0  0.77328  0.63555  0.75585  1.0000
  H   H1614     1.0  0.68605  0.01436  0.79812  1.0000
  S   S262      1.0  0.86918  0.65824  0.88524  1.0000
  C   C2006     1.0  0.81933  0.75168  0.86950  1.0000
  C   C2007     1.0  0.03129  0.68858  0.90398  1.0000
  H   H1615     1.0  0.92904  0.55427  0.91004  1.0000
  S   S263      1.0  0.93520  0.99763  0.82126  1.0000
  C   C2008     1.0  0.65792  0.81365  0.74284  1.0000
  H   H1616     1.0  0.69123  0.97364  0.88957  1.0000
  C   C2009     1.0  0.06304  0.72963  0.90891  1.0000
  S   S264      1.0  0.88855  0.00077  0.74025  1.0000
  C   C2010     1.0  0.70961  0.66814  0.77855  1.0000
  C   C2011     1.0  0.83281  0.86967  0.82437  1.0000
  H   H1617     1.0  0.59827  0.77233  0.73290  1.0000
  C   C2012     1.0  0.59829  0.81515  0.75388  1.0000
  H   H1618     1.0  0.56628  0.84739  0.87021  1.0000
  C   C2013     1.0  0.01145  0.88792  0.88873  1.0000
  H   H1619     1.0  0.61376  0.03649  0.89983  1.0000
  C   C2014     1.0  0.66411  0.02173  0.79973  1.0000
  C   C2015     1.0  0.76933  0.00180  0.92621  1.0000
  C   C2016     1.0  0.56818  0.95807  0.84998  1.0000
  C   C2017     1.0  0.57289  0.60934  0.90475  1.0000
  C   C2018     1.0  0.93788  0.78952  0.89667  1.0000
  C   C2019     1.0  0.97402  0.72847  0.72902  1.0000
  H   H1620     1.0  0.73221  0.03768  0.79265  1.0000
  C   C2020     1.0  0.86080  0.87489  0.83642  1.0000
  Fe  Fe134     1.0  0.64502  0.61318  0.91622  1.0000
  C   C2021     1.0  0.75759  0.64895  0.77122  1.0000
  C   C2022     1.0  0.92216  0.80420  0.86145  1.0000
  Fe  Fe135     1.0  0.71414  0.89111  0.91207  1.0000
  Fe  Fe136     1.0  0.91203  0.68318  0.77073  1.0000
  H   H1621     1.0  0.84037  0.93801  0.76601  1.0000
  C   C2023     1.0  0.64228  0.00398  0.78700  1.0000
  C   C2024     1.0  0.76618  0.66450  0.80692  1.0000
  C   C2025     1.0  0.97512  0.87245  0.83955  1.0000
  C   C2026     1.0  0.84995  0.04225  0.86235  1.0000
  H   H1622     1.0  0.57518  0.81595  0.75724  1.0000
  S   S265      1.0  0.66071  0.56761  0.92844  1.0000
  C   C2027     1.0  0.78644  0.97843  0.91495  1.0000
  C   C2028     1.0  0.72311  0.56927  0.73043  1.0000
  C   C2029     1.0  0.57929  0.97625  0.88065  1.0000
  C   C2030     1.0  0.67123  0.73666  0.90943  1.0000
  C   C2031     1.0  0.82829  0.92601  0.74345  1.0000
  S   S266      1.0  0.60498  0.62242  0.87714  1.0000
  C   C2032     1.0  0.68286  0.70997  0.92719  1.0000
  S   S267      1.0  0.89479  0.94134  0.81265  1.0000
  C   C2033     1.0  0.87323  0.77055  0.75223  1.0000
  S   S268      1.0  0.67247  0.79582  0.88838  1.0000
  S   S269      1.0  0.80930  0.83792  0.92895  1.0000
  C   C2034     1.0  0.04621  0.67233  0.93854  1.0000
  H   H1623     1.0  0.68013  0.93725  0.83789  1.0000
  C   C2035     1.0  0.71768  0.94622  0.79456  1.0000
  C   C2036     1.0  0.77495  0.59526  0.85784  1.0000
  H   H1624     1.0  0.71252  0.92972  0.77283  1.0000
  C   C2037     1.0  0.90840  0.88680  0.92668  1.0000
  Fe  Fe137     1.0  0.76581  0.85213  0.90592  1.0000
  H   H1625     1.0  0.96939  0.81266  0.73975  1.0000
  C   C2038     1.0  0.97024  0.61856  0.90404  1.0000
  H   H1626     1.0  0.96965  0.75681  0.91387  1.0000
  C   C2039     1.0  0.97968  0.58966  0.90915  1.0000
  C   C2040     1.0  0.67891  0.62423  0.71919  1.0000
  H   H1627     1.0  0.61574  0.98558  0.92044  1.0000
  H   H1628     1.0  0.92146  0.88226  0.89691  1.0000
  H   H1629     1.0  0.93567  0.79537  0.93141  1.0000
  P   P68       1.0  0.73980  0.01468  0.89096  1.0000
  C   C2041     1.0  0.74632  0.68089  0.82961  1.0000
  C   C2042     1.0  0.60762  0.04142  0.79906  1.0000
  H   H1630     1.0  0.99756  0.57022  0.74202  1.0000
  H   H1631     1.0  0.68762  0.67018  0.76801  1.0000
  C   C2043     1.0  0.69847  0.76240  0.78870  1.0000
  C   C2044     1.0  0.92599  0.79764  0.81571  1.0000
  H   H1632     1.0  0.84546  0.82063  0.74843  1.0000
  H   H1633     1.0  0.98942  0.02599  0.93061  1.0000
  C   C2045     1.0  0.61315  0.93162  0.85099  1.0000
  H   H1634     1.0  0.66358  0.86821  0.93208  1.0000
  Fe  Fe138     1.0  0.88855  0.98902  0.81646  1.0000
  C   C2046     1.0  0.61159  0.79037  0.73993  1.0000
  C   C2047     1.0  0.71663  0.73991  0.72272  1.0000
  Fe  Fe139     1.0  0.05448  0.80023  0.82548  1.0000
  C   C2048     1.0  0.58760  0.77732  0.86858  1.0000
  H   H1635     1.0  0.86475  0.76107  0.86401  1.0000
  C   C2049     1.0  0.74789  0.74697  0.78499  1.0000
  C   C2050     1.0  0.96120  0.83332  0.72508  1.0000
  C   C2051     1.0  0.80856  0.96815  0.94341  1.0000
  H   H1636     1.0  0.76869  0.74459  0.80019  1.0000
  H   H1637     1.0  0.93003  0.03503  0.90248  1.0000
  S   S270      1.0  0.82047  0.72111  0.83928  1.0000
  C   C2052     1.0  0.61901  0.87178  0.95019  1.0000
  H   H1638     1.0  0.82214  0.95073  0.93357  1.0000
  C   C2053     1.0  0.80003  0.91700  0.75631  1.0000
  H   H1639     1.0  0.64736  0.98250  0.77775  1.0000
  C   C2054     1.0  0.74382  0.81923  0.72884  1.0000
  C   C2055     1.0  0.63695  0.72571  0.74448  1.0000
  C   C2056     1.0  0.98604  0.84394  0.84592  1.0000
  H   H1640     1.0  0.59739  0.00055  0.77437  1.0000
  C   C2057     1.0  0.62412  0.95011  0.88079  1.0000
  H   H1641     1.0  0.97699  0.82710  0.82808  1.0000
  H   H1642     1.0  0.00575  0.75793  0.74964  1.0000
  C   C2058     1.0  0.64763  0.88103  0.94786  1.0000
  C   C2059     1.0  0.66750  0.04503  0.95318  1.0000
  C   C2060     1.0  0.69391  0.75281  0.74564  1.0000
  C   C2061     1.0  0.82753  0.85042  0.79210  1.0000
  H   H1643     1.0  0.70292  0.69598  0.83259  1.0000
  C   C2062     1.0  0.59663  0.69322  0.73813  1.0000
  C   C2063     1.0  0.58934  0.80710  0.87216  1.0000
  H   H1644     1.0  0.89157  0.56107  0.75400  1.0000
  H   H1645     1.0  0.76956  0.79298  0.91879  1.0000
  C   C2064     1.0  0.97439  0.56836  0.74609  1.0000
  S   S271      1.0  0.94487  0.66650  0.93518  1.0000
  H   H1646     1.0  0.03427  0.55269  0.88884  1.0000
  C   C2065     1.0  0.61434  0.71622  0.71929  1.0000
  C   C2066     1.0  0.61474  0.83897  0.76293  1.0000
  C   C2067     1.0  0.60716  0.97209  0.89615  1.0000
  C   C2068     1.0  0.64076  0.71264  0.78959  1.0000
  S   S272      1.0  0.94600  0.95992  0.73404  1.0000
  H   H1647     1.0  0.85713  0.60321  0.95254  1.0000
  C   C2069     1.0  0.90546  0.91551  0.93653  1.0000
  H   H1648     1.0  0.76109  0.61017  0.87403  1.0000
  Fe  Fe140     1.0  0.93604  0.00621  0.74448  1.0000
  C   C2070     1.0  0.00908  0.83737  0.87487  1.0000
  H   H1649     1.0  0.61319  0.85216  0.93572  1.0000
  C   C2071     1.0  0.58516  0.93532  0.83608  1.0000
  C   C2072     1.0  0.94475  0.77519  0.80667  1.0000
  S   S273      1.0  0.72671  0.56206  0.84871  1.0000
  C   C2073     1.0  0.85014  0.83506  0.77376  1.0000
  H   H1650     1.0  0.02809  0.72994  0.86257  1.0000
  Fe  Fe141     1.0  0.70591  0.83127  0.88301  1.0000
  S   S274      1.0  0.86519  0.67239  0.77314  1.0000
  C   C2074     1.0  0.93267  0.84155  0.73370  1.0000
  C   C2075     1.0  0.79264  0.76046  0.88588  1.0000
  C   C2076     1.0  0.81043  0.55717  0.81435  1.0000
  H   H1651     1.0  0.84774  0.73312  0.74296  1.0000
  H   H1652     1.0  0.60439  0.85817  0.77365  1.0000
  H   H1653     1.0  0.90527  0.86518  0.82566  1.0000
  H   H1654     1.0  0.75286  0.69222  0.85822  1.0000
  H   H1655     1.0  0.90749  0.82064  0.87049  1.0000
  H   H1656     1.0  0.86464  0.89039  0.86069  1.0000
  C   C2077     1.0  0.66741  0.61125  0.76170  1.0000
  C   C2078     1.0  0.68594  0.76266  0.91327  1.0000
  Fe  Fe142     1.0  0.91587  0.67019  0.87471  1.0000
  H   H1657     1.0  0.65723  0.85706  0.76335  1.0000
  C   C2079     1.0  0.69935  0.95035  0.83177  1.0000
  S   S275      1.0  0.61537  0.91482  0.72078  1.0000
  S   S276      1.0  0.68649  0.63065  0.88331  1.0000
  H   H1658     1.0  0.67147  0.68991  0.92425  1.0000
  C   C2080     1.0  0.74938  0.98368  0.81514  1.0000
  H   H1659     1.0  0.85967  0.80845  0.89676  1.0000
  H   H1660     1.0  0.57726  0.56587  0.88568  1.0000
  C   C2081     1.0  0.98758  0.89435  0.86192  1.0000
  S   S277      1.0  0.74906  0.88938  0.74225  1.0000
  C   C2082     1.0  0.81405  0.80417  0.90822  1.0000
  C   C2083     1.0  0.72908  0.65034  0.75698  1.0000
  C   C2084     1.0  0.89350  0.58098  0.92753  1.0000
  H   H1661     1.0  0.70100  0.56832  0.74258  1.0000
  H   H1662     1.0  0.02179  0.90490  0.90484  1.0000
  H   H1663     1.0  0.68096  0.81356  0.73871  1.0000
  H   H1664     1.0  0.75619  0.96026  0.75578  1.0000
  H   H1665     1.0  0.98725  0.57973  0.87916  1.0000
  C   C2085     1.0  0.78156  0.55020  0.82408  1.0000
  Fe  Fe143     1.0  0.69892  0.63789  0.95458  1.0000
  S   S278      1.0  0.02283  0.80187  0.88438  1.0000
  S   S279      1.0  0.75773  0.89817  0.87720  1.0000
  H   H1666     1.0  0.68109  0.77179  0.80734  1.0000
  C   C2086     1.0  0.72545  0.75984  0.80801  1.0000
  H   H1667     1.0  0.96971  0.71787  0.76350  1.0000
  H   H1668     1.0  0.03957  0.65015  0.95014  1.0000
  C   C2087     1.0  0.99464  0.75090  0.72107  1.0000
  C   C2088     1.0  0.58542  0.04461  0.95622  1.0000
  H   H1669     1.0  0.80586  0.84773  0.78130  1.0000
  H   H1670     1.0  0.62620  0.67947  0.84307  1.0000
  H   H1671     1.0  0.97529  0.74364  0.83430  1.0000
  S   S280      1.0  0.90786  0.71145  0.82840  1.0000
  H   H1672     1.0  0.65107  0.73714  0.89226  1.0000
  S   S281      1.0  0.72403  0.84661  0.94599  1.0000
  S   S282      1.0  0.69440  0.87543  0.85010  1.0000
  C   C2089     1.0  0.79013  0.78644  0.90571  1.0000
  H   H1673     1.0  0.03766  0.93873  0.73372  1.0000
  C   C2090     1.0  0.92749  0.59020  0.73962  1.0000
  C   C2091     1.0  0.84111  0.79493  0.89381  1.0000
  H   H1674     1.0  0.72893  0.76769  0.84094  1.0000
  H   H1675     1.0  0.89697  0.84224  0.94637  1.0000
  C   C2092     1.0  0.63785  0.60660  0.76809  1.0000
  C   C2093     1.0  0.91467  0.56311  0.75324  1.0000
  P   P69       1.0  0.90768  0.81729  0.76815  1.0000
  C   C2094     1.0  0.70964  0.01883  0.93018  1.0000
  C   C2095     1.0  0.64455  0.83832  0.75707  1.0000
  C   C2096     1.0  0.77081  0.80779  0.73913  1.0000
  H   H1676     1.0  0.91429  0.60918  0.73175  1.0000
  C   C2097     1.0  0.78423  0.90141  0.72725  1.0000
  H   H1677     1.0  0.59655  0.61144  0.73747  1.0000
  C   C2098     1.0  0.61945  0.61524  0.73246  1.0000
  C   C2099     1.0  0.64161  0.78922  0.73497  1.0000
  H   H1678     1.0  0.96724  0.61388  0.72549  1.0000
  C   C2100     1.0  0.56488  0.82435  0.86666  1.0000
  C   C2101     1.0  0.98893  0.00628  0.95442  1.0000
  H   H1679     1.0  0.80992  0.79098  0.71273  1.0000
  C   C2102     1.0  0.89470  0.86417  0.95513  1.0000
  S   S283      1.0  0.69037  0.92048  0.95627  1.0000
  C   C2103     1.0  0.97833  0.57335  0.95256  1.0000
  H   H1680     1.0  0.57687  0.92033  0.81370  1.0000
  C   C2104     1.0  0.72389  0.73534  0.95243  1.0000
  H   H1681     1.0  0.96169  0.85328  0.95418  1.0000
  P   P70       1.0  0.71732  0.62984  0.71143  1.0000
  C   C2105     1.0  0.86454  0.74783  0.72816  1.0000
  H   H1682     1.0  0.56649  0.99346  0.89287  1.0000
  H   H1683     1.0  0.00486  0.93467  0.95769  1.0000
  H   H1684     1.0  0.67578  0.90875  0.70966  1.0000
  C   C2106     1.0  0.87073  0.58444  0.95886  1.0000
  H   H1685     1.0  0.97901  0.88723  0.14419  1.0000
  C   C2107     1.0  0.70020  0.69382  0.08742  1.0000
  H   H1686     1.0  0.89459  0.57339  0.08062  1.0000
  H   H1687     1.0  0.76137  0.87884  0.12039  1.0000
  C   C2108     1.0  0.87136  0.68699  0.16433  1.0000
  C   C2109     1.0  0.59033  0.65617  0.06301  1.0000
  C   C2110     1.0  0.77508  0.97654  0.11188  1.0000
  H   H1688     1.0  0.04660  0.94004  0.19619  1.0000
  C   C2111     1.0  0.68661  0.90181  0.12071  1.0000
  C   C2112     1.0  0.01501  0.84201  0.03050  1.0000
  C   C2113     1.0  0.03892  0.03877  0.09652  1.0000
  C   C2114     1.0  0.68044  0.68099  0.12063  1.0000
  C   C2115     1.0  0.82681  0.71368  0.15359  1.0000
  H   H1689     1.0  0.86389  0.90421  0.03474  1.0000
  H   H1690     1.0  0.06317  0.77082  0.97744  1.0000
  H   H1691     1.0  0.63683  0.92480  0.09149  1.0000
  C   C2116     1.0  0.79693  0.00418  0.99487  1.0000
  C   C2117     1.0  0.77236  0.74941  0.09079  1.0000
  H   H1692     1.0  0.77051  0.88921  0.03571  1.0000
  C   C2118     1.0  0.97600  0.85742  0.98118  1.0000
  H   H1693     1.0  0.68211  0.65810  0.13268  1.0000
  H   H1694     1.0  0.84800  0.79511  0.20055  1.0000
  H   H1695     1.0  0.02631  0.56771  0.03533  1.0000
  C   C2119     1.0  0.75086  0.98798  0.08992  1.0000
  C   C2120     1.0  0.88893  0.92169  0.97500  1.0000
  C   C2121     1.0  0.62786  0.68635  0.02168  1.0000
  H   H1696     1.0  0.91344  0.55421  0.15581  1.0000
  C   C2122     1.0  0.03060  0.63216  0.08108  1.0000
  H   H1697     1.0  0.73631  0.81176  0.14986  1.0000
  H   H1698     1.0  0.75292  0.00652  0.06392  1.0000
  H   H1699     1.0  0.93763  0.59370  0.19779  1.0000
  C   C2123     1.0  0.63662  0.94713  0.09928  1.0000
  H   H1700     1.0  0.98628  0.61249  0.17684  1.0000
  H   H1701     1.0  0.78196  0.57976  0.20184  1.0000
  H   H1702     1.0  0.04553  0.54974  0.12902  1.0000
  C   C2124     1.0  0.74531  0.94011  0.15692  1.0000
  C   C2125     1.0  0.87584  0.89907  0.00424  1.0000
  C   C2126     1.0  0.97570  0.88444  0.99839  1.0000
  H   H1703     1.0  0.73402  0.04371  0.11773  1.0000
  H   H1704     1.0  0.98020  0.00336  0.14786  1.0000
  H   H1705     1.0  0.81424  0.69050  0.01474  1.0000
  C   C2127     1.0  0.88383  0.79119  0.99905  1.0000
  H   H1706     1.0  0.64031  0.94229  0.00105  1.0000
  C   C2128     1.0  0.91745  0.62150  0.14423  1.0000
  H   H1707     1.0  0.96742  0.57415  0.02462  1.0000
  C   C2129     1.0  0.65805  0.69741  0.13733  1.0000
  C   C2130     1.0  0.59541  0.74779  0.05996  1.0000
  C   C2131     1.0  0.99366  0.02116  0.13220  1.0000
  P   P71       1.0  0.83802  0.56920  0.04051  1.0000
  H   H1708     1.0  0.99641  0.81570  0.98250  1.0000
  H   H1709     1.0  0.78194  0.73190  0.07390  1.0000
  C   C2132     1.0  0.63450  0.92220  0.98813  1.0000
  C   C2133     1.0  0.81160  0.86809  0.03660  1.0000
  H   H1710     1.0  0.76148  0.03202  0.97677  1.0000
  C   C2134     1.0  0.60596  0.91226  0.99215  1.0000
  C   C2135     1.0  0.57132  0.66571  0.02832  1.0000
  C   C2136     1.0  0.72383  0.97572  0.10153  1.0000
  H   H1711     1.0  0.79601  0.98626  0.10320  1.0000
  C   C2137     1.0  0.02028  0.71668  0.07933  1.0000
  C   C2138     1.0  0.61495  0.96547  0.08138  1.0000
  H   H1712     1.0  0.98878  0.71340  0.95881  1.0000
  C   C2139     1.0  0.96845  0.58645  0.99105  1.0000
  H   H1713     1.0  0.58997  0.55859  0.99138  1.0000
  C   C2140     1.0  0.88949  0.80595  0.10707  1.0000
  H   H1714     1.0  0.83159  0.97369  0.00443  1.0000
  C   C2141     1.0  0.58042  0.68578  0.99122  1.0000
  C   C2142     1.0  0.74407  0.68085  0.19372  1.0000
  C   C2143     1.0  0.65867  0.60622  0.19697  1.0000
  C   C2144     1.0  0.02182  0.66592  0.16323  1.0000
  H   H1715     1.0  0.79108  0.94355  0.16191  1.0000
  C   C2145     1.0  0.87865  0.87007  0.99462  1.0000
  C   C2146     1.0  0.98132  0.00747  0.00087  1.0000
  C   C2147     1.0  0.85979  0.80661  0.01340  1.0000
  H   H1716     1.0  0.83432  0.58855  0.19282  1.0000
  H   H1717     1.0  0.66921  0.57485  0.14987  1.0000
  H   H1718     1.0  0.73887  0.99301  0.19514  1.0000
  C   C2148     1.0  0.78096  0.87144  0.10454  1.0000
  C   C2149     1.0  0.00869  0.74065  0.00415  1.0000
  C   C2150     1.0  0.00330  0.67897  0.19376  1.0000
  H   H1719     1.0  0.59644  0.00826  0.07867  1.0000
  H   H1720     1.0  0.81539  0.87313  0.99976  1.0000
  H   H1721     1.0  0.56555  0.69322  0.96480  1.0000
  H   H1722     1.0  0.86936  0.79413  0.11025  1.0000
  C   C2151     1.0  0.02678  0.56235  0.19215  1.0000
  C   C2152     1.0  0.58727  0.94665  0.19307  1.0000
  C   C2153     1.0  0.77944  0.55664  0.04879  1.0000
  C   C2154     1.0  0.02389  0.92983  0.08931  1.0000
  H   H1723     1.0  0.65526  0.87921  0.16836  1.0000
  C   C2155     1.0  0.77272  0.74884  0.13900  1.0000
  H   H1724     1.0  0.65532  0.83511  0.12904  1.0000
  H   H1725     1.0  0.96043  0.90069  0.98542  1.0000
  C   C2156     1.0  0.90850  0.92507  0.10623  1.0000
  H   H1726     1.0  0.00857  0.75994  0.97937  1.0000
  C   C2157     1.0  0.91899  0.84652  0.07356  1.0000
  H   H1727     1.0  0.96305  0.84528  0.09332  1.0000
  C   C2158     1.0  0.59821  0.88722  0.97272  1.0000
  H   H1728     1.0  0.67203  0.99540  0.15730  1.0000
  C   C2159     1.0  0.67854  0.99836  0.99427  1.0000
  H   H1729     1.0  0.58003  0.79956  0.97211  1.0000
  C   C2160     1.0  0.84382  0.62675  0.05978  1.0000
  H   H1730     1.0  0.97605  0.02813  0.01300  1.0000
  C   C2161     1.0  0.75863  0.77095  0.16018  1.0000
  S   S284      1.0  0.59421  0.88697  0.20233  1.0000
  C   C2162     1.0  0.85364  0.75035  0.98690  1.0000
  C   C2163     1.0  0.91296  0.79401  0.13040  1.0000
  H   H1731     1.0  0.80861  0.75550  0.00124  1.0000
  C   C2164     1.0  0.05918  0.63922  0.06792  1.0000
  H   H1732     1.0  0.78803  0.65663  0.97098  1.0000
  H   H1733     1.0  0.60607  0.83003  0.02158  1.0000
  S   S285      1.0  0.66958  0.54990  0.06191  1.0000
  H   H1734     1.0  0.89926  0.75182  0.97348  1.0000
  P   P72       1.0  0.57957  0.62784  0.10827  1.0000
  C   C2165     1.0  0.65397  0.59109  0.15907  1.0000
  C   C2166     1.0  0.61346  0.99413  0.09178  1.0000
  H   H1735     1.0  0.62520  0.80856  0.09440  1.0000
  C   C2167     1.0  0.81842  0.66739  0.02051  1.0000
  P   P73       1.0  0.79012  0.71907  0.17255  1.0000
  C   C2168     1.0  0.74446  0.01447  0.20324  1.0000
  P   P74       1.0  0.62596  0.74840  0.14013  1.0000
  C   C2169     1.0  0.66946  0.77571  0.18371  1.0000
  H   H1736     1.0  0.95064  0.62506  0.01560  1.0000
  C   C2170     1.0  0.58869  0.78980  0.00413  1.0000
  C   C2171     1.0  0.82925  0.60744  0.03478  1.0000
  H   H1737     1.0  0.85953  0.61883  0.08444  1.0000
  C   C2172     1.0  0.88548  0.70725  0.13226  1.0000
  C   C2173     1.0  0.60988  0.76509  0.08840  1.0000
  H   H1738     1.0  0.91073  0.77342  0.15173  1.0000
  C   C2174     1.0  0.83272  0.79310  0.01567  1.0000
  C   C2175     1.0  0.95963  0.89847  0.13391  1.0000
  C   C2176     1.0  0.66901  0.87819  0.13785  1.0000
  C   C2177     1.0  0.83859  0.65665  0.05234  1.0000
  C   C2178     1.0  0.99739  0.95456  0.97010  1.0000
  H   H1739     1.0  0.93293  0.94571  0.04808  1.0000
  H   H1740     1.0  0.06030  0.03448  0.08332  1.0000
  C   C2179     1.0  0.90879  0.90576  0.14657  1.0000
  P   P75       1.0  0.86494  0.84099  0.03642  1.0000
  C   C2180     1.0  0.57063  0.72872  0.16949  1.0000
  H   H1741     1.0  0.58704  0.02270  0.97337  1.0000
  C   C2181     1.0  0.80127  0.85626  0.13173  1.0000
  C   C2182     1.0  0.83219  0.85291  0.06363  1.0000
  H   H1742     1.0  0.02964  0.87289  0.07414  1.0000
  C   C2183     1.0  0.01951  0.85699  0.19819  1.0000
  H   H1743     1.0  0.83011  0.75271  0.10516  1.0000
  C   C2184     1.0  0.02400  0.76448  0.17306  1.0000
  C   C2185     1.0  0.93381  0.93125  0.07980  1.0000
  C   C2186     1.0  0.86255  0.96369  0.17408  1.0000
  H   H1744     1.0  0.64290  0.68693  0.16252  1.0000
  H   H1745     1.0  0.93460  0.87708  0.19104  1.0000
  C   C2187     1.0  0.65498  0.72671  0.12025  1.0000
  C   C2188     1.0  0.70283  0.90053  0.07958  1.0000
  C   C2189     1.0  0.94241  0.83450  0.09733  1.0000
  H   H1746     1.0  0.99052  0.66908  0.01321  1.0000
  C   C2190     1.0  0.93436  0.89243  0.16032  1.0000
  H   H1747     1.0  0.90353  0.65193  0.08840  1.0000
  C   C2191     1.0  0.03568  0.58741  0.04526  1.0000
  H   H1748     1.0  0.58249  0.94495  0.15761  1.0000
  C   C2192     1.0  0.58483  0.76016  0.01802  1.0000
  H   H1749     1.0  0.63437  0.65813  0.08327  1.0000
  C   C2193     1.0  0.93948  0.80804  0.12503  1.0000
  H   H1750     1.0  0.64998  0.69380  0.01847  1.0000
  C   C2194     1.0  0.62981  0.59703  0.13258  1.0000
  H   H1751     1.0  0.60566  0.59902  0.03259  1.0000
  C   C2195     1.0  0.92161  0.64344  0.10772  1.0000
  C   C2196     1.0  0.74638  0.79434  0.13330  1.0000
  C   C2197     1.0  0.88072  0.76334  0.98546  1.0000
  C   C2198     1.0  0.68515  0.85179  0.07465  1.0000
  C   C2199     1.0  0.95973  0.91835  0.09398  1.0000
  C   C2200     1.0  0.05038  0.93345  0.06486  1.0000
  C   C2201     1.0  0.76261  0.64217  0.13184  1.0000
  H   H1752     1.0  0.98160  0.68467  0.18437  1.0000
  C   C2202     1.0  0.77229  0.95253  0.14517  1.0000
  C   C2203     1.0  0.61011  0.61832  0.14367  1.0000
  H   H1753     1.0  0.98667  0.75151  0.13870  1.0000
  C   C2204     1.0  0.65606  0.98665  0.13654  1.0000
  C   C2205     1.0  0.97276  0.64362  0.12091  1.0000
  C   C2206     1.0  0.99771  0.71448  0.99235  1.0000
  C   C2207     1.0  0.04765  0.93774  0.15962  1.0000
  H   H1754     1.0  0.59896  0.95720  0.06033  1.0000
  C   C2208     1.0  0.82671  0.84691  0.11133  1.0000
  C   C2209     1.0  0.61517  0.63355  0.18170  1.0000
  H   H1755     1.0  0.70559  0.98489  0.08348  1.0000
  H   H1756     1.0  0.68435  0.76020  0.17139  1.0000
  P   P76       1.0  0.00862  0.65793  0.10829  1.0000
  C   C2210     1.0  0.77326  0.02250  0.20523  1.0000
  H   H1757     1.0  0.97580  0.98344  0.06784  1.0000
  Fe  Fe144     1.0  0.67465  0.57974  0.99634  1.0000
  C   C2211     1.0  0.88189  0.98660  0.17673  1.0000
  C   C2212     1.0  0.80917  0.61848  0.00257  1.0000
  C   C2213     1.0  0.60332  0.80701  0.03200  1.0000
  C   C2214     1.0  0.72916  0.65485  0.19155  1.0000
  C   C2215     1.0  0.76913  0.68705  0.16632  1.0000
  C   C2216     1.0  0.69746  0.72308  0.07064  1.0000
  H   H1758     1.0  0.58967  0.92438  0.00870  1.0000
  C   C2217     1.0  0.00888  0.69045  0.06784  1.0000
  H   H1759     1.0  0.71647  0.97748  0.97080  1.0000
  S   S286      1.0  0.72392  0.67642  0.97197  1.0000
  H   H1760     1.0  0.88324  0.66924  0.18206  1.0000
  H   H1761     1.0  0.68416  0.83272  0.05629  1.0000
  H   H1762     1.0  0.03771  0.86238  0.17467  1.0000
  H   H1763     1.0  0.80144  0.01474  0.02508  1.0000
  C   C2218     1.0  0.66078  0.02258  0.98797  1.0000
  C   C2219     1.0  0.57658  0.56536  0.01927  1.0000
  H   H1764     1.0  0.59912  0.79546  0.18378  1.0000
  H   H1765     1.0  0.67332  0.98084  0.02102  1.0000
  H   H1766     1.0  0.79820  0.60417  0.98183  1.0000
  H   H1767     1.0  0.90512  0.80050  0.99929  1.0000
  C   C2220     1.0  0.72077  0.95186  0.13559  1.0000
  C   C2221     1.0  0.95909  0.61541  0.98595  1.0000
  H   H1768     1.0  0.84213  0.83543  0.13295  1.0000
  H   H1769     1.0  0.88654  0.94404  0.98225  1.0000
  C   C2222     1.0  0.99849  0.68934  0.02353  1.0000
  H   H1770     1.0  0.64221  0.02436  0.01075  1.0000
  C   C2223     1.0  0.99562  0.75474  0.17144  1.0000
  H   H1771     1.0  0.56489  0.54980  0.15572  1.0000
  C   C2224     1.0  0.99516  0.89049  0.03172  1.0000
  P   P77       1.0  0.99204  0.92382  0.05817  1.0000
  H   H1772     1.0  0.75988  0.77325  0.02676  1.0000
  C   C2225     1.0  0.61877  0.66641  0.05894  1.0000
  H   H1773     1.0  0.77730  0.57619  0.06579  1.0000
  H   H1774     1.0  0.02930  0.71787  0.11272  1.0000
  C   C2226     1.0  0.63391  0.00458  0.11956  1.0000
  C   C2227     1.0  0.02157  0.01581  0.11641  1.0000
  H   H1775     1.0  0.05169  0.93231  0.02790  1.0000
  S   S287      1.0  0.71854  0.59387  0.96931  1.0000
  H   H1776     1.0  0.88916  0.90101  0.16700  1.0000
  C   C2228     1.0  0.64025  0.77532  0.17350  1.0000
  H   H1777     1.0  0.85111  0.72918  0.97483  1.0000
  H   H1778     1.0  0.81381  0.80440  0.02650  1.0000
  S   S288      1.0  0.65588  0.62439  0.98652  1.0000
  C   C2229     1.0  0.77794  0.66784  0.13474  1.0000
  H   H1779     1.0  0.88806  0.00075  0.14597  1.0000
  C   C2230     1.0  0.62168  0.79543  0.19137  1.0000
  H   H1780     1.0  0.72715  0.61506  0.15975  1.0000
  H   H1781     1.0  0.57311  0.74692  0.99658  1.0000
  H   H1782     1.0  0.02986  0.99392  0.11966  1.0000
  C   C2231     1.0  0.99568  0.83624  0.99711  1.0000
  H   H1783     1.0  0.71739  0.68101  0.07408  1.0000
  C   C2232     1.0  0.60871  0.69593  0.98768  1.0000
  H   H1784     1.0  0.75689  0.77031  0.19735  1.0000
  H   H1785     1.0  0.90834  0.70527  0.12528  1.0000
  C   C2233     1.0  0.80361  0.64829  0.99586  1.0000
  C   C2234     1.0  0.98913  0.95544  0.01657  1.0000
  H   H1786     1.0  0.59214  0.72480  0.07031  1.0000
  C   C2235     1.0  0.89245  0.83185  0.07738  1.0000
  H   H1787     1.0  0.71447  0.87504  0.02496  1.0000
  H   H1788     1.0  0.89609  0.61323  0.15380  1.0000
  H   H1789     1.0  0.06241  0.82425  0.96868  1.0000
  H   H1790     1.0  0.62698  0.58515  0.10331  1.0000
  C   C2236     1.0  0.87024  0.73035  0.11003  1.0000
  C   C2237     1.0  0.86596  0.56392  0.99767  1.0000
  C   C2238     1.0  0.89103  0.55102  0.14899  1.0000
  H   H1791     1.0  0.58316  0.99349  0.18707  1.0000
  C   C2239     1.0  0.78612  0.87731  0.05695  1.0000
  C   C2240     1.0  0.00093  0.83443  0.19063  1.0000
  C   C2241     1.0  0.04974  0.65879  0.17681  1.0000
  H   H1792     1.0  0.85016  0.67148  0.07130  1.0000
  C   C2242     1.0  0.96838  0.62131  0.15721  1.0000
  C   C2243     1.0  0.01887  0.60615  0.06924  1.0000
  H   H1793     1.0  0.03691  0.76895  0.14158  1.0000
  C   C2244     1.0  0.58546  0.58835  0.04277  1.0000
  H   H1794     1.0  0.74380  0.92133  0.18248  1.0000
  H   H1795     1.0  0.95779  0.79808  0.14188  1.0000
  C   C2245     1.0  0.70227  0.87549  0.05701  1.0000
  C   C2246     1.0  0.81393  0.98113  0.98321  1.0000
  C   C2247     1.0  0.60002  0.72814  0.17869  1.0000
  H   H1796     1.0  0.00503  0.82214  0.16167  1.0000
  C   C2248     1.0  0.84214  0.69004  0.17478  1.0000
  C   C2249     1.0  0.02013  0.74171  0.04758  1.0000
  H   H1797     1.0  0.79743  0.85207  0.16877  1.0000
  H   H1798     1.0  0.60064  0.65040  0.19079  1.0000
  C   C2250     1.0  0.85134  0.55717  0.09697  1.0000
  C   C2251     1.0  0.73843  0.63547  0.16070  1.0000
  C   C2252     1.0  0.82969  0.76516  0.00210  1.0000
  H   H1799     1.0  0.63252  0.02663  0.12798  1.0000
  H   H1800     1.0  0.76983  0.62720  0.10788  1.0000
  C   C2253     1.0  0.94083  0.61049  0.16903  1.0000
  H   H1801     1.0  0.88131  0.74585  0.08499  1.0000
  C   C2254     1.0  0.74722  0.79534  0.08525  1.0000
  H   H1802     1.0  0.79688  0.67243  0.11290  1.0000
  P   P78       1.0  0.68628  0.93453  0.14874  1.0000
  H   H1803     1.0  0.02883  0.76191  0.05676  1.0000
  H   H1804     1.0  0.03032  0.82563  0.04275  1.0000
  H   H1805     1.0  0.67277  0.76197  0.07249  1.0000
  C   C2255     1.0  0.84110  0.73390  0.12112  1.0000
  H   H1806     1.0  0.71544  0.91899  0.06412  1.0000
  C   C2256     1.0  0.94905  0.65484  0.09654  1.0000
  H   H1807     1.0  0.92212  0.86653  0.05103  1.0000
  C   C2257     1.0  0.88022  0.56183  0.10640  1.0000
  H   H1808     1.0  0.99674  0.60029  0.07806  1.0000
  C   C2258     1.0  0.02263  0.93252  0.13682  1.0000
  C   C2259     1.0  0.98137  0.98215  0.03184  1.0000
  H   H1809     1.0  0.88860  0.93521  0.09543  1.0000
  H   H1810     1.0  0.95132  0.67239  0.06908  1.0000
  C   C2260     1.0  0.75980  0.77267  0.06403  1.0000
  H   H1811     1.0  0.00248  0.93164  0.15632  1.0000
  C   C2261     1.0  0.61398  0.79473  0.07377  1.0000
  C   C2262     1.0  0.66869  0.85317  0.11523  1.0000
  C   C2263     1.0  0.67482  0.73943  0.08656  1.0000
  C   C2264     1.0  0.65750  0.95766  0.12687  1.0000
  H   H1812     1.0  0.85355  0.96048  0.14139  1.0000
  C   C2265     1.0  0.01476  0.86902  0.04784  1.0000
  C   C2266     1.0  0.70306  0.99661  0.96587  1.0000
  H   H1813     1.0  0.73799  0.81359  0.06438  1.0000
  H   H1814     1.0  0.74438  0.73487  0.96871  1.0000
  C   C2267     1.0  0.04886  0.56115  0.15869  1.0000
  H   H1815     1.0  0.83177  0.67433  0.20048  1.0000
  H   H1816     1.0  0.71263  0.73293  0.04467  1.0000
  C   C2268     1.0  0.56816  0.59773  0.07850  1.0000
  C   C2269     1.0  0.80635  0.54827  0.03154  1.0000
  C   C2270     1.0  0.77454  0.01429  0.96683  1.0000
  H   H1817     1.0  0.78985  0.00710  0.19795  1.0000
  H   H1818     1.0  0.85541  0.84792  0.20600  1.0000
  C   C2271     1.0  0.65536  0.90662  0.96574  1.0000
  H   H1819     1.0  0.61580  0.71117  0.95857  1.0000
  C   C2272     1.0  0.59845  0.92362  0.26868  1.0000
  H   H1820     1.0  0.83869  0.57701  0.34782  1.0000
  S   S289      1.0  0.61428  0.62942  0.32545  1.0000
  Fe  Fe145     1.0  0.01679  0.99696  0.27901  1.0000
  C   C2273     1.0  0.98202  0.60728  0.41043  1.0000
  S   S290      1.0  0.76518  0.89083  0.27676  1.0000
  C   C2274     1.0  0.69135  0.89243  0.27967  1.0000
  H   H1821     1.0  0.59627  0.68635  0.28288  1.0000
  H   H1822     1.0  0.86466  0.98933  0.37804  1.0000
  H   H1823     1.0  0.02087  0.69656  0.37967  1.0000
  H   H1824     1.0  0.01418  0.91116  0.35525  1.0000
  S   S291      1.0  0.73562  0.61846  0.39813  1.0000
  C   C2275     1.0  0.98106  0.79702  0.34663  1.0000
  C   C2276     1.0  0.88587  0.97224  0.25839  1.0000
  H   H1825     1.0  0.67508  0.90605  0.34385  1.0000
  C   C2277     1.0  0.69987  0.03689  0.37709  1.0000
  C   C2278     1.0  0.59343  0.92148  0.22230  1.0000
  C   C2279     1.0  0.97065  0.87157  0.43451  1.0000
  C   C2280     1.0  0.83631  0.61252  0.25155  1.0000
  C   C2281     1.0  0.01479  0.87221  0.23650  1.0000
  C   C2282     1.0  0.85559  0.00250  0.34918  1.0000
  C   C2283     1.0  0.79535  0.70194  0.31235  1.0000
  H   H1826     1.0  0.59637  0.56729  0.21369  1.0000
  C   C2284     1.0  0.01235  0.68424  0.23726  1.0000
  H   H1827     1.0  0.82520  0.64894  0.38953  1.0000
  C   C2285     1.0  0.00611  0.89278  0.37824  1.0000
  C   C2286     1.0  0.56686  0.80367  0.33181  1.0000
  H   H1828     1.0  0.86416  0.75076  0.34589  1.0000
  C   C2287     1.0  0.58701  0.73750  0.40403  1.0000
  C   C2288     1.0  0.89325  0.84138  0.24534  1.0000
  C   C2289     1.0  0.71317  0.90800  0.42320  1.0000
  H   H1829     1.0  0.64737  0.94827  0.43790  1.0000
  H   H1830     1.0  0.04714  0.68171  0.28386  1.0000
  H   H1831     1.0  0.06023  0.60372  0.26378  1.0000
  S   S292      1.0  0.03339  0.81244  0.42867  1.0000
  C   C2290     1.0  0.56778  0.82179  0.29017  1.0000
  S   S293      1.0  0.01653  0.99340  0.35666  1.0000
  S   S294      1.0  0.98947  0.03674  0.27345  1.0000
  S   S295      1.0  0.90264  0.64258  0.36217  1.0000
  C   C2291     1.0  0.97892  0.74858  0.21211  1.0000
  S   S296      1.0  0.74029  0.59482  0.26847  1.0000
  C   C2292     1.0  0.87034  0.83202  0.22120  1.0000
  H   H1832     1.0  0.74608  0.01147  0.29873  1.0000
  H   H1833     1.0  0.81948  0.97393  0.34518  1.0000
  C   C2293     1.0  0.93088  0.78787  0.36652  1.0000
  H   H1834     1.0  0.71583  0.75446  0.27048  1.0000
  C   C2294     1.0  0.93810  0.76399  0.39725  1.0000
  Fe  Fe146     1.0  0.65750  0.62738  0.35727  1.0000
  S   S297      1.0  0.81895  0.84566  0.29412  1.0000
  H   H1835     1.0  0.71632  0.87087  0.38517  1.0000
  C   C2295     1.0  0.92885  0.86459  0.32436  1.0000
  H   H1836     1.0  0.60173  0.95220  0.32148  1.0000
  C   C2296     1.0  0.81880  0.64846  0.42560  1.0000
  H   H1837     1.0  0.82295  0.03000  0.42355  1.0000
  H   H1838     1.0  0.65513  0.95203  0.30722  1.0000
  Fe  Fe147     1.0  0.77126  0.84379  0.30191  1.0000
  C   C2297     1.0  0.84824  0.79973  0.42207  1.0000
  H   H1839     1.0  0.05772  0.95252  0.44043  1.0000
  H   H1840     1.0  0.64298  0.63928  0.23752  1.0000
  C   C2298     1.0  0.98822  0.77284  0.37713  1.0000
  Fe  Fe148     1.0  0.95239  0.00609  0.27500  1.0000
  S   S298      1.0  0.69405  0.65360  0.32245  1.0000
  H   H1841     1.0  0.68329  0.84036  0.43782  1.0000
  H   H1842     1.0  0.98855  0.69006  0.44849  1.0000
  C   C2299     1.0  0.68228  0.01209  0.38810  1.0000
  S   S299      1.0  0.74642  0.80814  0.27468  1.0000
  C   C2300     1.0  0.80051  0.66984  0.43995  1.0000
  S   S300      1.0  0.81614  0.90556  0.34597  1.0000
  H   H1843     1.0  0.89461  0.97591  0.29101  1.0000
  C   C2301     1.0  0.60389  0.93997  0.42236  1.0000
  C   C2302     1.0  0.80694  0.75284  0.29268  1.0000
  S   S301      1.0  0.59386  0.00965  0.27893  1.0000
  C   C2303     1.0  0.73118  0.72849  0.38056  1.0000
  H   H1844     1.0  0.59520  0.02359  0.40054  1.0000
  H   H1845     1.0  0.63130  0.71379  0.22940  1.0000
  C   C2304     1.0  0.02965  0.69082  0.41335  1.0000
  P   P79       1.0  0.65411  0.01200  0.43256  1.0000
  H   H1846     1.0  0.80508  0.76905  0.22128  1.0000
  H   H1847     1.0  0.88465  0.88143  0.41277  1.0000
  H   H1848     1.0  0.65826  0.74209  0.37232  1.0000
  H   H1849     1.0  0.92479  0.93807  0.30295  1.0000
  S   S302      1.0  0.86823  0.70366  0.42028  1.0000
  H   H1850     1.0  0.02737  0.76692  0.28857  1.0000
  H   H1851     1.0  0.88220  0.75912  0.23648  1.0000
  C   C2305     1.0  0.90304  0.91259  0.35978  1.0000
  C   C2306     1.0  0.86950  0.02798  0.33003  1.0000
  H   H1852     1.0  0.60733  0.64744  0.41640  1.0000
  C   C2307     1.0  0.86660  0.94918  0.25578  1.0000
  C   C2308     1.0  0.63222  0.81577  0.21874  1.0000
  H   H1853     1.0  0.66944  0.83185  0.24984  1.0000
  H   H1854     1.0  0.74146  0.82373  0.45241  1.0000
  H   H1855     1.0  0.99815  0.80942  0.32755  1.0000
  S   S303      1.0  0.84317  0.83691  0.42544  1.0000
  C   C2309     1.0  0.79091  0.61914  0.29216  1.0000
  H   H1856     1.0  0.98895  0.87602  0.29759  1.0000
  C   C2310     1.0  0.60896  0.71343  0.22046  1.0000
  C   C2311     1.0  0.76178  0.02720  0.44920  1.0000
  C   C2312     1.0  0.72798  0.01194  0.32273  1.0000
  H   H1857     1.0  0.79929  0.00301  0.27930  1.0000
  C   C2313     1.0  0.87793  0.55304  0.35666  1.0000
  H   H1858     1.0  0.57445  0.54735  0.37894  1.0000
  H   H1859     1.0  0.87976  0.95410  0.45645  1.0000
  C   C2314     1.0  0.72463  0.75395  0.30428  1.0000
  C   C2315     1.0  0.66846  0.94430  0.23846  1.0000
  H   H1860     1.0  0.75670  0.75115  0.42542  1.0000
  C   C2316     1.0  0.88521  0.78213  0.23895  1.0000
  H   H1861     1.0  0.01399  0.57885  0.25591  1.0000
  H   H1862     1.0  0.99760  0.69327  0.26127  1.0000
  C   C2317     1.0  0.97750  0.82727  0.22107  1.0000
  Fe  Fe149     1.0  0.81841  0.85748  0.36638  1.0000
  C   C2318     1.0  0.80196  0.75023  0.24636  1.0000
  S   S304      1.0  0.96360  0.92897  0.40672  1.0000
  H   H1863     1.0  0.97242  0.73778  0.42600  1.0000
  S   S305      1.0  0.93844  0.70430  0.34283  1.0000
  C   C2319     1.0  0.03568  0.76874  0.21530  1.0000
  C   C2320     1.0  0.58920  0.63399  0.41031  1.0000
  H   H1864     1.0  0.60298  0.90429  0.29160  1.0000
  H   H1865     1.0  0.67738  0.60160  0.21759  1.0000
  H   H1866     1.0  0.71074  0.64938  0.21454  1.0000
  C   C2321     1.0  0.98118  0.89555  0.40548  1.0000
  C   C2322     1.0  0.70676  0.87965  0.41472  1.0000
  C   C2323     1.0  0.97241  0.84275  0.25908  1.0000
  H   H1867     1.0  0.01046  0.76683  0.38117  1.0000
  S   S306      1.0  0.05166  0.99652  0.22403  1.0000
  C   C2324     1.0  0.66614  0.93737  0.28624  1.0000
  H   H1868     1.0  0.67612  0.96735  0.37512  1.0000
  C   C2325     1.0  0.62726  0.95810  0.42780  1.0000
  C   C2326     1.0  0.04025  0.67759  0.25011  1.0000
  C   C2327     1.0  0.79053  0.69926  0.26616  1.0000
  C   C2328     1.0  0.68823  0.98716  0.36624  1.0000
  C   C2329     1.0  0.56792  0.62753  0.44504  1.0000
  C   C2330     1.0  0.62446  0.98852  0.42138  1.0000
  C   C2331     1.0  0.80346  0.72873  0.32573  1.0000
  S   S307      1.0  0.77112  0.85207  0.37561  1.0000
  S   S308      1.0  0.72543  0.69815  0.42178  1.0000
  C   C2332     1.0  0.89842  0.88467  0.38211  1.0000
  S   S309      1.0  0.68100  0.58527  0.35931  1.0000
  C   C2333     1.0  0.98632  0.84576  0.43987  1.0000
  C   C2334     1.0  0.03108  0.57757  0.23015  1.0000
  C   C2335     1.0  0.96002  0.58857  0.40101  1.0000
  C   C2336     1.0  0.82223  0.59700  0.22057  1.0000
  S   S310      1.0  0.98732  0.64059  0.37647  1.0000
  H   H1869     1.0  0.89352  0.93118  0.37375  1.0000
  S   S311      1.0  0.97970  0.96633  0.27648  1.0000
  H   H1870     1.0  0.94588  0.59481  0.37311  1.0000
  C   C2337     1.0  0.57496  0.98214  0.40046  1.0000
  C   C2338     1.0  0.85995  0.74053  0.41966  1.0000
  C   C2339     1.0  0.99047  0.75289  0.25444  1.0000
  C   C2340     1.0  0.83019  0.99386  0.33063  1.0000
  H   H1871     1.0  0.75105  0.56621  0.44289  1.0000
  H   H1872     1.0  0.70026  0.87234  0.29578  1.0000
  H   H1873     1.0  0.97754  0.74852  0.28594  1.0000
  C   C2341     1.0  0.91137  0.86077  0.36477  1.0000
  H   H1874     1.0  0.96370  0.80925  0.21578  1.0000
  Fe  Fe150     1.0  0.94758  0.65699  0.34163  1.0000
  H   H1875     1.0  0.71550  0.96777  0.31708  1.0000
  S   S312      1.0  0.73973  0.92807  0.38913  1.0000
  H   H1876     1.0  0.04046  0.86426  0.36129  1.0000
  H   H1877     1.0  0.79225  0.68666  0.41530  1.0000
  H   H1878     1.0  0.60621  0.91656  0.42844  1.0000
  Fe  Fe151     1.0  0.81318  0.89335  0.27386  1.0000
  H   H1879     1.0  0.76587  0.79369  0.36791  1.0000
  C   C2342     1.0  0.01208  0.84333  0.41477  1.0000
  Fe  Fe152     1.0  0.76839  0.89921  0.35063  1.0000
  C   C2343     1.0  0.77702  0.60280  0.26180  1.0000
  C   C2344     1.0  0.58745  0.97405  0.20981  1.0000
  H   H1880     1.0  0.88919  0.03480  0.34435  1.0000
  H   H1881     1.0  0.86113  0.93454  0.28623  1.0000
  C   C2345     1.0  0.67733  0.91140  0.30684  1.0000
  C   C2346     1.0  0.82063  0.62425  0.28674  1.0000
  S   S313      1.0  0.88116  0.69443  0.28425  1.0000
  C   C2347     1.0  0.91271  0.82121  0.26585  1.0000
  C   C2348     1.0  0.84838  0.55568  0.35147  1.0000
  H   H1882     1.0  0.89534  0.86437  0.24838  1.0000
  Fe  Fe153     1.0  0.89286  0.69021  0.35874  1.0000
  H   H1883     1.0  0.79293  0.68307  0.33753  1.0000
  H   H1884     1.0  0.61184  0.76367  0.35017  1.0000
  H   H1885     1.0  0.02910  0.88966  0.24279  1.0000
  C   C2349     1.0  0.89405  0.99049  0.21875  1.0000
  C   C2350     1.0  0.95690  0.56129  0.42670  1.0000
  C   C2351     1.0  0.79265  0.59213  0.22563  1.0000
  H   H1886     1.0  0.94441  0.89652  0.26875  1.0000
  H   H1887     1.0  0.04524  0.56345  0.41083  1.0000
  C   C2352     1.0  0.85945  0.75913  0.37849  1.0000
  C   C2353     1.0  0.61230  0.74692  0.37907  1.0000
  H   H1888     1.0  0.80699  0.73085  0.36170  1.0000
  C   C2354     1.0  0.71980  0.72953  0.33671  1.0000
  C   C2355     1.0  0.68750  0.86259  0.44399  1.0000
  C   C2356     1.0  0.74081  0.77752  0.31560  1.0000
  C   C2357     1.0  0.83259  0.03633  0.27315  1.0000
  C   C2358     1.0  0.58181  0.54920  0.22329  1.0000
  H   H1889     1.0  0.92135  0.75068  0.41559  1.0000
  C   C2359     1.0  0.71074  0.98727  0.33326  1.0000
  C   C2360     1.0  0.75245  0.77629  0.35931  1.0000
  H   H1890     1.0  0.61851  0.56495  0.41134  1.0000
  H   H1891     1.0  0.90861  0.79284  0.36161  1.0000
  C   C2361     1.0  0.61512  0.70346  0.45342  1.0000
  Fe  Fe154     1.0  0.98572  0.03082  0.35045  1.0000
  C   C2362     1.0  0.99174  0.86468  0.26736  1.0000
  H   H1892     1.0  0.73670  0.69554  0.21804  1.0000
  C   C2363     1.0  0.69424  0.89952  0.23186  1.0000
  H   H1893     1.0  0.83155  0.63656  0.31033  1.0000
  C   C2364     1.0  0.58864  0.71554  0.44120  1.0000
  H   H1894     1.0  0.70562  0.88468  0.21163  1.0000
  H   H1895     1.0  0.95079  0.87332  0.45418  1.0000
  C   C2365     1.0  0.85298  0.78872  0.37966  1.0000
  H   H1896     1.0  0.92373  0.77550  0.27644  1.0000
  C   C2366     1.0  0.93252  0.89271  0.30128  1.0000
  H   H1897     1.0  0.70699  0.71174  0.32788  1.0000
  C   C2367     1.0  0.95218  0.80455  0.34082  1.0000
  P   P80       1.0  0.94197  0.83347  0.29789  1.0000
  H   H1898     1.0  0.77883  0.62769  0.31985  1.0000
  C   C2368     1.0  0.01877  0.76317  0.25598  1.0000
  C   C2369     1.0  0.58913  0.69808  0.25109  1.0000
  Fe  Fe155     1.0  0.89451  0.64782  0.28652  1.0000
  C   C2370     1.0  0.85800  0.04490  0.29251  1.0000
  H   H1899     1.0  0.89109  0.57239  0.35699  1.0000
  H   H1900     1.0  0.70054  0.02766  0.21064  1.0000
  C   C2371     1.0  0.00052  0.59894  0.44624  1.0000
  C   C2372     1.0  0.81880  0.01055  0.29271  1.0000
  S   S314      1.0  0.94039  0.65819  0.26619  1.0000
  H   H1901     1.0  0.61800  0.83154  0.23199  1.0000
  Fe  Fe156     1.0  0.71842  0.61190  0.32925  1.0000
  H   H1902     1.0  0.57687  0.84350  0.28854  1.0000
  C   C2373     1.0  0.90876  0.79152  0.26181  1.0000
  C   C2374     1.0  0.96681  0.75650  0.40263  1.0000
  H   H1903     1.0  0.78543  0.67799  0.25663  1.0000
  S   S315      1.0  0.87365  0.61559  0.24637  1.0000
  Fe  Fe157     1.0  0.92792  0.70457  0.26862  1.0000
  H   H1904     1.0  0.57504  0.81172  0.36234  1.0000
  C   C2375     1.0  0.59812  0.00036  0.40692  1.0000
  S   S316      1.0  0.94640  0.00298  0.35177  1.0000
  H   H1905     1.0  0.85315  0.80318  0.34796  1.0000
  H   H1906     1.0  0.81312  0.77365  0.30317  1.0000
  C   C2376     1.0  0.92042  0.91654  0.31972  1.0000
  C   C2377     1.0  0.63874  0.73471  0.39140  1.0000
  C   C2378     1.0  0.64015  0.71303  0.42857  1.0000
  C   C2379     1.0  0.72278  0.03404  0.21209  1.0000
  C   C2380     1.0  0.58694  0.62307  0.36783  1.0000
  H   H1907     1.0  0.05090  0.60601  0.35184  1.0000
  C   C2381     1.0  0.02110  0.86628  0.38192  1.0000
  S   S317      1.0  0.66955  0.63470  0.42893  1.0000
  C   C2382     1.0  0.59285  0.97606  0.25623  1.0000
  C   C2383     1.0  0.59757  0.95073  0.28570  1.0000
  Fe  Fe158     1.0  0.70804  0.65825  0.39428  1.0000
  Fe  Fe159     1.0  0.97710  0.96571  0.35361  1.0000
  C   C2384     1.0  0.57767  0.95201  0.40894  1.0000
  S   S318      1.0  0.83395  0.91407  0.20793  1.0000
  H   H1908     1.0  0.74446  0.99290  0.41367  1.0000
  C   C2385     1.0  0.74746  0.75197  0.39183  1.0000
  Fe  Fe160     1.0  0.69626  0.59443  0.42815  1.0000
  H   H1909     1.0  0.84449  0.61140  0.44607  1.0000
  C   C2386     1.0  0.75597  0.99825  0.44314  1.0000
  H   H1910     1.0  0.01749  0.61355  0.45358  1.0000
  H   H1911     1.0  0.70230  0.54973  0.24252  1.0000
  H   H1912     1.0  0.90709  0.83946  0.38272  1.0000
  S   S319      1.0  0.92008  0.01759  0.22105  1.0000
  C   C2387     1.0  0.68259  0.92546  0.21069  1.0000
  C   C2388     1.0  0.66127  0.81611  0.22858  1.0000
  H   H1913     1.0  0.70232  0.79653  0.21844  1.0000
  H   H1914     1.0  0.66068  0.70371  0.43820  1.0000
  H   H1915     1.0  0.65873  0.96416  0.22382  1.0000
  C   C2389     1.0  0.79295  0.72358  0.23288  1.0000
  C   C2390     1.0  0.86603  0.80238  0.21859  1.0000
  C   C2391     1.0  0.72229  0.03691  0.34407  1.0000
  C   C2392     1.0  0.01135  0.68723  0.45260  1.0000
  H   H1916     1.0  0.00963  0.95263  0.45165  1.0000
  C   C2393     1.0  0.85541  0.94456  0.21339  1.0000
  C   C2394     1.0  0.05909  0.68652  0.41741  1.0000
  C   C2395     1.0  0.05728  0.59157  0.23469  1.0000
  H   H1917     1.0  0.98707  0.00050  0.45380  1.0000
  C   C2396     1.0  0.06253  0.57888  0.41310  1.0000
  C   C2397     1.0  0.05900  0.66509  0.21976  1.0000
  S   S320      1.0  0.94355  0.73613  0.20870  1.0000
  H   H1918     1.0  0.75456  0.04473  0.42472  1.0000
  C   C2398     1.0  0.06367  0.93074  0.43537  1.0000
  H   H1919     1.0  0.94003  0.54682  0.41902  1.0000
  H   H1920     1.0  0.04700  0.04508  0.43421  1.0000
  C   C2399     1.0  0.67984  0.79620  0.21083  1.0000
  C   C2400     1.0  0.63927  0.62744  0.20822  1.0000
