data_image0
_chemical_formula_structural       CH3CPCHC3SC2H3SCHSFeCHC2SH4CHC4HCH2CHS2C3HCSH3C2PSHSC3SH5FeCFeC2FeHC2SH3CHC4H4CHCSHC2FeCSCHCFeCHC4SCHCFeCH4SCH2CFeHCH2C3HC3SC5HSCHC3HCHCH2C2HCHC4HCHC4H2C3H3CH2CHC3H2CH3CHC5HCHC5H5C4HC3H3CHPHCPHCH6CHCH3CHC8HC4HC2HCH3C3HC2PH4C7HC3HC2H2CH2SHCPH3C4HCH2SHSHFeC2HC3SHCHC2H2C2H2CFeC2HCFeH3CHCFeCSH3C2HCH2C6SCH5SCHCHC2S2CH2C3H3CFeCHSCHSHFeC2HSFeH2CHCHCHCHC3HC2H2C3H2C2HC4FeC2SH2C3HSHSPC3HC2HCH3C3HC4HC3H2C2H2C7H3CHC2HC2HCPHC3S2CHCHCHC6HCHCHCPHC5H4C3H4C5HCH2C2HC2H6CPCSH3C2HCHCHC4H2C3H2CH2CH2CHCHCHCH2C6HCPH3CHCH2CH2SCH4CHSC4HPCHC4HC2H2CHCHC5HC3HCH2S2C3H2C2HCH9CHC4HC4HSCHC3HC2HCH4CH2SC3HCH3C3H3C2HCH3C5HC2H3PCH2PC2HC2FeC3HC5HC3HC2PFeHCHC2H3CHC2HC3SC2H2CHCH2SHC2SC2SCSC2FeC2HSHCHCHCFeS2C2HCH2C2HCH2C2H3CH2SHPCHSC2HC2FeCSHCHFeH2SH2CHC2H2C2FeSCH2CHC3HCH2FeHC3H2CH2CHCHC2SH2PC3SH2CFe2CHC3HC2HCHC2HC3HCHCHCHC2H3C2H3CFeC3HC2HC2HCHCH3C3H3SHC2HSPH4CHC2HC2SCHC2PC3HC5SHCH2CHC2HPHCHCH2C2HC3SH2FeHC3HCHC2H3C2H4C3SPH3C2H4CFeCHSHC5H2PH2C4HC3HCFeC3HFeC4HCSH2SC2H2CHC3HC3H3C2H3CSHC4SHSHCH3SC2SC2SHCSCFeC2H4SH2C2HSCH2C4S2HFeC2H2C3HC2SFeH3C2FeHSHFeHC3H2C2HC2H2C2SFeC3HSFeHC2SHSCH2CHSH2CH3CSHCH2FeCHCFe2HC2FeSC3HCHCH2SCHCHCHCH4C7SC3FeHCHSH2SCHCFe3HC2SH2FeH2C2H2SCSHC3HFeH2C3H2CPH2C4H2C2HC2HCHC2HSCHC5H2C4HC3SCH3C8H2CHCH2CHCH3PSH3CHCHC3HC2HCHC2H2SCHCH3C2H3PC5H3C3HCSH2C5HC2HCSH3C2H4C6HC2H3CHCHCHC3HS2HC4HSCH2C2PHCHCFeSH2SHCSFeCHCSC2HCFeSCHS2H5FeCFeCHCHSH2C7H2FeCSCHPHCSCHC3HC2HSC6H2SCHCFeCH2FeCSHSHC2FeCHFeH3FeHSH2SC2HSC2FeHCHSCHC4HC2HC2H3C2H3CSHCHCH3C2HCH3C9HCH3CH5C5HCHC2HCHC4HCH5CHCH3C4H2C6HSCH2C3HC3HCHC5H2C2HC3H2C2H5PC4HCHCH2P2CH3C4HCHCH3C3H2CH5C2HCHCH2CH3C2H2C4H2C5HC2HC4HC2HCSCH2CHCH3CHCHCHPCHCH4CHC4HCHCHSHC2HCPC2HCHCHCHC2HC2H2C5HC3HC2PH2CHC2HC2SC2HCHC4H3CHCH2CFeHC2FeSCSH3C3H2SCS2HC2HFeCHSHCHC2HCHCSFePHCFeCHC2SCHCHFeH2CHCFeHCSPSC2HFeHC2H2C5HC3HCHSC2HFeHCHCHS2HCH2C4SHFeHC4HCH2SC3H2C2HC3HS2C3H2C2H5CHC4H3CH2C2H4C2HSC6H8CHC3HC2H2C6SCHFeC3PHC3H3CH2CHC2FeC4SH3C3HCH2C3H3CH2CHC5HCH3CH2C8HCH4CHC5SC3H3C2PC6HCHC2HC2H7CH3CHC5HC4H2CHSH2CHFeHCH5C2HS2CH2CH2C6HSHCH2SFeSH3CFeC2SC2H2FeCSCHCHCHCSCH2C2PHCHCHFeHCFeHC4HCH3C4PCH5C2SCSC3HCH3SCHCFeH2SCHFeSHSCH2C3H2C5HC3HPCHC7H2CHC4H
_chemical_formula_sum              "C1200 H960 P40 S160 Fe80"
_cell_length_a       30.4824
_cell_length_b       38.9691
_cell_length_c       28.2446
_cell_angle_alpha    91.9166
_cell_angle_beta     75.7364
_cell_angle_gamma    93.7375

_space_group_name_H-M_alt    "P 1"
_space_group_IT_number       1

loop_
  _space_group_symop_operation_xyz
  'x, y, z'

loop_
  _atom_site_type_symbol
  _atom_site_label
  _atom_site_symmetry_multiplicity
  _atom_site_fract_x
  _atom_site_fract_y
  _atom_site_fract_z
  _atom_site_occupancy
  C   C1        1.0  0.11018  0.27922  0.58994  1.0000
  H   H1        1.0  0.17488  0.52718  0.59584  1.0000
  H   H2        1.0  0.41449  0.32428  0.62096  1.0000
  H   H3        1.0  0.28615  0.40428  0.57364  1.0000
  C   C2        1.0  0.97877  0.30380  0.63086  1.0000
  P   P1        1.0  0.03218  0.31321  0.58780  1.0000
  C   C3        1.0  0.40280  0.45766  0.60326  1.0000
  H   H4        1.0  0.05677  0.37631  0.75713  1.0000
  C   C4        1.0  0.03706  0.22922  0.78325  1.0000
  C   C5        1.0  0.39645  0.08766  0.68532  1.0000
  C   C6        1.0  0.41772  0.48237  0.63355  1.0000
  S   S1        1.0  0.27913  0.45635  0.68392  1.0000
  C   C7        1.0  0.08532  0.32100  0.65494  1.0000
  C   C8        1.0  0.97654  0.28494  0.67285  1.0000
  H   H5        1.0  0.13057  0.40135  0.71242  1.0000
  H   H6        1.0  0.02312  0.13745  0.79159  1.0000
  H   H7        1.0  0.16323  0.20961  0.73428  1.0000
  S   S2        1.0  0.24219  0.20068  0.78203  1.0000
  C   C9        1.0  0.22793  0.52859  0.80134  1.0000
  H   H8        1.0  0.37220  0.25629  0.57340  1.0000
  S   S3        1.0  0.30111  0.14231  0.67738  1.0000
  Fe  Fe1       1.0  0.24466  0.10676  0.66427  1.0000
  C   C10       1.0  0.10040  0.41352  0.71065  1.0000
  H   H9        1.0  0.02270  0.11987  0.68807  1.0000
  C   C11       1.0  0.36544  0.10935  0.76743  1.0000
  C   C12       1.0  0.02094  0.44457  0.70808  1.0000
  S   S4        1.0  0.27839  0.39517  0.76203  1.0000
  H   H10       1.0  0.39322  0.49410  0.66288  1.0000
  H   H11       1.0  0.36671  0.29543  0.72421  1.0000
  H   H12       1.0  0.16469  0.37937  0.59252  1.0000
  H   H13       1.0  0.36701  0.45022  0.60932  1.0000
  C   C13       1.0  0.39012  0.36932  0.66254  1.0000
  H   H14       1.0  0.17999  0.28413  0.66743  1.0000
  C   C14       1.0  0.04698  0.11914  0.79599  1.0000
  C   C15       1.0  0.18873  0.30729  0.80511  1.0000
  C   C16       1.0  0.12779  0.21451  0.74802  1.0000
  C   C17       1.0  0.41819  0.34177  0.65042  1.0000
  H   H15       1.0  0.02641  0.23887  0.57115  1.0000
  C   C18       1.0  0.06335  0.45876  0.68196  1.0000
  H   H16       1.0  0.00687  0.27688  0.68145  1.0000
  H   H17       1.0  0.93323  0.26126  0.73638  1.0000
  C   C19       1.0  0.01305  0.38250  0.60466  1.0000
  H   H18       1.0  0.00218  0.23619  0.79598  1.0000
  S   S5        1.0  0.93133  0.13508  0.77526  1.0000
  S   S6        1.0  0.21924  0.38293  0.68022  1.0000
  C   C20       1.0  0.05487  0.22399  0.73315  1.0000
  C   C21       1.0  0.14659  0.27259  0.60955  1.0000
  C   C22       1.0  0.35153  0.24075  0.72883  1.0000
  H   H19       1.0  0.22189  0.50993  0.77417  1.0000
  C   C23       1.0  0.39379  0.39138  0.70164  1.0000
  S   S7        1.0  0.18841  0.43831  0.77139  1.0000
  H   H20       1.0  0.99023  0.45685  0.70778  1.0000
  H   H21       1.0  0.15120  0.08793  0.60364  1.0000
  H   H22       1.0  0.33923  0.53596  0.67917  1.0000
  C   C24       1.0  0.39027  0.21000  0.77851  1.0000
  C   C25       1.0  0.93462  0.27592  0.70422  1.0000
  P   P2        1.0  0.39816  0.17037  0.80597  1.0000
  S   S8        1.0  0.25262  0.12499  0.58800  1.0000
  H   H23       1.0  0.11021  0.08166  0.68927  1.0000
  S   S9        1.0  0.15374  0.18105  0.58061  1.0000
  C   C26       1.0  0.32321  0.29349  0.57223  1.0000
  C   C27       1.0  0.10319  0.44325  0.68351  1.0000
  C   C28       1.0  0.35987  0.21008  0.74845  1.0000
  S   S10       1.0  0.18964  0.14225  0.69637  1.0000
  H   H24       1.0  0.06187  0.33991  0.67286  1.0000
  H   H25       1.0  0.33808  0.06440  0.73558  1.0000
  H   H26       1.0  0.24423  0.25514  0.71419  1.0000
  H   H27       1.0  0.11443  0.21346  0.67665  1.0000
  H   H28       1.0  0.23115  0.11181  0.75982  1.0000
  Fe  Fe2       1.0  0.29069  0.39987  0.68095  1.0000
  C   C29       1.0  0.05837  0.39928  0.73616  1.0000
  Fe  Fe3       1.0  0.26212  0.45037  0.76544  1.0000
  C   C30       1.0  0.93846  0.31314  0.62043  1.0000
  C   C31       1.0  0.24080  0.05739  0.75490  1.0000
  Fe  Fe4       1.0  0.20614  0.43904  0.68960  1.0000
  H   H29       1.0  0.39483  0.06925  0.65608  1.0000
  C   C32       1.0  0.22460  0.24260  0.79051  1.0000
  C   C33       1.0  0.12156  0.31407  0.67473  1.0000
  S   S11       1.0  0.25544  0.20398  0.63434  1.0000
  H   H30       1.0  0.06535  0.48197  0.66139  1.0000
  H   H31       1.0  0.33925  0.10719  0.80112  1.0000
  H   H32       1.0  0.27897  0.46585  0.56536  1.0000
  C   C34       1.0  0.11137  0.07307  0.80377  1.0000
  H   H33       1.0  0.41410  0.50553  0.73704  1.0000
  C   C35       1.0  0.22839  0.26391  0.75068  1.0000
  C   C36       1.0  0.20985  0.53724  0.58838  1.0000
  C   C37       1.0  0.07688  0.06246  0.78050  1.0000
  C   C38       1.0  0.03603  0.13274  0.65377  1.0000
  H   H34       1.0  0.98652  0.37444  0.63614  1.0000
  H   H35       1.0  0.10193  0.14520  0.66726  1.0000
  H   H36       1.0  0.06985  0.48910  0.78076  1.0000
  H   H37       1.0  0.01927  0.05876  0.61626  1.0000
  C   C39       1.0  0.04011  0.35852  0.57469  1.0000
  H   H38       1.0  0.37260  0.41302  0.71075  1.0000
  C   C40       1.0  0.04498  0.08590  0.77625  1.0000
  S   S12       1.0  0.34908  0.37504  0.63020  1.0000
  H   H39       1.0  0.99937  0.43594  0.61777  1.0000
  C   C41       1.0  0.21106  0.29660  0.75814  1.0000
  C   C42       1.0  0.23375  0.08914  0.77940  1.0000
  Fe  Fe5       1.0  0.30465  0.16384  0.60414  1.0000
  C   C43       1.0  0.00917  0.13411  0.62028  1.0000
  S   S13       1.0  0.95566  0.11260  0.63105  1.0000
  C   C44       1.0  0.01862  0.41465  0.73491  1.0000
  H   H40       1.0  0.03356  0.22565  0.70790  1.0000
  C   C45       1.0  0.11949  0.05863  0.66778  1.0000
  Fe  Fe6       1.0  0.20582  0.38357  0.76181  1.0000
  C   C46       1.0  0.02652  0.15039  0.57564  1.0000
  H   H41       1.0  0.01937  0.07889  0.75644  1.0000
  C   C47       1.0  0.02069  0.41761  0.59487  1.0000
  C   C48       1.0  0.36454  0.08489  0.73020  1.0000
  C   C49       1.0  0.10034  0.21689  0.71553  1.0000
  C   C50       1.0  0.41713  0.50023  0.77326  1.0000
  S   S14       1.0  0.96717  0.39641  0.76944  1.0000
  C   C51       1.0  0.39872  0.13672  0.76009  1.0000
  H   H42       1.0  0.12581  0.32740  0.70784  1.0000
  C   C52       1.0  0.09816  0.16309  0.59707  1.0000
  Fe  Fe7       1.0  0.20280  0.16416  0.62155  1.0000
  C   C53       1.0  0.10980  0.21866  0.79824  1.0000
  H   H43       1.0  0.34155  0.18654  0.74134  1.0000
  H   H44       1.0  0.31939  0.30121  0.61023  1.0000
  H   H45       1.0  0.38341  0.21026  0.63187  1.0000
  H   H46       1.0  0.93950  0.32716  0.58773  1.0000
  S   S15       1.0  0.15677  0.46137  0.65367  1.0000
  C   C54       1.0  0.15215  0.28983  0.65202  1.0000
  H   H47       1.0  0.13772  0.05612  0.80555  1.0000
  H   H48       1.0  0.17042  0.25383  0.59193  1.0000
  C   C55       1.0  0.37378  0.27157  0.73874  1.0000
  Fe  Fe8       1.0  0.24671  0.17872  0.70667  1.0000
  H   H49       1.0  0.32719  0.24054  0.70659  1.0000
  C   C56       1.0  0.08089  0.14681  0.64183  1.0000
  H   H50       1.0  0.36605  0.53472  0.80861  1.0000
  H   H51       1.0  0.21375  0.31312  0.72749  1.0000
  C   C57       1.0  0.07905  0.30335  0.61268  1.0000
  C   C58       1.0  0.14293  0.06245  0.61887  1.0000
  C   C59       1.0  0.41460  0.19924  0.61259  1.0000
  H   H52       1.0  0.92974  0.39380  0.57204  1.0000
  C   C60       1.0  0.41289  0.24101  0.78788  1.0000
  C   C61       1.0  0.40462  0.27165  0.76805  1.0000
  C   C62       1.0  0.39010  0.51670  0.81364  1.0000
  S   S16       1.0  0.16300  0.34634  0.81418  1.0000
  C   C63       1.0  0.07075  0.16531  0.56436  1.0000
  C   C64       1.0  0.41581  0.17940  0.57001  1.0000
  C   C65       1.0  0.06044  0.50725  0.00569  1.0000
  C   C66       1.0  0.35413  0.13625  0.89109  1.0000
  C   C67       1.0  0.02390  0.38474  0.97646  1.0000
  H   H53       1.0  0.04080  0.16863  0.04063  1.0000
  S   S17       1.0  0.22492  0.06579  0.91969  1.0000
  C   C68       1.0  0.98967  0.19382  0.95776  1.0000
  H   H54       1.0  0.09573  0.18069  0.90405  1.0000
  C   C69       1.0  0.33826  0.30659  0.92193  1.0000
  C   C70       1.0  0.33626  0.25441  0.99487  1.0000
  C   C71       1.0  0.09080  0.48104  0.00157  1.0000
  H   H55       1.0  0.13949  0.49134  0.89582  1.0000
  C   C72       1.0  0.99772  0.20096  0.90776  1.0000
  H   H56       1.0  0.15682  0.41943  0.88325  1.0000
  C   C73       1.0  0.03256  0.41783  0.99469  1.0000
  H   H57       1.0  0.13986  0.11446  0.84135  1.0000
  H   H58       1.0  0.24326  0.18403  0.90958  1.0000
  C   C74       1.0  0.32554  0.28139  0.89037  1.0000
  C   C75       1.0  0.28865  0.25028  0.00535  1.0000
  H   H59       1.0  0.29739  0.27123  0.82823  1.0000
  C   C76       1.0  0.11145  0.48135  0.88110  1.0000
  H   H60       1.0  0.04768  0.37413  0.94519  1.0000
  C   C77       1.0  0.07942  0.45667  0.90653  1.0000
  C   C78       1.0  0.26593  0.22068  0.02845  1.0000
  C   C79       1.0  0.30648  0.29076  0.85289  1.0000
  C   C80       1.0  0.33204  0.34135  0.91516  1.0000
  H   H61       1.0  0.16946  0.36226  0.03347  1.0000
  C   C81       1.0  0.95302  0.37886  0.03806  1.0000
  H   H62       1.0  0.37475  0.45122  0.03014  1.0000
  C   C82       1.0  0.27131  0.43417  0.00665  1.0000
  C   C83       1.0  0.98658  0.54698  0.92461  1.0000
  C   C84       1.0  0.07209  0.48048  0.81615  1.0000
  C   C85       1.0  0.03983  0.09138  0.04179  1.0000
  H   H63       1.0  0.01562  0.29695  0.00087  1.0000
  H   H64       1.0  0.10969  0.40288  0.03859  1.0000
  C   C86       1.0  0.13436  0.20401  0.95158  1.0000
  C   C87       1.0  0.97213  0.18210  0.87955  1.0000
  C   C88       1.0  0.15947  0.40764  0.91652  1.0000
  H   H65       1.0  0.00894  0.20760  0.98062  1.0000
  H   H66       1.0  0.35670  0.17828  0.03957  1.0000
  H   H67       1.0  0.14891  0.46496  0.02511  1.0000
  C   C89       1.0  0.93135  0.15010  0.95064  1.0000
  H   H68       1.0  0.07999  0.28885  0.93674  1.0000
  H   H69       1.0  0.29217  0.31114  0.05452  1.0000
  C   C90       1.0  0.36036  0.32752  0.01528  1.0000
  H   H70       1.0  0.03399  0.50521  0.98609  1.0000
  C   C91       1.0  0.08385  0.23483  0.91574  1.0000
  C   C92       1.0  0.39659  0.35195  0.01460  1.0000
  C   C93       1.0  0.32723  0.45033  0.93258  1.0000
  H   H71       1.0  0.13337  0.05402  0.97454  1.0000
  H   H72       1.0  0.01746  0.42598  0.90520  1.0000
  C   C94       1.0  0.28263  0.44019  0.95649  1.0000
  H   H73       1.0  0.22924  0.21781  0.03769  1.0000
  H   H74       1.0  0.92211  0.36397  0.05493  1.0000
  H   H75       1.0  0.13178  0.21643  0.82248  1.0000
  C   C95       1.0  0.04611  0.30323  0.86098  1.0000
  H   H76       1.0  0.95062  0.16335  0.01743  1.0000
  C   C96       1.0  0.12912  0.41461  0.96142  1.0000
  C   C97       1.0  0.20505  0.25437  0.83786  1.0000
  C   C98       1.0  0.95659  0.16860  0.97897  1.0000
  C   C99       1.0  0.29043  0.19479  0.04079  1.0000
  C   C100      1.0  0.32040  0.32968  0.05242  1.0000
  H   H77       1.0  0.34232  0.36134  0.93847  1.0000
  C   C101      1.0  0.19327  0.38450  0.91394  1.0000
  H   H78       1.0  0.17110  0.29577  0.88140  1.0000
  C   C102      1.0  0.11288  0.10623  0.82395  1.0000
  C   C103      1.0  0.12425  0.26431  0.97116  1.0000
  C   C104      1.0  0.00102  0.43112  0.03477  1.0000
  C   C105      1.0  0.31118  0.17928  0.86569  1.0000
  C   C106      1.0  0.09441  0.26486  0.94067  1.0000
  H   H79       1.0  0.28493  0.33228  0.81743  1.0000
  H   H80       1.0  0.23660  0.42685  0.02539  1.0000
  H   H81       1.0  0.39712  0.23009  0.99953  1.0000
  H   H82       1.0  0.16707  0.23339  0.00043  1.0000
  H   H83       1.0  0.96475  0.49441  0.91212  1.0000
  C   C107      1.0  0.34940  0.44821  0.00906  1.0000
  C   C108      1.0  0.39355  0.37701  0.05163  1.0000
  C   C109      1.0  0.36060  0.22795  0.00687  1.0000
  C   C110      1.0  0.12481  0.48444  0.02743  1.0000
  H   H84       1.0  0.12067  0.17273  0.04575  1.0000
  C   C111      1.0  0.04327  0.44448  0.88652  1.0000
  C   C112      1.0  0.91950  0.54310  0.01232  1.0000
  C   C113      1.0  0.93931  0.15671  0.90097  1.0000
  H   H85       1.0  0.13203  0.28755  0.99041  1.0000
  H   H86       1.0  0.92090  0.09176  0.05355  1.0000
  H   H87       1.0  0.01196  0.44671  0.82626  1.0000
  C   C114      1.0  0.95960  0.51655  0.93670  1.0000
  H   H88       1.0  0.30757  0.19877  0.84083  1.0000
  P   P3        1.0  0.36493  0.29412  0.96855  1.0000
  H   H89       1.0  0.13262  0.51179  0.81621  1.0000
  C   C115      1.0  0.33774  0.19829  0.02964  1.0000
  P   P4        1.0  0.08345  0.44277  0.96567  1.0000
  H   H90       1.0  0.31898  0.10752  0.95469  1.0000
  C   C116      1.0  0.02836  0.33496  0.85763  1.0000
  H   H91       1.0  0.08204  0.30035  0.84597  1.0000
  H   H92       1.0  0.07452  0.09262  0.96562  1.0000
  H   H93       1.0  0.30822  0.37743  0.87211  1.0000
  H   H94       1.0  0.97600  0.34093  0.98221  1.0000
  H   H95       1.0  0.36969  0.52065  0.89178  1.0000
  H   H96       1.0  0.14979  0.18036  0.95580  1.0000
  C   C117      1.0  0.13286  0.39788  0.00349  1.0000
  H   H97       1.0  0.25676  0.43758  0.93605  1.0000
  C   C118      1.0  0.31728  0.12804  0.93034  1.0000
  H   H98       1.0  0.24841  0.13816  0.96673  1.0000
  H   H99       1.0  0.26903  0.27019  0.99638  1.0000
  H   H100      1.0  0.39150  0.05760  0.89723  1.0000
  C   C119      1.0  0.10400  0.20437  0.92174  1.0000
  H   H101      1.0  0.22291  0.34997  0.95356  1.0000
  C   C120      1.0  0.27741  0.14538  0.93721  1.0000
  C   C121      1.0  0.16670  0.37480  0.00074  1.0000
  C   C122      1.0  0.31282  0.35060  0.87755  1.0000
  C   C123      1.0  0.30476  0.43794  0.03280  1.0000
  C   C124      1.0  0.12745  0.51308  0.05797  1.0000
  C   C125      1.0  0.14420  0.23390  0.97662  1.0000
  C   C126      1.0  0.25855  0.52250  0.82916  1.0000
  C   C127      1.0  0.07390  0.08268  0.00111  1.0000
  H   H102      1.0  0.05064  0.35633  0.84060  1.0000
  C   C128      1.0  0.35122  0.16175  0.85822  1.0000
  C   C129      1.0  0.95323  0.31087  0.89556  1.0000
  C   C130      1.0  0.95553  0.05579  0.96009  1.0000
  C   C131      1.0  0.19685  0.36803  0.95591  1.0000
  H   H103      1.0  0.37460  0.51599  0.01146  1.0000
  C   C132      1.0  0.36080  0.45538  0.95898  1.0000
  C   C133      1.0  0.00202  0.28579  0.03629  1.0000
  H   H104      1.0  0.99782  0.08084  0.89662  1.0000
  C   C134      1.0  0.27446  0.17110  0.90503  1.0000
  H   H105      1.0  0.33102  0.25454  0.89419  1.0000
  H   H106      1.0  0.01350  0.10763  0.03778  1.0000
  H   H107      1.0  0.33485  0.45443  0.89363  1.0000
  C   C135      1.0  0.06248  0.53538  0.03722  1.0000
  C   C136      1.0  0.92578  0.51474  0.98030  1.0000
  C   C137      1.0  0.26697  0.54721  0.86354  1.0000
  H   H108      1.0  0.29051  0.54241  0.88527  1.0000
  C   C138      1.0  0.99547  0.06115  0.92352  1.0000
  C   C139      1.0  0.01762  0.27514  0.88216  1.0000
  P   P5        1.0  0.04101  0.23368  0.88095  1.0000
  H   H109      1.0  0.38453  0.12223  0.88570  1.0000
  H   H110      1.0  0.94783  0.25742  0.91303  1.0000
  H   H111      1.0  0.20290  0.23812  0.86873  1.0000
  H   H112      1.0  0.21623  0.37898  0.87899  1.0000
  C   C140      1.0  0.23248  0.06262  0.85615  1.0000
  C   C141      1.0  0.97091  0.27908  0.89915  1.0000
  C   C142      1.0  0.40971  0.52485  0.99785  1.0000
  C   C143      1.0  0.39217  0.50861  0.86079  1.0000
  C   C144      1.0  0.03974  0.45638  0.84158  1.0000
  C   C145      1.0  0.10722  0.06117  0.00622  1.0000
  C   C146      1.0  0.18662  0.28661  0.84504  1.0000
  H   H113      1.0  0.22396  0.11641  0.84852  1.0000
  C   C147      1.0  0.96548  0.26151  0.04308  1.0000
  C   C148      1.0  0.10763  0.49317  0.83612  1.0000
  C   C149      1.0  0.98375  0.36568  0.99755  1.0000
  H   H114      1.0  0.97682  0.18689  0.84120  1.0000
  C   C150      1.0  0.98185  0.33874  0.87453  1.0000
  C   C151      1.0  0.22957  0.09177  0.82989  1.0000
  H   H115      1.0  0.96793  0.36299  0.87001  1.0000
  H   H116      1.0  0.00648  0.45635  0.04995  1.0000
  C   C152      1.0  0.29986  0.32527  0.84658  1.0000
  H   H117      1.0  0.95057  0.25411  0.01301  1.0000
  H   H118      1.0  0.08235  0.15495  0.83469  1.0000
  S   S18       1.0  0.28681  0.48429  0.82022  1.0000
  H   H119      1.0  0.92674  0.07052  0.95956  1.0000
  C   C153      1.0  0.96156  0.41170  0.05623  1.0000
  P   P6        1.0  0.41819  0.47027  0.92924  1.0000
  H   H120      1.0  0.91935  0.14238  0.87926  1.0000
  H   H121      1.0  0.01314  0.54768  0.89109  1.0000
  H   H122      1.0  0.27260  0.17216  0.05939  1.0000
  C   C154      1.0  0.09588  0.53823  0.06347  1.0000
  C   C155      1.0  0.08065  0.12915  0.82010  1.0000
  C   C156      1.0  0.06413  0.22574  0.81642  1.0000
  C   C157      1.0  0.38035  0.54000  0.22887  1.0000
  H   H123      1.0  0.36964  0.10009  0.24931  1.0000
  C   C158      1.0  0.04669  0.12074  0.26555  1.0000
  H   H124      1.0  0.97972  0.13587  0.30226  1.0000
  H   H125      1.0  0.23645  0.11478  0.24465  1.0000
  S   S19       1.0  0.23291  0.24381  0.29208  1.0000
  H   H126      1.0  0.33761  0.22306  0.28174  1.0000
  S   S20       1.0  0.16208  0.17903  0.12509  1.0000
  H   H127      1.0  0.32548  0.43855  0.23661  1.0000
  Fe  Fe9       1.0  0.17456  0.45613  0.19094  1.0000
  C   C159      1.0  0.38178  0.31729  0.15699  1.0000
  C   C160      1.0  0.02062  0.29603  0.07538  1.0000
  H   H128      1.0  0.05704  0.54724  0.20111  1.0000
  C   C161      1.0  0.94851  0.24650  0.08859  1.0000
  C   C162      1.0  0.05266  0.52210  0.18491  1.0000
  C   C163      1.0  0.99944  0.11944  0.27439  1.0000
  S   S21       1.0  0.96959  0.54183  0.17940  1.0000
  H   H129      1.0  0.15293  0.51508  0.07893  1.0000
  C   C164      1.0  0.40511  0.25572  0.10604  1.0000
  H   H130      1.0  0.41388  0.07174  0.30135  1.0000
  C   C165      1.0  0.35388  0.37851  0.08875  1.0000
  C   C166      1.0  0.38429  0.07142  0.18164  1.0000
  H   H131      1.0  0.37300  0.34123  0.17654  1.0000
  H   H132      1.0  0.10354  0.33520  0.26150  1.0000
  C   C167      1.0  0.31707  0.35539  0.08861  1.0000
  C   C168      1.0  0.01552  0.26672  0.22150  1.0000
  H   H133      1.0  0.03871  0.43298  0.12353  1.0000
  H   H134      1.0  0.10764  0.54207  0.27167  1.0000
  C   C169      1.0  0.00253  0.07565  0.21102  1.0000
  Fe  Fe10      1.0  0.20929  0.44643  0.28164  1.0000
  C   C170      1.0  0.34906  0.33914  0.30409  1.0000
  C   C171      1.0  0.04085  0.08065  0.08821  1.0000
  H   H135      1.0  0.06384  0.13823  0.28664  1.0000
  C   C172      1.0  0.40042  0.24214  0.23397  1.0000
  Fe  Fe11      1.0  0.24951  0.25381  0.21227  1.0000
  H   H136      1.0  0.41354  0.49545  0.24217  1.0000
  H   H137      1.0  0.95441  0.24360  0.16226  1.0000
  H   H138      1.0  0.99741  0.35640  0.12581  1.0000
  C   C173      1.0  0.06975  0.17812  0.16677  1.0000
  H   H139      1.0  0.94334  0.27180  0.24275  1.0000
  C   C174      1.0  0.98609  0.34332  0.24705  1.0000
  Fe  Fe12      1.0  0.20669  0.51865  0.24306  1.0000
  C   C175      1.0  0.38868  0.18587  0.27024  1.0000
  S   S22       1.0  0.25665  0.19833  0.19097  1.0000
  H   H140      1.0  0.18342  0.30748  0.27820  1.0000
  H   H141      1.0  0.21519  0.36721  0.27983  1.0000
  H   H142      1.0  0.17963  0.26656  0.08804  1.0000
  C   C176      1.0  0.04213  0.45760  0.14140  1.0000
  C   C177      1.0  0.23702  0.05951  0.13079  1.0000
  H   H143      1.0  0.93734  0.42243  0.08677  1.0000
  C   C178      1.0  0.17291  0.32302  0.31081  1.0000
  H   H144      1.0  0.35173  0.39712  0.11828  1.0000
  H   H145      1.0  0.97088  0.50052  0.27126  1.0000
  C   C179      1.0  0.07203  0.09988  0.22891  1.0000
  C   C180      1.0  0.10608  0.33855  0.15807  1.0000
  C   C181      1.0  0.04856  0.17126  0.07596  1.0000
  C   C182      1.0  0.01286  0.51299  0.17009  1.0000
  C   C183      1.0  0.09097  0.38791  0.28289  1.0000
  C   C184      1.0  0.39563  0.09380  0.21715  1.0000
  S   S23       1.0  0.15910  0.18295  0.27225  1.0000
  C   C185      1.0  0.15903  0.28698  0.10643  1.0000
  H   H146      1.0  0.21620  0.32245  0.10693  1.0000
  H   H147      1.0  0.09660  0.25619  0.11496  1.0000
  H   H148      1.0  0.27366  0.06195  0.12402  1.0000
  H   H149      1.0  0.94569  0.42240  0.24815  1.0000
  H   H150      1.0  0.07807  0.18045  0.20179  1.0000
  S   S24       1.0  0.17726  0.25397  0.20978  1.0000
  C   C186      1.0  0.97020  0.39156  0.18368  1.0000
  H   H151      1.0  0.38772  0.26678  0.22904  1.0000
  C   C187      1.0  0.10460  0.17722  0.12399  1.0000
  H   H152      1.0  0.11730  0.50580  0.19062  1.0000
  C   C188      1.0  0.38904  0.42149  0.24445  1.0000
  C   C189      1.0  0.98942  0.36085  0.16485  1.0000
  S   S25       1.0  0.29189  0.30024  0.18192  1.0000
  S   S26       1.0  0.22660  0.42273  0.20617  1.0000
  C   C190      1.0  0.37231  0.21763  0.26385  1.0000
  H   H153      1.0  0.36617  0.16710  0.29326  1.0000
  H   H154      1.0  0.33326  0.24164  0.12590  1.0000
  C   C191      1.0  0.96732  0.37418  0.26556  1.0000
  C   C192      1.0  0.35948  0.26113  0.12853  1.0000
  C   C193      1.0  0.05015  0.07758  0.20062  1.0000
  H   H155      1.0  0.29599  0.43340  0.07178  1.0000
  H   H156      1.0  0.11772  0.39833  0.25319  1.0000
  H   H157      1.0  0.35007  0.05996  0.18719  1.0000
  C   C194      1.0  0.27136  0.11450  0.30234  1.0000
  Fe  Fe13      1.0  0.18235  0.19782  0.19309  1.0000
  C   C195      1.0  0.07516  0.05989  0.09405  1.0000
  H   H158      1.0  0.07299  0.22085  0.28483  1.0000
  S   S27       1.0  0.34546  0.46889  0.14034  1.0000
  C   C196      1.0  0.00744  0.48063  0.14870  1.0000
  H   H159      1.0  0.01310  0.45935  0.30263  1.0000
  S   S28       1.0  0.22353  0.50088  0.16480  1.0000
  H   H160      1.0  0.97676  0.47359  0.13716  1.0000
  Fe  Fe14      1.0  0.23314  0.18803  0.27134  1.0000
  C   C197      1.0  0.08130  0.46625  0.15750  1.0000
  C   C198      1.0  0.21257  0.08864  0.13099  1.0000
  H   H161      1.0  0.23007  0.11379  0.12422  1.0000
  S   S29       1.0  0.26100  0.49037  0.26198  1.0000
  Fe  Fe15      1.0  0.27421  0.46924  0.18582  1.0000
  H   H162      1.0  0.01572  0.08995  0.11900  1.0000
  H   H163      1.0  0.14704  0.10787  0.13700  1.0000
  C   C199      1.0  0.30416  0.32611  0.31160  1.0000
  H   H164      1.0  0.94079  0.09571  0.25415  1.0000
  C   C200      1.0  0.96453  0.24052  0.29302  1.0000
  H   H165      1.0  0.36868  0.34517  0.26743  1.0000
  C   C201      1.0  0.96766  0.25609  0.12766  1.0000
  H   H166      1.0  0.08636  0.35893  0.17796  1.0000
  C   C202      1.0  0.37923  0.44922  0.17230  1.0000
  H   H167      1.0  0.99733  0.17415  0.19724  1.0000
  C   C203      1.0  0.16541  0.08534  0.13894  1.0000
  C   C204      1.0  0.00335  0.28143  0.12159  1.0000
  C   C205      1.0  0.36109  0.43689  0.21953  1.0000
  H   H168      1.0  0.28885  0.32234  0.28085  1.0000
  C   C206      1.0  0.25409  0.09950  0.26450  1.0000
  C   C207      1.0  0.25947  0.06450  0.25264  1.0000
  H   H169      1.0  0.96252  0.40992  0.15951  1.0000
  H   H170      1.0  0.16906  0.36875  0.15054  1.0000
  C   C208      1.0  0.02407  0.17459  0.16412  1.0000
  C   C209      1.0  0.17964  0.31841  0.11714  1.0000
  C   C210      1.0  0.09383  0.17388  0.07874  1.0000
  H   H171      1.0  0.36291  0.52636  0.20406  1.0000
  H   H172      1.0  0.99147  0.32505  0.27247  1.0000
  C   C211      1.0  0.04455  0.23170  0.27539  1.0000
  C   C212      1.0  0.05189  0.25218  0.23413  1.0000
  H   H173      1.0  0.10846  0.10129  0.22324  1.0000
  C   C213      1.0  0.11199  0.28112  0.12207  1.0000
  C   C214      1.0  0.15313  0.34431  0.14233  1.0000
  C   C215      1.0  0.00090  0.22593  0.30494  1.0000
  C   C216      1.0  0.97743  0.09685  0.24717  1.0000
  Fe  Fe16      1.0  0.16072  0.23982  0.28838  1.0000
  C   C217      1.0  0.34799  0.29210  0.15374  1.0000
  C   C218      1.0  0.08301  0.35239  0.28749  1.0000
  S   S30       1.0  0.15356  0.47639  0.26787  1.0000
  H   H174      1.0  0.37485  0.41166  0.28070  1.0000
  H   H175      1.0  0.08603  0.25687  0.21274  1.0000
  C   C219      1.0  0.08530  0.30660  0.14899  1.0000
  C   C220      1.0  0.41682  0.06417  0.13874  1.0000
  C   C221      1.0  0.08663  0.49859  0.17919  1.0000
  H   H176      1.0  0.92071  0.22715  0.09355  1.0000
  S   S31       1.0  0.95755  0.16212  0.11277  1.0000
  H   H177      1.0  0.95821  0.37923  0.30450  1.0000
  S   S32       1.0  0.12340  0.43653  0.15019  1.0000
  P   P7        1.0  0.02514  0.29745  0.17259  1.0000
  C   C222      1.0  0.01350  0.17055  0.11857  1.0000
  C   C223      1.0  0.97171  0.26029  0.25110  1.0000
  C   C224      1.0  0.40869  0.52248  0.25051  1.0000
  H   H178      1.0  0.28678  0.35643  0.11817  1.0000
  C   C225      1.0  0.99780  0.33644  0.19649  1.0000
  C   C226      1.0  0.95997  0.39847  0.23382  1.0000
  H   H179      1.0  0.41420  0.23183  0.08663  1.0000
  C   C227      1.0  0.19076  0.35710  0.31154  1.0000
  H   H180      1.0  0.04812  0.31568  0.06966  1.0000
  H   H181      1.0  0.98470  0.05783  0.19098  1.0000
  H   H182      1.0  0.29556  0.55221  0.31101  1.0000
  C   C228      1.0  0.95671  0.48948  0.30693  1.0000
  C   C229      1.0  0.41181  0.09123  0.32974  1.0000
  C   C230      1.0  0.34167  0.40054  0.51004  1.0000
  H   H183      1.0  0.01974  0.06026  0.37212  1.0000
  C   C231      1.0  0.98064  0.46581  0.32512  1.0000
  C   C232      1.0  0.33355  0.47114  0.49931  1.0000
  C   C233      1.0  0.34291  0.33738  0.39122  1.0000
  C   C234      1.0  0.02355  0.36097  0.36077  1.0000
  H   H184      1.0  0.09875  0.35242  0.51423  1.0000
  C   C235      1.0  0.24250  0.52269  0.55075  1.0000
  C   C236      1.0  0.23878  0.24656  0.43537  1.0000
  C   C237      1.0  0.22167  0.41212  0.48285  1.0000
  H   H185      1.0  0.00583  0.16747  0.40369  1.0000
  H   H186      1.0  0.38240  0.23975  0.48625  1.0000
  C   C238      1.0  0.29748  0.30827  0.54440  1.0000
  C   C239      1.0  0.24801  0.07908  0.45157  1.0000
  H   H187      1.0  0.39150  0.46702  0.43750  1.0000
  H   H188      1.0  0.27426  0.24160  0.42509  1.0000
  C   C240      1.0  0.04783  0.54392  0.33091  1.0000
  C   C241      1.0  0.10724  0.47359  0.43798  1.0000
  C   C242      1.0  0.30451  0.45314  0.53831  1.0000
  C   C243      1.0  0.02651  0.14820  0.41236  1.0000
  C   C244      1.0  0.18664  0.38022  0.55586  1.0000
  C   C245      1.0  0.14675  0.36407  0.39468  1.0000
  C   C246      1.0  0.20770  0.22021  0.42792  1.0000
  H   H189      1.0  0.21959  0.19561  0.41262  1.0000
  H   H190      1.0  0.20021  0.32681  0.55389  1.0000
  H   H191      1.0  0.08916  0.17111  0.36887  1.0000
  C   C247      1.0  0.23650  0.35179  0.48703  1.0000
  H   H192      1.0  0.22654  0.43574  0.46245  1.0000
  C   C248      1.0  0.37111  0.41828  0.47165  1.0000
  C   C249      1.0  0.28794  0.53537  0.54106  1.0000
  H   H193      1.0  0.18474  0.05609  0.35505  1.0000
  C   C250      1.0  0.36833  0.34510  0.34391  1.0000
  C   C251      1.0  0.36769  0.45352  0.46685  1.0000
  H   H194      1.0  0.35791  0.34263  0.42183  1.0000
  C   C252      1.0  0.17155  0.11794  0.47227  1.0000
  P   P8        1.0  0.11453  0.06510  0.44741  1.0000
  H   H195      1.0  0.19317  0.52072  0.33901  1.0000
  C   C253      1.0  0.03281  0.09625  0.45440  1.0000
  C   C254      1.0  0.17737  0.37776  0.35337  1.0000
  C   C255      1.0  0.08975  0.50346  0.46214  1.0000
  S   S33       1.0  0.11436  0.26836  0.34847  1.0000
  S   S34       1.0  0.19772  0.42088  0.35450  1.0000
  C   C256      1.0  0.29430  0.09473  0.32775  1.0000
  H   H196      1.0  0.13759  0.20567  0.43204  1.0000
  C   C257      1.0  0.17757  0.28451  0.46373  1.0000
  H   H197      1.0  0.11233  0.41462  0.49823  1.0000
  C   C258      1.0  0.30216  0.54523  0.34532  1.0000
  H   H198      1.0  0.14214  0.13319  0.48219  1.0000
  C   C259      1.0  0.38541  0.53627  0.48947  1.0000
  C   C260      1.0  0.30857  0.41800  0.54343  1.0000
  C   C261      1.0  0.01603  0.48603  0.44857  1.0000
  C   C262      1.0  0.18906  0.54746  0.40749  1.0000
  C   C263      1.0  0.22402  0.27893  0.45392  1.0000
  C   C264      1.0  0.96088  0.40603  0.49677  1.0000
  H   H199      1.0  0.07360  0.43728  0.31444  1.0000
  C   C265      1.0  0.07628  0.37035  0.53652  1.0000
  H   H200      1.0  0.06323  0.08945  0.54301  1.0000
  C   C266      1.0  0.04982  0.33895  0.32678  1.0000
  H   H201      1.0  0.28373  0.12496  0.47070  1.0000
  C   C267      1.0  0.20647  0.06420  0.44597  1.0000
  P   P9        1.0  0.26490  0.31378  0.45977  1.0000
  H   H202      1.0  0.32168  0.49411  0.32093  1.0000
  C   C268      1.0  0.14042  0.30985  0.35124  1.0000
  C   C269      1.0  0.35912  0.25929  0.50221  1.0000
  C   C270      1.0  0.29825  0.32312  0.39877  1.0000
  C   C271      1.0  0.14662  0.25804  0.45624  1.0000
  C   C272      1.0  0.08418  0.40555  0.52740  1.0000
  H   H203      1.0  0.02252  0.33001  0.48951  1.0000
  H   H204      1.0  0.98891  0.55332  0.38819  1.0000
  H   H205      1.0  0.96989  0.11972  0.45841  1.0000
  H   H206      1.0  0.26358  0.38431  0.42417  1.0000
  C   C273      1.0  0.06527  0.40998  0.31726  1.0000
  C   C274      1.0  0.39138  0.08230  0.37802  1.0000
  C   C275      1.0  0.19437  0.41107  0.53052  1.0000
  H   H207      1.0  0.30817  0.10651  0.35655  1.0000
  H   H208      1.0  0.14280  0.46892  0.43317  1.0000
  H   H209      1.0  0.09360  0.42673  0.40128  1.0000
  H   H210      1.0  0.98699  0.42302  0.50618  1.0000
  C   C276      1.0  0.03035  0.39684  0.35573  1.0000
  C   C277      1.0  0.38849  0.10680  0.41574  1.0000
  C   C278      1.0  0.31595  0.51244  0.35112  1.0000
  C   C279      1.0  0.09996  0.12482  0.40311  1.0000
  C   C280      1.0  0.02737  0.28723  0.53496  1.0000
  H   H211      1.0  0.91943  0.37698  0.40015  1.0000
  C   C281      1.0  0.20709  0.35060  0.53400  1.0000
  H   H212      1.0  0.01655  0.29350  0.41827  1.0000
  H   H213      1.0  0.19246  0.52454  0.42654  1.0000
  C   C282      1.0  0.40573  0.14050  0.40514  1.0000
  C   C283      1.0  0.03340  0.45599  0.42399  1.0000
  H   H214      1.0  0.10306  0.32049  0.42474  1.0000
  C   C284      1.0  0.16157  0.22587  0.43865  1.0000
  C   C285      1.0  0.92284  0.38007  0.43738  1.0000
  H   H215      1.0  0.17859  0.43401  0.54770  1.0000
  H   H216      1.0  0.03084  0.53296  0.48594  1.0000
  H   H217      1.0  0.40283  0.35604  0.33774  1.0000
  H   H218      1.0  0.39686  0.40481  0.44586  1.0000
  H   H219      1.0  0.08419  0.17784  0.52974  1.0000
  H   H220      1.0  0.37285  0.09964  0.45320  1.0000
  C   C286      1.0  0.96294  0.45182  0.37169  1.0000
  P   P10       1.0  0.99657  0.42577  0.39964  1.0000
  C   C287      1.0  0.32192  0.50287  0.39613  1.0000
  S   S35       1.0  0.36837  0.17389  0.54561  1.0000
  H   H221      1.0  0.27772  0.06416  0.44431  1.0000
  H   H222      1.0  0.27476  0.32752  0.56189  1.0000
  H   H223      1.0  0.01626  0.07541  0.47785  1.0000
  C   C288      1.0  0.12760  0.33047  0.39328  1.0000
  C   C289      1.0  0.06359  0.06178  0.54397  1.0000
  H   H224      1.0  0.33147  0.47708  0.39953  1.0000
  C   C290      1.0  0.25151  0.11343  0.46654  1.0000
  H   H225      1.0  0.13619  0.12633  0.38670  1.0000
  C   C291      1.0  0.33387  0.27430  0.47408  1.0000
  H   H226      1.0  0.99852  0.34972  0.39095  1.0000
  C   C292      1.0  0.40518  0.53173  0.52848  1.0000
  C   C293      1.0  0.07914  0.44974  0.41946  1.0000
  C   C294      1.0  0.01814  0.28180  0.45195  1.0000
  C   C295      1.0  0.95806  0.40170  0.44806  1.0000
  H   H227      1.0  0.98079  0.49126  0.45317  1.0000
  H   H228      1.0  0.13695  0.37980  0.42726  1.0000
  C   C296      1.0  0.31538  0.52643  0.43553  1.0000
  C   C297      1.0  0.30158  0.29812  0.49526  1.0000
  C   C298      1.0  0.35333  0.26852  0.55143  1.0000
  H   H229      1.0  0.01897  0.20297  0.49957  1.0000
  H   H230      1.0  0.11153  0.52187  0.47672  1.0000
  C   C299      1.0  0.27871  0.31830  0.35872  1.0000
  H   H231      1.0  0.04638  0.51667  0.33767  1.0000
  H   H232      1.0  0.34504  0.37343  0.51467  1.0000
  C   C300      1.0  0.24277  0.38269  0.46120  1.0000
  H   H233      1.0  0.21566  0.15904  0.49057  1.0000
  H   H234      1.0  0.10674  0.26536  0.55722  1.0000
  C   C301      1.0  0.21319  0.13271  0.47742  1.0000
  H   H235      1.0  0.99529  0.21035  0.33709  1.0000
  C   C302      1.0  0.19015  0.54539  0.35762  1.0000
  H   H236      1.0  0.24373  0.30870  0.36367  1.0000
  C   C303      1.0  0.16820  0.08387  0.45494  1.0000
  H   H237      1.0  0.16509  0.30946  0.47557  1.0000
  C   C304      1.0  0.04417  0.50967  0.46741  1.0000
  H   H238      1.0  0.11117  0.26283  0.46231  1.0000
  H   H239      1.0  0.33918  0.26678  0.43597  1.0000
  C   C305      1.0  0.07998  0.09798  0.43477  1.0000
  C   C306      1.0  0.07336  0.15008  0.39252  1.0000
  C   C307      1.0  0.01998  0.23071  0.49750  1.0000
  C   C308      1.0  0.00626  0.12129  0.44322  1.0000
  C   C309      1.0  0.01736  0.24605  0.45437  1.0000
  C   C310      1.0  0.02254  0.30239  0.49223  1.0000
  H   H240      1.0  0.01527  0.23040  0.42254  1.0000
  C   C311      1.0  0.02463  0.25118  0.53782  1.0000
  P   P11       1.0  0.32960  0.51673  0.49169  1.0000
  H   H241      1.0  0.23210  0.50172  0.52903  1.0000
  H   H242      1.0  0.04470  0.31131  0.33067  1.0000
  H   H243      1.0  0.00587  0.15097  0.54961  1.0000
  C   C312      1.0  0.92002  0.46129  0.39882  1.0000
  H   H244      1.0  0.40317  0.15947  0.43456  1.0000
  C   C313      1.0  0.92876  0.38922  0.53421  1.0000
  H   H245      1.0  0.37726  0.05638  0.38621  1.0000
  H   H246      1.0  0.38665  0.51736  0.55999  1.0000
  C   C314      1.0  0.05651  0.42918  0.55663  1.0000
  H   H247      1.0  0.06317  0.45649  0.55010  1.0000
  H   H248      1.0  0.93057  0.23641  0.31604  1.0000
  S   S36       1.0  0.26551  0.15794  0.31829  1.0000
  C   C315      1.0  0.30014  0.05996  0.31538  1.0000
  H   H249      1.0  0.20461  0.82100  0.78022  1.0000
  H   H250      1.0  0.00087  0.60212  0.76808  1.0000
  H   H251      1.0  0.40548  0.76082  0.72099  1.0000
  H   H252      1.0  0.26037  0.91419  0.71324  1.0000
  C   C316      1.0  0.39279  0.96586  0.69584  1.0000
  H   H253      1.0  0.22295  0.96562  0.59907  1.0000
  S   S37       1.0  0.24265  0.05338  0.69230  1.0000
  C   C317      1.0  0.41554  0.67475  0.70535  1.0000
  C   C318      1.0  0.39039  0.63729  0.58377  1.0000
  C   C319      1.0  0.07016  0.72825  0.60485  1.0000
  C   C320      1.0  0.41083  0.70867  0.69402  1.0000
  H   H254      1.0  0.40103  0.77778  0.63945  1.0000
  P   P12       1.0  0.15664  0.84596  0.62991  1.0000
  C   C321      1.0  0.10897  0.02569  0.68814  1.0000
  H   H255      1.0  0.01580  0.90788  0.65451  1.0000
  C   C322      1.0  0.16751  0.96345  0.79559  1.0000
  C   C323      1.0  0.03887  0.04448  0.58556  1.0000
  C   C324      1.0  0.21285  0.83363  0.81170  1.0000
  C   C325      1.0  0.98350  0.01347  0.79368  1.0000
  H   H256      1.0  0.18256  0.56420  0.78554  1.0000
  C   C326      1.0  0.29255  0.60595  0.74122  1.0000
  C   C327      1.0  0.98852  0.72955  0.63236  1.0000
  H   H257      1.0  0.09873  0.90408  0.63429  1.0000
  H   H258      1.0  0.11523  0.97115  0.67307  1.0000
  C   C328      1.0  0.17508  0.80978  0.65689  1.0000
  H   H259      1.0  0.41445  0.74704  0.80312  1.0000
  C   C329      1.0  0.07147  0.71419  0.64942  1.0000
  H   H260      1.0  0.16923  0.99562  0.73476  1.0000
  C   C330      1.0  0.92838  0.64229  0.73781  1.0000
  C   C331      1.0  0.35895  0.65892  0.57331  1.0000
  C   C332      1.0  0.03909  0.00876  0.58740  1.0000
  C   C333      1.0  0.21954  0.94323  0.62176  1.0000
  C   C334      1.0  0.99009  0.71603  0.67705  1.0000
  H   H261      1.0  0.37929  0.61224  0.59913  1.0000
  C   C335      1.0  0.29585  0.78707  0.76334  1.0000
  C   C336      1.0  0.04592  0.73679  0.80546  1.0000
  C   C337      1.0  0.29964  0.56414  0.56766  1.0000
  H   H262      1.0  0.26366  0.96616  0.66445  1.0000
  C   C338      1.0  0.02099  0.61291  0.79224  1.0000
  H   H263      1.0  0.35683  0.95288  0.76903  1.0000
  H   H264      1.0  0.03250  0.69726  0.71983  1.0000
  S   S38       1.0  0.93582  0.73502  0.62090  1.0000
  S   S39       1.0  0.12231  0.70166  0.65909  1.0000
  C   C339      1.0  0.94379  0.61323  0.65878  1.0000
  C   C340      1.0  0.05406  0.90113  0.76650  1.0000
  C   C341      1.0  0.10227  0.99199  0.78433  1.0000
  H   H265      1.0  0.96785  0.60477  0.62614  1.0000
  H   H266      1.0  0.17382  0.91507  0.58606  1.0000
  C   C342      1.0  0.14446  0.00071  0.60907  1.0000
  C   C343      1.0  0.22193  0.56539  0.61536  1.0000
  H   H267      1.0  0.29337  0.80432  0.69269  1.0000
  C   C344      1.0  0.32515  0.87482  0.59883  1.0000
  H   H268      1.0  0.22904  0.79981  0.59359  1.0000
  H   H269      1.0  0.10831  0.79633  0.57844  1.0000
  H   H270      1.0  0.41361  0.65464  0.67838  1.0000
  H   H271      1.0  0.12731  0.81431  0.72720  1.0000
  H   H272      1.0  0.94096  0.65666  0.76575  1.0000
  H   H273      1.0  0.21764  0.73280  0.71403  1.0000
  H   H274      1.0  0.21557  0.86174  0.69775  1.0000
  H   H275      1.0  0.34769  0.89104  0.75053  1.0000
  H   H276      1.0  0.25646  0.75115  0.63002  1.0000
  C   C345      1.0  0.19217  0.91432  0.61419  1.0000
  H   H277      1.0  0.32695  0.89944  0.61715  1.0000
  C   C346      1.0  0.10138  0.90154  0.75448  1.0000
  C   C347      1.0  0.41051  0.73473  0.72920  1.0000
  C   C348      1.0  0.40993  0.95348  0.64843  1.0000
  C   C349      1.0  0.01912  0.00421  0.75423  1.0000
  H   H278      1.0  0.27574  0.60151  0.62465  1.0000
  C   C350      1.0  0.00933  0.98122  0.71828  1.0000
  C   C351      1.0  0.33700  0.81393  0.58979  1.0000
  C   C352      1.0  0.06673  0.82147  0.66910  1.0000
  C   C353      1.0  0.15497  0.80044  0.70534  1.0000
  H   H279      1.0  0.07971  0.79634  0.67011  1.0000
  S   S40       1.0  0.22412  0.65652  0.58096  1.0000
  C   C354      1.0  0.38428  0.89494  0.67431  1.0000
  H   H280      1.0  0.26674  0.56419  0.70221  1.0000
  C   C355      1.0  0.41576  0.72698  0.77538  1.0000
  C   C356      1.0  0.40520  0.91837  0.63777  1.0000
  C   C357      1.0  0.22822  0.76503  0.65119  1.0000
  H   H281      1.0  0.25346  0.00445  0.76160  1.0000
  C   C358      1.0  0.24119  0.91400  0.68565  1.0000
  C   C359      1.0  0.06237  0.63103  0.77294  1.0000
  H   H282      1.0  0.03703  0.91857  0.74906  1.0000
  C   C360      1.0  0.29605  0.57550  0.71350  1.0000
  H   H283      1.0  0.99542  0.63605  0.69185  1.0000
  H   H284      1.0  0.34825  0.79048  0.60084  1.0000
  H   H285      1.0  0.15298  0.97842  0.58558  1.0000
  H   H286      1.0  0.10110  0.73249  0.57666  1.0000
  C   C361      1.0  0.21547  0.88443  0.67676  1.0000
  H   H287      1.0  0.07254  0.72646  0.77663  1.0000
  H   H288      1.0  0.40591  0.71438  0.65844  1.0000
  S   S41       1.0  0.97643  0.82762  0.57117  1.0000
  C   C362      1.0  0.26673  0.57903  0.60467  1.0000
  C   C363      1.0  0.15545  0.03349  0.58952  1.0000
  C   C364      1.0  0.17015  0.77261  0.72570  1.0000
  H   H289      1.0  0.32564  0.64289  0.78060  1.0000
  C   C365      1.0  0.20656  0.75477  0.69852  1.0000
  H   H290      1.0  0.07730  0.78769  0.79993  1.0000
  H   H291      1.0  0.01877  0.99539  0.61889  1.0000
  H   H292      1.0  0.40601  0.56082  0.70648  1.0000
  C   C366      1.0  0.31255  0.80555  0.72027  1.0000
  C   C367      1.0  0.14813  0.98461  0.76807  1.0000
  C   C368      1.0  0.35337  0.82571  0.71367  1.0000
  H   H293      1.0  0.19630  0.57708  0.64376  1.0000
  H   H294      1.0  0.07442  0.63466  0.73382  1.0000
  H   H295      1.0  0.39591  0.99315  0.70405  1.0000
  C   C369      1.0  0.37085  0.94306  0.73243  1.0000
  C   C370      1.0  0.09613  0.85039  0.65279  1.0000
  H   H296      1.0  0.95918  0.71090  0.70477  1.0000
  C   C371      1.0  0.21256  0.79250  0.63055  1.0000
  H   H297      1.0  0.12119  0.91921  0.72753  1.0000
  H   H298      1.0  0.95701  0.95139  0.69266  1.0000
  H   H299      1.0  0.40888  0.84232  0.74577  1.0000
  C   C372      1.0  0.20573  0.55932  0.80774  1.0000
  C   C373      1.0  0.96467  0.96876  0.72077  1.0000
  C   C374      1.0  0.92948  0.97885  0.75947  1.0000
  C   C375      1.0  0.24325  0.94336  0.65811  1.0000
  C   C376      1.0  0.31910  0.78932  0.80037  1.0000
  H   H300      1.0  0.99195  0.87872  0.81030  1.0000
  C   C377      1.0  0.00145  0.85545  0.67720  1.0000
  C   C378      1.0  0.35971  0.80936  0.79401  1.0000
  H   H301      1.0  0.15385  0.76479  0.76265  1.0000
  H   H302      1.0  0.26081  0.61862  0.75060  1.0000
  H   H303      1.0  0.26405  0.77176  0.76889  1.0000
  P   P13       1.0  0.41810  0.62206  0.76816  1.0000
  C   C379      1.0  0.01973  0.82414  0.68179  1.0000
  H   H304      1.0  0.03885  0.65358  0.56704  1.0000
  H   H305      1.0  0.12058  0.65869  0.78939  1.0000
  P   P14       1.0  0.37660  0.84957  0.65857  1.0000
  C   C380      1.0  0.12323  0.87961  0.77801  1.0000
  C   C381      1.0  0.02859  0.73643  0.59652  1.0000
  H   H306      1.0  0.20272  0.95741  0.78300  1.0000
  C   C382      1.0  0.37046  0.60307  0.74703  1.0000
  C   C383      1.0  0.24597  0.02863  0.78078  1.0000
  Fe  Fe17      1.0  0.93593  0.77776  0.57010  1.0000
  C   C384      1.0  0.08839  0.64469  0.80420  1.0000
  C   C385      1.0  0.32938  0.61953  0.75836  1.0000
  C   C386      1.0  0.03157  0.70861  0.68575  1.0000
  H   H307      1.0  0.25642  0.87298  0.76963  1.0000
  C   C387      1.0  0.37717  0.82708  0.75053  1.0000
  C   C388      1.0  0.12223  0.99675  0.65837  1.0000
  C   C389      1.0  0.34234  0.84553  0.61399  1.0000
  C   C390      1.0  0.03020  0.88406  0.65975  1.0000
  C   C391      1.0  0.24186  0.86326  0.80570  1.0000
  H   H308      1.0  0.03591  0.97273  0.68835  1.0000
  C   C392      1.0  0.02853  0.87840  0.80141  1.0000
  C   C393      1.0  0.36622  0.90781  0.72176  1.0000
  C   C394      1.0  0.37432  0.57322  0.71736  1.0000
  H   H309      1.0  0.15982  0.88074  0.77038  1.0000
  C   C395      1.0  0.19010  0.88440  0.64127  1.0000
  C   C396      1.0  0.07729  0.88168  0.64805  1.0000
  P   P15       1.0  0.07686  0.02064  0.75103  1.0000
  Fe  Fe18      1.0  0.16981  0.69331  0.58612  1.0000
  H   H310      1.0  0.99745  0.80149  0.69324  1.0000
  C   C397      1.0  0.95933  0.63070  0.69601  1.0000
  H   H311      1.0  0.96494  0.85720  0.68533  1.0000
  C   C398      1.0  0.33695  0.55932  0.70115  1.0000
  C   C399      1.0  0.16254  0.83629  0.56548  1.0000
  H   H312      1.0  0.41716  0.90946  0.60062  1.0000
  H   H313      1.0  0.32349  0.65059  0.58026  1.0000
  H   H314      1.0  0.92425  0.96510  0.60493  1.0000
  C   C400      1.0  0.93896  0.00102  0.79599  1.0000
  H   H315      1.0  0.38545  0.04644  0.81203  1.0000
  C   C401      1.0  0.09791  0.85695  0.81299  1.0000
  C   C402      1.0  0.93465  0.96158  0.56561  1.0000
  H   H316      1.0  0.99005  0.93061  0.56784  1.0000
  C   C403      1.0  0.20789  0.83571  0.89854  1.0000
  C   C404      1.0  0.36645  0.60872  0.86319  1.0000
  C   C405      1.0  0.27195  0.83947  0.00519  1.0000
  S   S42       1.0  0.22888  0.75083  0.96180  1.0000
  C   C406      1.0  0.28302  0.83718  0.05013  1.0000
  C   C407      1.0  0.97899  0.71301  0.98778  1.0000
  H   H317      1.0  0.30549  0.77575  0.83423  1.0000
  H   H318      1.0  0.98981  0.03044  0.82271  1.0000
  C   C408      1.0  0.09874  0.59920  0.94535  1.0000
  H   H319      1.0  0.33202  0.69334  0.99178  1.0000
  C   C409      1.0  0.06974  0.86657  0.93068  1.0000
  H   H320      1.0  0.37316  0.93842  0.01661  1.0000
  H   H321      1.0  0.09502  0.72402  0.02841  1.0000
  S   S43       1.0  0.24502  0.66731  0.95247  1.0000
  H   H322      1.0  0.95301  0.77267  0.91185  1.0000
  C   C410      1.0  0.95327  0.87057  0.93374  1.0000
  C   C411      1.0  0.39738  0.61064  0.93443  1.0000
  S   S44       1.0  0.99673  0.90998  0.03802  1.0000
  C   C412      1.0  0.34276  0.81515  0.96425  1.0000
  C   C413      1.0  0.00569  0.60845  0.84273  1.0000
  S   S45       1.0  0.29973  0.93556  0.97522  1.0000
  C   C414      1.0  0.00349  0.68447  0.96903  1.0000
  S   S46       1.0  0.28862  0.91695  0.83780  1.0000
  C   C415      1.0  0.35410  0.81305  0.00900  1.0000
  C   C416      1.0  0.09643  0.95804  0.85668  1.0000
  Fe  Fe19      1.0  0.23455  0.95855  0.01403  1.0000
  C   C417      1.0  0.96266  0.84561  0.89629  1.0000
  C   C418      1.0  0.38837  0.71339  0.93569  1.0000
  H   H323      1.0  0.14077  0.97392  0.03095  1.0000
  S   S47       1.0  0.26561  0.01215  0.01658  1.0000
  H   H324      1.0  0.10249  0.58750  0.90933  1.0000
  C   C419      1.0  0.11940  0.95158  0.04514  1.0000
  H   H325      1.0  0.38558  0.80191  0.00932  1.0000
  C   C420      1.0  0.97588  0.72840  0.86772  1.0000
  H   H326      1.0  0.15740  0.93467  0.86160  1.0000
  C   C421      1.0  0.07660  0.97847  0.82884  1.0000
  Fe  Fe20      1.0  0.19105  0.70193  0.99249  1.0000
  S   S48       1.0  0.16299  0.78102  0.86397  1.0000
  S   S49       1.0  0.31571  0.00051  0.90150  1.0000
  C   C422      1.0  0.93330  0.65157  0.96878  1.0000
  C   C423      1.0  0.24123  0.03108  0.83145  1.0000
  H   H327      1.0  0.06279  0.04453  0.89267  1.0000
  C   C424      1.0  0.09938  0.86960  0.96135  1.0000
  H   H328      1.0  0.19578  0.82452  0.93421  1.0000
  H   H329      1.0  0.14659  0.78768  0.04169  1.0000
  C   C425      1.0  0.40921  0.94323  0.01116  1.0000
  C   C426      1.0  0.13495  0.59940  0.96766  1.0000
  H   H330      1.0  0.94155  0.59502  0.02608  1.0000
  C   C427      1.0  0.94648  0.57351  0.00041  1.0000
  H   H331      1.0  0.29315  0.82954  0.92748  1.0000
  H   H332      1.0  0.94794  0.71163  0.88709  1.0000
  C   C428      1.0  0.14190  0.95053  0.84008  1.0000
  C   C429      1.0  0.30181  0.82839  0.96229  1.0000
  H   H333      1.0  0.05680  0.99912  0.95310  1.0000
  H   H334      1.0  0.32691  0.59898  0.93644  1.0000
  H   H335      1.0  0.98613  0.98879  0.01745  1.0000
  C   C430      1.0  0.39616  0.68235  0.00618  1.0000
  H   H336      1.0  0.06508  0.96433  0.01406  1.0000
  H   H337      1.0  0.99663  0.73703  0.99424  1.0000
  S   S50       1.0  0.15071  0.69628  0.93607  1.0000
  H   H338      1.0  0.04616  0.77986  0.93644  1.0000
  P   P16       1.0  0.01868  0.82991  0.87482  1.0000
  C   C431      1.0  0.03241  0.62117  0.87419  1.0000
  H   H339      1.0  0.02339  0.63968  0.03623  1.0000
  S   S51       1.0  0.24695  0.71131  0.85557  1.0000
  C   C432      1.0  0.21454  0.58425  0.84143  1.0000
  C   C433      1.0  0.95172  0.02990  0.99469  1.0000
  H   H340      1.0  0.93542  0.81521  0.84396  1.0000
  C   C434      1.0  0.01459  0.78521  0.85620  1.0000
  C   C435      1.0  0.07336  0.64002  0.85463  1.0000
  Fe  Fe21      1.0  0.19272  0.74224  0.90183  1.0000
  C   C436      1.0  0.36855  0.69611  0.97912  1.0000
  S   S52       1.0  0.21278  0.96657  0.94494  1.0000
  H   H341      1.0  0.24008  0.84970  0.00372  1.0000
  C   C437      1.0  0.25231  0.88001  0.84630  1.0000
  H   H342      1.0  0.13152  0.84341  0.00782  1.0000
  Fe  Fe22      1.0  0.28053  0.94825  0.90660  1.0000
  H   H343      1.0  0.40142  0.96298  0.87264  1.0000
  H   H344      1.0  0.09630  0.78566  0.99193  1.0000
  S   S53       1.0  0.18794  0.62301  0.84574  1.0000
  H   H345      1.0  0.16612  0.58807  0.94880  1.0000
  H   H346      1.0  0.33731  0.60453  0.84799  1.0000
  C   C438      1.0  0.32446  0.82431  0.05234  1.0000
  H   H347      1.0  0.15961  0.61552  0.03071  1.0000
  C   C439      1.0  0.08843  0.80845  0.97564  1.0000
  C   C440      1.0  0.03176  0.04049  0.92089  1.0000
  H   H348      1.0  0.25187  0.59754  0.89561  1.0000
  H   H349      1.0  0.11560  0.89437  0.96730  1.0000
  C   C441      1.0  0.24507  0.57825  0.86953  1.0000
  C   C442      1.0  0.07652  0.94619  0.03567  1.0000
  Fe  Fe23      1.0  0.28038  0.71601  0.91809  1.0000
  S   S54       1.0  0.39738  0.00868  0.98512  1.0000
  C   C443      1.0  0.13123  0.61468  0.01382  1.0000
  H   H350      1.0  0.39256  0.60865  0.97354  1.0000
  H   H351      1.0  0.36537  0.80583  0.93112  1.0000
  C   C444      1.0  0.23443  0.86681  0.89296  1.0000
  H   H352      1.0  0.07661  0.94819  0.89130  1.0000
  C   C445      1.0  0.05959  0.80522  0.94408  1.0000
  C   C446      1.0  0.05002  0.83429  0.92133  1.0000
  C   C447      1.0  0.02839  0.01484  0.95521  1.0000
  H   H353      1.0  0.13468  0.03374  0.05554  1.0000
  C   C448      1.0  0.19663  0.81941  0.85790  1.0000
  H   H354      1.0  0.38827  0.90808  0.82990  1.0000
  H   H355      1.0  0.04020  0.68679  0.96119  1.0000
  Fe  Fe24      1.0  0.24927  0.01831  0.94439  1.0000
  H   H356      1.0  0.03767  0.55468  0.04211  1.0000
  C   C449      1.0  0.93171  0.71061  0.99826  1.0000
  C   C450      1.0  0.10769  0.04958  0.05236  1.0000
  C   C451      1.0  0.97910  0.57610  0.95561  1.0000
  H   H357      1.0  0.37744  0.81106  0.82297  1.0000
  H   H358      1.0  0.97938  0.88097  0.95080  1.0000
  C   C452      1.0  0.04887  0.91706  0.05338  1.0000
  H   H359      1.0  0.24228  0.87998  0.92443  1.0000
  H   H360      1.0  0.09402  0.65102  0.87813  1.0000
  C   C453      1.0  0.97868  0.76315  0.88135  1.0000
  H   H361      1.0  0.38075  0.66883  0.03956  1.0000
  C   C454      1.0  0.98855  0.00949  0.99206  1.0000
  H   H362      1.0  0.97315  0.59497  0.85710  1.0000
  C   C455      1.0  0.98065  0.65307  0.96146  1.0000
  C   C456      1.0  0.00943  0.71524  0.82975  1.0000
  S   S55       1.0  0.35534  0.73093  0.90048  1.0000
  H   H363      1.0  0.04139  0.98405  0.84262  1.0000
  H   H364      1.0  0.24364  0.00838  0.85134  1.0000
  P   P17       1.0  0.01261  0.61593  0.93944  1.0000
  C   C457      1.0  0.05444  0.62863  0.01634  1.0000
  C   C458      1.0  0.36042  0.60532  0.91354  1.0000
  C   C459      1.0  0.10835  0.84067  0.98426  1.0000
  S   S56       1.0  0.96534  0.80718  0.04452  1.0000
  H   H365      1.0  0.11546  0.84049  0.83149  1.0000
  H   H366      1.0  0.06313  0.88927  0.91326  1.0000
  C   C460      1.0  0.09071  0.62875  0.03846  1.0000
  Fe  Fe25      1.0  0.32956  0.98988  0.97353  1.0000
  Fe  Fe26      1.0  0.20731  0.66558  0.89330  1.0000
  C   C461      1.0  0.05871  0.61476  0.96894  1.0000
  H   H367      1.0  0.00745  0.68828  0.81953  1.0000
  C   C462      1.0  0.92817  0.83348  0.87403  1.0000
  C   C463      1.0  0.40954  0.61769  0.83338  1.0000
  C   C464      1.0  0.05038  0.85637  0.82530  1.0000
  H   H368      1.0  0.40367  0.56752  0.04917  1.0000
  C   C465      1.0  0.04846  0.77164  0.81856  1.0000
  C   C466      1.0  0.41815  0.04610  0.82067  1.0000
  H   H369      1.0  0.28640  0.81275  0.21581  1.0000
  C   C467      1.0  0.22814  0.73942  0.19324  1.0000
  H   H370      1.0  0.34790  0.64871  0.20151  1.0000
  C   C468      1.0  0.29308  0.78898  0.14385  1.0000
  C   C469      1.0  0.24359  0.76682  0.21918  1.0000
  H   H371      1.0  0.20403  0.78509  0.08846  1.0000
  C   C470      1.0  0.04903  0.72565  0.16919  1.0000
  C   C471      1.0  0.35428  0.89346  0.21228  1.0000
  C   C472      1.0  0.97076  0.66444  0.31128  1.0000
  H   H372      1.0  0.22026  0.68412  0.28279  1.0000
  C   C473      1.0  0.33979  0.65301  0.27997  1.0000
  H   H373      1.0  0.07319  0.89049  0.30116  1.0000
  C   C474      1.0  0.04022  0.73833  0.08891  1.0000
  H   H374      1.0  0.19059  0.83724  0.27866  1.0000
  C   C475      1.0  0.01330  0.95479  0.16114  1.0000
  H   H375      1.0  0.11011  0.70149  0.17109  1.0000
  C   C476      1.0  0.16703  0.02378  0.14666  1.0000
  C   C477      1.0  0.41106  0.79363  0.25982  1.0000
  H   H376      1.0  0.96262  0.99891  0.27090  1.0000
  H   H377      1.0  0.11407  0.60460  0.25824  1.0000
  H   H378      1.0  0.24666  0.93702  0.22744  1.0000
  C   C478      1.0  0.39703  0.59281  0.27113  1.0000
  C   C479      1.0  0.11420  0.76085  0.26036  1.0000
  H   H379      1.0  0.32322  0.89099  0.08709  1.0000
  H   H380      1.0  0.36678  0.77965  0.21239  1.0000
  H   H381      1.0  0.25925  0.84551  0.08312  1.0000
  C   C480      1.0  0.35199  0.86200  0.18747  1.0000
  Fe  Fe27      1.0  0.95620  0.86221  0.06938  1.0000
  C   C481      1.0  0.27743  0.76112  0.11819  1.0000
  C   C482      1.0  0.97106  0.72645  0.30782  1.0000
  C   C483      1.0  0.16163  0.80512  0.15508  1.0000
  H   H382      1.0  0.25174  0.88320  0.26946  1.0000
  C   C484      1.0  0.22238  0.88666  0.25540  1.0000
  C   C485      1.0  0.28218  0.04464  0.27836  1.0000
  H   H383      1.0  0.36005  0.83918  0.20342  1.0000
  C   C486      1.0  0.96350  0.86168  0.31360  1.0000
  C   C487      1.0  0.05909  0.00646  0.17148  1.0000
  H   H384      1.0  0.23023  0.76889  0.25825  1.0000
  C   C488      1.0  0.96205  0.00684  0.30820  1.0000
  H   H385      1.0  0.05677  0.94842  0.26007  1.0000
  C   C489      1.0  0.34526  0.92364  0.19205  1.0000
  H   H386      1.0  0.11828  0.88161  0.11368  1.0000
  H   H387      1.0  0.11592  0.75552  0.22218  1.0000
  H   H388      1.0  0.04196  0.87157  0.09642  1.0000
  C   C490      1.0  0.02265  0.94052  0.20203  1.0000
  C   C491      1.0  0.34549  0.75333  0.28058  1.0000
  C   C492      1.0  0.04476  0.87437  0.29511  1.0000
  H   H389      1.0  0.08825  0.00678  0.23406  1.0000
  H   H390      1.0  0.41315  0.70967  0.24476  1.0000
  H   H391      1.0  0.07083  0.80979  0.08127  1.0000
  S   S57       1.0  0.16190  0.69623  0.07311  1.0000
  H   H392      1.0  0.23286  0.71545  0.12254  1.0000
  C   C493      1.0  0.18271  0.92112  0.21165  1.0000
  C   C494      1.0  0.97031  0.83122  0.28598  1.0000
  H   H393      1.0  0.13137  0.96640  0.29128  1.0000
  S   S58       1.0  0.28754  0.00065  0.26445  1.0000
  P   P18       1.0  0.39584  0.63910  0.27786  1.0000
  H   H394      1.0  0.08766  0.64011  0.07460  1.0000
  H   H395      1.0  0.96879  0.74932  0.28794  1.0000
  H   H396      1.0  0.01883  0.79808  0.24271  1.0000
  H   H397      1.0  0.00919  0.91476  0.21303  1.0000
  C   C495      1.0  0.09636  0.80855  0.10176  1.0000
  H   H398      1.0  0.40785  0.04703  0.11103  1.0000
  C   C496      1.0  0.11275  0.73328  0.29131  1.0000
  C   C497      1.0  0.17143  0.79478  0.10601  1.0000
  H   H399      1.0  0.36471  0.74750  0.10412  1.0000
  C   C498      1.0  0.15015  0.86493  0.24128  1.0000
  C   C499      1.0  0.01417  0.82231  0.26281  1.0000
  S   S59       1.0  0.94166  0.85010  0.14866  1.0000
  C   C500      1.0  0.21424  0.02710  0.13861  1.0000
  H   H400      1.0  0.02190  0.04088  0.28797  1.0000
  C   C501      1.0  0.39462  0.76482  0.09772  1.0000
  C   C502      1.0  0.10779  0.71157  0.09739  1.0000
  P   P19       1.0  0.10815  0.83020  0.24127  1.0000
  C   C503      1.0  0.18764  0.86072  0.26059  1.0000
  C   C504      1.0  0.25372  0.67577  0.28174  1.0000
  C   C505      1.0  0.33399  0.92235  0.14697  1.0000
  H   H401      1.0  0.15071  0.99818  0.14971  1.0000
  C   C506      1.0  0.05171  0.84412  0.26642  1.0000
  C   C507      1.0  0.27575  0.79164  0.19472  1.0000
  C   C508      1.0  0.39145  0.80067  0.10099  1.0000
  C   C509      1.0  0.11870  0.81650  0.17817  1.0000
  C   C510      1.0  0.14812  0.89517  0.21637  1.0000
  S   S60       1.0  0.97354  0.75895  0.16831  1.0000
  H   H402      1.0  0.27198  0.66790  0.20374  1.0000
  C   C511      1.0  0.10624  0.89968  0.09239  1.0000
  H   H403      1.0  0.12044  0.89828  0.19935  1.0000
  H   H404      1.0  0.34707  0.94808  0.21123  1.0000
  C   C512      1.0  0.21971  0.91696  0.23140  1.0000
  H   H405      1.0  0.97014  0.63983  0.29256  1.0000
  C   C513      1.0  0.33930  0.86018  0.14281  1.0000
  C   C514      1.0  0.06337  0.89399  0.08245  1.0000
  H   H406      1.0  0.23330  0.00436  0.13708  1.0000
  P   P20       1.0  0.33698  0.81912  0.11096  1.0000
  H   H407      1.0  0.32752  0.94586  0.13097  1.0000
  C   C515      1.0  0.32581  0.65552  0.23638  1.0000
  H   H408      1.0  0.18743  0.80416  0.17517  1.0000
  C   C516      1.0  0.14208  0.05310  0.14819  1.0000
  H   H409      1.0  0.96360  0.69210  0.24881  1.0000
  H   H410      1.0  0.11403  0.70718  0.27677  1.0000
  C   C517      1.0  0.08269  0.55824  0.29394  1.0000
  C   C518      1.0  0.24510  0.73658  0.14279  1.0000
  H   H411      1.0  0.29017  0.75820  0.07896  1.0000
  C   C519      1.0  0.37395  0.77579  0.24741  1.0000
  C   C520      1.0  0.28290  0.66671  0.23735  1.0000
  C   C521      1.0  0.33114  0.89085  0.12233  1.0000
  S   S61       1.0  0.19821  0.57348  0.26805  1.0000
  H   H412      1.0  0.19150  0.01235  0.28880  1.0000
  H   H413      1.0  0.20274  0.72051  0.21209  1.0000
  Fe  Fe28      1.0  0.94455  0.79470  0.12445  1.0000
  H   H414      1.0  0.02396  0.99798  0.11364  1.0000
  C   C522      1.0  0.08616  0.81848  0.15103  1.0000
  C   C523      1.0  0.13885  0.79643  0.07941  1.0000
  C   C524      1.0  0.96781  0.69409  0.28590  1.0000
  H   H415      1.0  0.99280  0.93998  0.14056  1.0000
  C   C525      1.0  0.37450  0.57503  0.23905  1.0000
  H   H416      1.0  0.94174  0.81399  0.28338  1.0000
  C   C526      1.0  0.11227  0.79473  0.27907  1.0000
  C   C527      1.0  0.04961  0.95938  0.22829  1.0000
  H   H417      1.0  0.05320  0.82805  0.16709  1.0000
  H   H418      1.0  0.31583  0.74043  0.27180  1.0000
  H   H419      1.0  0.36295  0.89441  0.24730  1.0000
  C   C528      1.0  0.02403  0.73950  0.13982  1.0000
  C   C529      1.0  0.09066  0.71166  0.14806  1.0000
  H   H420      1.0  0.03688  0.72660  0.20848  1.0000
  H   H421      1.0  0.09683  0.55966  0.08873  1.0000
  H   H422      1.0  0.18153  0.94403  0.19133  1.0000
  H   H423      1.0  0.24541  0.05264  0.22418  1.0000
  C   C530      1.0  0.08616  0.59361  0.28623  1.0000
  C   C531      1.0  0.06746  0.99234  0.21334  1.0000
  C   C532      1.0  0.03134  0.98765  0.14578  1.0000
  S   S62       1.0  0.18997  0.93289  0.08033  1.0000
  P   P21       1.0  0.08153  0.04941  0.15393  1.0000
  H   H424      1.0  0.92725  0.61903  0.14133  1.0000
  H   H425      1.0  0.35281  0.58806  0.22133  1.0000
  H   H426      1.0  0.92640  0.60634  0.22659  1.0000
  C   C533      1.0  0.13461  0.92801  0.07275  1.0000
  C   C534      1.0  0.08213  0.72427  0.06760  1.0000
  H   H427      1.0  0.02102  0.74907  0.06624  1.0000
  H   H428      1.0  0.25953  0.83104  0.30951  1.0000
  H   H429      1.0  0.05910  0.64229  0.31008  1.0000
  H   H430      1.0  0.39492  0.93548  0.46899  1.0000
  C   C535      1.0  0.14238  0.91768  0.42526  1.0000
  Fe  Fe29      1.0  0.29767  0.97266  0.32890  1.0000
  C   C536      1.0  0.08755  0.04329  0.50342  1.0000
  H   H431      1.0  0.39529  0.56013  0.41877  1.0000
  S   S63       1.0  0.91905  0.85628  0.49848  1.0000
  H   H432      1.0  0.99555  0.90605  0.34140  1.0000
  C   C537      1.0  0.10628  0.77293  0.36010  1.0000
  C   C538      1.0  0.92109  0.96887  0.48543  1.0000
  C   C539      1.0  0.07882  0.88051  0.49650  1.0000
  C   C540      1.0  0.14361  0.92141  0.47430  1.0000
  C   C541      1.0  0.35517  0.74764  0.32537  1.0000
  H   H433      1.0  0.01397  0.92285  0.47782  1.0000
  H   H434      1.0  0.10305  0.77765  0.39884  1.0000
  P   P22       1.0  0.97973  0.62787  0.39179  1.0000
  H   H435      1.0  0.06018  0.60812  0.42363  1.0000
  H   H436      1.0  0.29018  0.84069  0.50079  1.0000
  C   C542      1.0  0.05472  0.61480  0.31548  1.0000
  C   C543      1.0  0.39348  0.63807  0.37750  1.0000
  C   C544      1.0  0.37370  0.69146  0.55395  1.0000
  C   C545      1.0  0.26060  0.81541  0.33996  1.0000
  H   H437      1.0  0.39894  0.76035  0.37283  1.0000
  C   C546      1.0  0.16159  0.01172  0.31889  1.0000
  C   C547      1.0  0.18960  0.57530  0.33178  1.0000
  C   C548      1.0  0.92817  0.99316  0.34688  1.0000
  H   H438      1.0  0.11053  0.78595  0.49159  1.0000
  C   C549      1.0  0.19484  0.85412  0.52897  1.0000
  Fe  Fe30      1.0  0.98200  0.82800  0.49041  1.0000
  C   C550      1.0  0.97190  0.94235  0.54472  1.0000
  C   C551      1.0  0.99936  0.63688  0.44674  1.0000
  C   C552      1.0  0.41492  0.85335  0.45480  1.0000
  H   H439      1.0  0.41801  0.83749  0.52610  1.0000
  Fe  Fe31      1.0  0.32049  0.90451  0.36345  1.0000
  C   C553      1.0  0.30366  0.84198  0.53298  1.0000
  C   C554      1.0  0.29512  0.56869  0.38444  1.0000
  C   C555      1.0  0.01855  0.60046  0.35160  1.0000
  C   C556      1.0  0.41335  0.65371  0.33252  1.0000
  H   H440      1.0  0.02738  0.74678  0.56181  1.0000
  C   C557      1.0  0.92734  0.00339  0.39531  1.0000
  S   S64       1.0  0.34010  0.85133  0.34006  1.0000
  H   H441      1.0  0.28298  0.59369  0.38038  1.0000
  H   H442      1.0  0.26632  0.75791  0.44742  1.0000
  S   S65       1.0  0.04015  0.84602  0.42931  1.0000
  C   C558      1.0  0.01557  0.56486  0.35949  1.0000
  C   C559      1.0  0.40630  0.64945  0.41995  1.0000
  H   H443      1.0  0.21999  0.86256  0.45162  1.0000
  H   H444      1.0  0.11159  0.90649  0.54789  1.0000
  C   C560      1.0  0.10830  0.80053  0.32914  1.0000
  H   H445      1.0  0.16440  0.82026  0.42837  1.0000
  C   C561      1.0  0.15772  0.03629  0.35680  1.0000
  C   C562      1.0  0.18472  0.60698  0.35668  1.0000
  C   C563      1.0  0.09082  0.00775  0.50728  1.0000
  H   H446      1.0  0.33273  0.73072  0.35158  1.0000
  C   C564      1.0  0.98512  0.93770  0.49410  1.0000
  C   C565      1.0  0.11096  0.90356  0.51001  1.0000
  C   C566      1.0  0.19592  0.84801  0.47962  1.0000
  H   H447      1.0  0.05398  0.00849  0.42593  1.0000
  H   H448      1.0  0.39016  0.63790  0.45486  1.0000
  H   H449      1.0  0.98674  0.70291  0.41654  1.0000
  C   C567      1.0  0.99408  0.04152  0.36542  1.0000
  C   C568      1.0  0.97785  0.72926  0.35496  1.0000
  H   H450      1.0  0.31904  0.66021  0.35883  1.0000
  H   H451      1.0  0.96017  0.03606  0.44134  1.0000
  H   H452      1.0  0.11205  0.99318  0.47812  1.0000
  C   C569      1.0  0.29600  0.82097  0.36312  1.0000
  S   S66       1.0  0.40791  0.00292  0.42748  1.0000
  H   H453      1.0  0.10783  0.71809  0.36536  1.0000
  C   C570      1.0  0.10879  0.73933  0.34119  1.0000
  C   C571      1.0  0.07916  0.87540  0.44718  1.0000
  C   C572      1.0  0.96002  0.95103  0.46452  1.0000
  C   C573      1.0  0.96033  0.02790  0.40425  1.0000
  S   S67       1.0  0.31312  0.92337  0.44057  1.0000
  H   H454      1.0  0.96827  0.67770  0.55778  1.0000
  S   S68       1.0  0.28832  0.99650  0.40361  1.0000
  H   H455      1.0  0.16566  0.93293  0.39786  1.0000
  C   C574      1.0  0.08437  0.00960  0.39636  1.0000
  H   H456      1.0  0.10599  0.82639  0.34442  1.0000
  H   H457      1.0  0.94246  0.66686  0.48216  1.0000
  H   H458      1.0  0.97008  0.94632  0.42546  1.0000
  S   S69       1.0  0.25565  0.67282  0.46393  1.0000
  C   C575      1.0  0.97361  0.65630  0.48533  1.0000
  C   C576      1.0  0.31831  0.81236  0.54916  1.0000
  S   S70       1.0  0.94713  0.77554  0.48852  1.0000
  C   C577      1.0  0.06601  0.99051  0.54883  1.0000
  C   C578      1.0  0.08857  0.98499  0.35859  1.0000
  S   S71       1.0  0.18691  0.94695  0.49121  1.0000
  H   H459      1.0  0.18291  0.62998  0.33711  1.0000
  C   C579      1.0  0.18672  0.57936  0.43182  1.0000
  S   S72       1.0  0.14739  0.67117  0.52128  1.0000
  C   C580      1.0  0.98784  0.66222  0.52849  1.0000
  Fe  Fe32      1.0  0.25086  0.94723  0.43113  1.0000
  C   C581      1.0  0.13291  0.81105  0.55142  1.0000
  C   C582      1.0  0.11054  0.89439  0.41160  1.0000
  H   H460      1.0  0.06201  0.96495  0.35966  1.0000
  H   H461      1.0  0.36766  0.61737  0.37988  1.0000
  H   H462      1.0  0.31956  0.04532  0.33369  1.0000
  H   H463      1.0  0.29556  0.57787  0.45956  1.0000
  S   S73       1.0  0.36329  0.95045  0.32977  1.0000
  H   H464      1.0  0.17331  0.03640  0.55148  1.0000
  H   H465      1.0  0.20422  0.03742  0.43476  1.0000
  C   C583      1.0  0.97605  0.66677  0.35942  1.0000
  C   C584      1.0  0.92510  0.60400  0.40661  1.0000
  H   H466      1.0  0.39477  0.87501  0.46847  1.0000
  S   S74       1.0  0.33658  0.71916  0.53909  1.0000
  C   C585      1.0  0.30160  0.55937  0.42946  1.0000
  H   H467      1.0  0.98132  0.75451  0.37157  1.0000
  H   H468      1.0  0.05485  0.86594  0.52410  1.0000
  C   C586      1.0  0.98052  0.69964  0.38062  1.0000
  C   C587      1.0  0.29779  0.80052  0.40230  1.0000
  C   C588      1.0  0.05286  0.62858  0.49601  1.0000
  C   C589      1.0  0.39258  0.76497  0.33759  1.0000
  S   S75       1.0  0.25576  0.92470  0.35608  1.0000
  S   S76       1.0  0.18669  0.73565  0.41323  1.0000
  H   H469      1.0  0.31563  0.78817  0.52968  1.0000
  Fe  Fe33      1.0  0.26900  0.69598  0.53311  1.0000
  C   C590      1.0  0.16486  0.82402  0.46636  1.0000
  C   C591      1.0  0.30629  0.87307  0.55840  1.0000
  H   H470      1.0  0.18110  0.63379  0.42530  1.0000
  H   H471      1.0  0.08359  0.61770  0.50006  1.0000
  C   C592      1.0  0.18352  0.60908  0.40666  1.0000
  C   C593      1.0  0.11957  0.03479  0.39663  1.0000
  C   C594      1.0  0.02751  0.64847  0.53381  1.0000
  H   H472      1.0  0.19945  0.78510  0.33815  1.0000
  C   C595      1.0  0.26435  0.77406  0.41779  1.0000
  C   C596      1.0  0.03923  0.62311  0.45247  1.0000
  S   S77       1.0  0.19148  0.58206  0.49239  1.0000
  Fe  Fe34      1.0  0.20489  0.63704  0.51265  1.0000
  H   H473      1.0  0.21869  0.87327  0.53797  1.0000
  H   H474      1.0  0.32558  0.80455  0.41982  1.0000
  H   H475      1.0  0.24428  0.68023  0.35961  1.0000
  C   C597      1.0  0.13401  0.80504  0.50213  1.0000
  C   C598      1.0  0.22902  0.76834  0.39434  1.0000
  Fe  Fe35      1.0  0.19889  0.70819  0.47654  1.0000
  H   H476      1.0  0.29441  0.89609  0.54633  1.0000
  S   S78       1.0  0.21549  0.73401  0.54215  1.0000
  H   H477      1.0  0.92944  0.86812  0.33227  1.0000
  Fe  Fe36      1.0  0.35137  0.97116  0.40650  1.0000
  H   H478      1.0  0.11037  0.89106  0.37349  1.0000
  C   C599      1.0  0.22711  0.78914  0.35563  1.0000
  C   C600      1.0  0.12744  0.98584  0.32010  1.0000
  C   C601      1.0  0.26726  0.67340  0.32519  1.0000
  H   H479      1.0  0.92256  0.59791  0.48350  1.0000
  H   H480      1.0  0.06787  0.96301  0.55101  1.0000
  C   C602      1.0  0.30986  0.66177  0.32449  1.0000
  C   C603      1.0  0.40947  0.55598  0.44947  1.0000
  H   H481      1.0  0.33376  0.57568  0.55930  1.0000
  C   C604      1.0  0.99524  0.03066  0.31763  1.0000
  C   C605      1.0  0.00075  0.88319  0.31835  1.0000
  H   H482      1.0  0.77958  0.27232  0.57565  1.0000
  H   H483      1.0  0.77296  0.22504  0.73822  1.0000
  C   C606      1.0  0.89464  0.28586  0.69430  1.0000
  C   C607      1.0  0.72224  0.35285  0.59220  1.0000
  S   S79       1.0  0.54268  0.19325  0.62767  1.0000
  Fe  Fe37      1.0  0.81130  0.12965  0.75132  1.0000
  C   C608      1.0  0.78098  0.22591  0.61558  1.0000
  C   C609      1.0  0.72588  0.36139  0.63951  1.0000
  C   C610      1.0  0.68533  0.44957  0.69613  1.0000
  H   H484      1.0  0.86983  0.52890  0.67089  1.0000
  S   S80       1.0  0.86055  0.38077  0.72029  1.0000
  Fe  Fe38      1.0  0.88145  0.17628  0.78733  1.0000
  H   H485      1.0  0.87010  0.07858  0.60067  1.0000
  C   C611      1.0  0.55880  0.10340  0.62604  1.0000
  C   C612      1.0  0.68950  0.49863  0.58105  1.0000
  S   S81       1.0  0.68222  0.32092  0.58209  1.0000
  H   H486      1.0  0.53128  0.48185  0.58424  1.0000
  S   S82       1.0  0.63265  0.24631  0.67201  1.0000
  C   C613      1.0  0.51716  0.55312  0.73060  1.0000
  H   H487      1.0  0.63896  0.53143  0.74091  1.0000
  H   H488      1.0  0.73603  0.45810  0.57528  1.0000
  C   C614      1.0  0.46399  0.49149  0.62611  1.0000
  H   H489      1.0  0.72605  0.52085  0.72974  1.0000
  S   S83       1.0  0.56085  0.29426  0.64135  1.0000
  H   H490      1.0  0.66486  0.14656  0.70979  1.0000
  H   H491      1.0  0.47232  0.28650  0.58208  1.0000
  C   C615      1.0  0.54617  0.06897  0.61822  1.0000
  H   H492      1.0  0.80341  0.52930  0.74178  1.0000
  H   H493      1.0  0.56043  0.15405  0.79666  1.0000
  H   H494      1.0  0.56845  0.54900  0.66314  1.0000
  C   C616      1.0  0.60886  0.38753  0.61420  1.0000
  S   S84       1.0  0.83326  0.43105  0.61606  1.0000
  H   H495      1.0  0.75167  0.13635  0.62175  1.0000
  C   C617      1.0  0.44944  0.33589  0.67789  1.0000
  H   H496      1.0  0.57744  0.14080  0.67660  1.0000
  H   H497      1.0  0.45505  0.16109  0.70733  1.0000
  Fe  Fe39      1.0  0.60501  0.26508  0.74887  1.0000
  C   C618      1.0  0.67198  0.16223  0.73968  1.0000
  H   H498      1.0  0.45330  0.22057  0.66247  1.0000
  C   C619      1.0  0.64203  0.55265  0.71625  1.0000
  Fe  Fe40      1.0  0.91105  0.12365  0.70507  1.0000
  Fe  Fe41      1.0  0.83917  0.42887  0.69375  1.0000
  H   H499      1.0  0.76916  0.28770  0.72876  1.0000
  C   C620      1.0  0.42478  0.38537  0.72935  1.0000
  C   C621      1.0  0.56177  0.38654  0.63039  1.0000
  Fe  Fe42      1.0  0.87134  0.10029  0.80976  1.0000
  S   S85       1.0  0.88621  0.46328  0.72695  1.0000
  C   C622      1.0  0.89657  0.30451  0.65238  1.0000
  C   C623      1.0  0.66202  0.42205  0.72409  1.0000
  C   C624      1.0  0.56753  0.11405  0.67073  1.0000
  H   H500      1.0  0.45341  0.11766  0.64240  1.0000
  C   C625      1.0  0.66128  0.47435  0.67980  1.0000
  H   H501      1.0  0.85866  0.52199  0.58690  1.0000
  C   C626      1.0  0.85368  0.10056  0.59195  1.0000
  H   H502      1.0  0.46981  0.31384  0.66953  1.0000
  H   H503      1.0  0.62906  0.37869  0.63756  1.0000
  S   S86       1.0  0.49042  0.35003  0.75327  1.0000
  C   C627      1.0  0.77483  0.23519  0.70254  1.0000
  H   H504      1.0  0.77981  0.18576  0.66762  1.0000
  C   C628      1.0  0.77560  0.28358  0.65121  1.0000
  H   H505      1.0  0.59671  0.39725  0.75658  1.0000
  C   C629      1.0  0.61377  0.47024  0.68975  1.0000
  H   H506      1.0  0.70532  0.23770  0.57404  1.0000
  C   C630      1.0  0.77883  0.21294  0.66202  1.0000
  H   H507      1.0  0.72205  0.45128  0.68728  1.0000
  H   H508      1.0  0.70360  0.34850  0.67046  1.0000
  H   H509      1.0  0.78858  0.08538  0.63862  1.0000
  H   H510      1.0  0.73264  0.48792  0.80564  1.0000
  C   C631      1.0  0.66497  0.54953  0.66672  1.0000
  C   C632      1.0  0.43395  0.44165  0.56587  1.0000
  C   C633      1.0  0.71757  0.17578  0.79765  1.0000
  C   C634      1.0  0.78571  0.51806  0.61067  1.0000
  C   C635      1.0  0.82955  0.52250  0.61787  1.0000
  C   C636      1.0  0.64529  0.18980  0.75828  1.0000
  C   C637      1.0  0.53559  0.39753  0.60020  1.0000
  S   S87       1.0  0.86596  0.16786  0.71393  1.0000
  C   C638      1.0  0.83591  0.52631  0.66513  1.0000
  C   C639      1.0  0.59057  0.44263  0.71759  1.0000
  C   C640      1.0  0.49403  0.19007  0.60511  1.0000
  Fe  Fe43      1.0  0.80391  0.38771  0.78646  1.0000
  H   H511      1.0  0.61718  0.19504  0.74321  1.0000
  C   C641      1.0  0.45412  0.20525  0.62962  1.0000
  H   H512      1.0  0.76460  0.38977  0.68322  1.0000
  S   S88       1.0  0.85538  0.08491  0.73839  1.0000
  H   H513      1.0  0.43686  0.24172  0.81041  1.0000
  H   H514      1.0  0.57082  0.09890  0.74199  1.0000
  S   S89       1.0  0.74402  0.12298  0.73254  1.0000
  C   C642      1.0  0.56374  0.09028  0.70766  1.0000
  H   H515      1.0  0.86225  0.27923  0.71929  1.0000
  C   C643      1.0  0.76047  0.38495  0.64677  1.0000
  Fe  Fe44      1.0  0.63204  0.30060  0.64940  1.0000
  Fe  Fe45      1.0  0.53947  0.30993  0.72027  1.0000
  Fe  Fe46      1.0  0.90220  0.41522  0.75933  1.0000
  H   H516      1.0  0.42686  0.40203  0.76021  1.0000
  C   C644      1.0  0.75465  0.52133  0.69820  1.0000
  C   C645      1.0  0.70891  0.15584  0.75849  1.0000
  S   S90       1.0  0.61086  0.32033  0.72689  1.0000
  H   H517      1.0  0.74542  0.17057  0.81293  1.0000
  H   H518      1.0  0.52624  0.53035  0.74614  1.0000
  Fe  Fe47      1.0  0.56018  0.24083  0.66764  1.0000
  H   H519      1.0  0.54567  0.37715  0.66646  1.0000
  H   H520      1.0  0.59472  0.48838  0.67601  1.0000
  C   C646      1.0  0.65516  0.21065  0.79603  1.0000
  C   C647      1.0  0.77901  0.26151  0.61064  1.0000
  H   H521      1.0  0.86559  0.31250  0.64501  1.0000
  H   H522      1.0  0.77498  0.31092  0.64718  1.0000
  S   S91       1.0  0.53260  0.25549  0.74601  1.0000
  C   C648      1.0  0.77288  0.27047  0.69723  1.0000
  S   S92       1.0  0.77908  0.43365  0.75742  1.0000
  H   H523      1.0  0.49910  0.39688  0.61414  1.0000
  C   C649      1.0  0.61468  0.41868  0.73504  1.0000
  C   C650      1.0  0.44818  0.47713  0.77975  1.0000
  C   C651      1.0  0.48956  0.15954  0.80137  1.0000
  H   H524      1.0  0.78179  0.51547  0.57374  1.0000
  Fe  Fe48      1.0  0.82703  0.46508  0.79271  1.0000
  H   H525      1.0  0.55393  0.43941  0.72537  1.0000
  H   H526      1.0  0.68073  0.40319  0.73715  1.0000
  C   C652      1.0  0.62995  0.39974  0.56782  1.0000
  C   C653      1.0  0.78980  0.40159  0.60705  1.0000
  C   C654      1.0  0.80781  0.10440  0.61333  1.0000
  H   H527      1.0  0.46955  0.46471  0.74833  1.0000
  H   H528      1.0  0.47552  0.51083  0.64948  1.0000
  C   C655      1.0  0.45252  0.35756  0.71759  1.0000
  P   P23       1.0  0.69075  0.50993  0.64342  1.0000
  H   H529      1.0  0.49078  0.14494  0.76800  1.0000
  H   H530      1.0  0.56179  0.12189  0.59753  1.0000
  C   C656      1.0  0.74791  0.51648  0.65098  1.0000
  C   C657      1.0  0.78698  0.13336  0.60354  1.0000
  C   C658      1.0  0.49539  0.47531  0.58885  1.0000
  C   C659      1.0  0.79845  0.52625  0.70518  1.0000
  H   H531      1.0  0.63909  0.53416  0.57546  1.0000
  H   H532      1.0  0.53956  0.06072  0.58346  1.0000
  C   C660      1.0  0.81195  0.15879  0.57214  1.0000
  C   C661      1.0  0.55184  0.05553  0.69984  1.0000
  H   H533      1.0  0.42182  0.29557  0.77574  1.0000
  C   C662      1.0  0.42933  0.11494  0.67757  1.0000
  C   C663      1.0  0.43022  0.13951  0.71459  1.0000
  H   H534      1.0  0.53415  0.35995  0.91826  1.0000
  C   C664      1.0  0.72829  0.49863  0.03997  1.0000
  H   H535      1.0  0.55404  0.28381  0.88473  1.0000
  C   C665      1.0  0.77894  0.06048  0.87058  1.0000
  C   C666      1.0  0.59123  0.12636  0.93471  1.0000
  H   H536      1.0  0.87822  0.42829  0.02436  1.0000
  S   S93       1.0  0.89869  0.22598  0.82310  1.0000
  C   C667      1.0  0.69650  0.47471  0.02698  1.0000
  H   H537      1.0  0.81760  0.11916  0.95705  1.0000
  C   C668      1.0  0.68097  0.52278  0.83685  1.0000
  C   C669      1.0  0.83692  0.38106  0.02916  1.0000
  C   C670      1.0  0.51097  0.38037  0.92185  1.0000
  C   C671      1.0  0.63811  0.12967  0.93125  1.0000
  C   C672      1.0  0.51329  0.40789  0.95433  1.0000
  H   H538      1.0  0.85646  0.34412  0.81817  1.0000
  H   H539      1.0  0.79959  0.22199  0.91814  1.0000
  C   C673      1.0  0.65177  0.10537  0.84912  1.0000
  C   C674      1.0  0.45292  0.43435  0.92884  1.0000
  C   C675      1.0  0.62540  0.20880  0.95413  1.0000
  C   C676      1.0  0.70033  0.29481  0.93803  1.0000
  H   H540      1.0  0.80324  0.22104  0.82279  1.0000
  C   C677      1.0  0.81373  0.17158  0.93699  1.0000
  C   C678      1.0  0.48341  0.52079  0.94144  1.0000
  C   C679      1.0  0.72433  0.51014  0.82894  1.0000
  S   S94       1.0  0.81329  0.51447  0.83606  1.0000
  C   C680      1.0  0.63267  0.19028  0.99315  1.0000
  H   H541      1.0  0.46589  0.05735  0.91724  1.0000
  H   H542      1.0  0.58610  0.28141  0.01542  1.0000
  H   H543      1.0  0.90801  0.42354  0.93415  1.0000
  C   C681      1.0  0.71938  0.15823  0.96299  1.0000
  C   C682      1.0  0.67465  0.44911  0.05965  1.0000
  C   C683      1.0  0.43852  0.50759  0.95910  1.0000
  C   C684      1.0  0.82190  0.35305  0.00346  1.0000
  C   C685      1.0  0.50052  0.28254  0.95098  1.0000
  C   C686      1.0  0.81053  0.05542  0.89774  1.0000
  C   C687      1.0  0.44891  0.40556  0.89865  1.0000
  C   C688      1.0  0.44211  0.29113  0.89058  1.0000
  H   H544      1.0  0.55092  0.46720  0.04687  1.0000
  H   H545      1.0  0.48748  0.45618  0.98241  1.0000
  C   C689      1.0  0.48936  0.19674  0.88786  1.0000
  H   H546      1.0  0.83888  0.18722  0.03453  1.0000
  C   C690      1.0  0.48869  0.28943  0.87051  1.0000
  H   H547      1.0  0.50240  0.29293  0.83178  1.0000
  H   H548      1.0  0.88193  0.37417  0.88840  1.0000
  C   C691      1.0  0.85486  0.23780  0.00419  1.0000
  H   H549      1.0  0.68902  0.47602  0.99158  1.0000
  C   C692      1.0  0.86383  0.05605  0.05100  1.0000
  H   H550      1.0  0.42064  0.29567  0.86646  1.0000
  H   H551      1.0  0.78985  0.07051  0.83416  1.0000
  H   H552      1.0  0.47979  0.49625  0.04974  1.0000
  P   P24       1.0  0.65862  0.14960  0.98090  1.0000
  S   S95       1.0  0.82283  0.14205  0.82528  1.0000
  H   H553      1.0  0.52295  0.27963  0.97471  1.0000
  H   H554      1.0  0.66461  0.32747  0.90230  1.0000
  H   H555      1.0  0.53874  0.11037  0.89830  1.0000
  C   C693      1.0  0.60842  0.24141  0.96221  1.0000
  H   H556      1.0  0.65626  0.51022  0.81940  1.0000
  C   C694      1.0  0.42436  0.28862  0.94123  1.0000
  H   H557      1.0  0.56743  0.13475  0.96757  1.0000
  C   C695      1.0  0.60448  0.23723  0.04847  1.0000
  C   C696      1.0  0.49949  0.55034  0.96281  1.0000
  C   C697      1.0  0.44944  0.17391  0.82777  1.0000
  H   H558      1.0  0.53807  0.40858  0.97624  1.0000
  C   C698      1.0  0.67010  0.55210  0.86634  1.0000
  C   C699      1.0  0.57487  0.11263  0.89555  1.0000
  H   H559      1.0  0.86229  0.29011  0.98110  1.0000
  C   C700      1.0  0.44956  0.19215  0.87157  1.0000
  H   H560      1.0  0.56068  0.18792  0.87218  1.0000
  C   C701      1.0  0.61731  0.09241  0.03587  1.0000
  C   C702      1.0  0.66829  0.11926  0.88805  1.0000
  H   H561      1.0  0.48942  0.21119  0.92127  1.0000
  H   H562      1.0  0.59299  0.09209  0.82192  1.0000
  S   S96       1.0  0.86829  0.06707  0.87387  1.0000
  C   C703      1.0  0.84026  0.27109  0.00375  1.0000
  H   H563      1.0  0.42402  0.40411  0.87695  1.0000
  C   C704      1.0  0.59855  0.25583  0.00926  1.0000
  H   H564      1.0  0.90438  0.49138  0.98946  1.0000
  H   H565      1.0  0.82552  0.33042  0.93149  1.0000
  H   H566      1.0  0.60402  0.25580  0.93167  1.0000
  C   C705      1.0  0.78518  0.19712  0.93223  1.0000
  C   C706      1.0  0.72592  0.29297  0.97262  1.0000
  H   H567      1.0  0.88722  0.23113  0.98110  1.0000
  H   H568      1.0  0.50608  0.50830  0.91102  1.0000
  H   H569      1.0  0.74514  0.51832  0.01458  1.0000
  P   P25       1.0  0.77792  0.32241  0.03417  1.0000
  C   C707      1.0  0.82745  0.21289  0.03402  1.0000
  C   C708      1.0  0.52940  0.18337  0.86050  1.0000
  C   C709      1.0  0.74839  0.13258  0.96735  1.0000
  C   C710      1.0  0.87430  0.29205  0.82261  1.0000
  C   C711      1.0  0.79541  0.13930  0.95454  1.0000
  H   H570      1.0  0.71702  0.21058  0.93998  1.0000
  H   H571      1.0  0.47761  0.35855  0.86783  1.0000
  H   H572      1.0  0.73976  0.26875  0.97667  1.0000
  C   C712      1.0  0.83807  0.35098  0.95242  1.0000
  C   C713      1.0  0.78480  0.22085  0.06230  1.0000
  C   C714      1.0  0.62168  0.20459  0.04052  1.0000
  H   H573      1.0  0.67997  0.37977  0.94962  1.0000
  C   C715      1.0  0.68321  0.32590  0.93022  1.0000
  S   S97       1.0  0.84659  0.41948  0.82734  1.0000
  H   H574      1.0  0.42215  0.39492  0.05216  1.0000
  H   H575      1.0  0.72815  0.37772  0.00697  1.0000
  C   C716      1.0  0.51791  0.28492  0.90055  1.0000
  C   C717      1.0  0.69214  0.35536  0.95658  1.0000
  C   C718      1.0  0.75698  0.52690  0.85013  1.0000
  C   C719      1.0  0.45406  0.28455  0.97123  1.0000
  C   C720      1.0  0.60524  0.10230  0.85264  1.0000
  H   H576      1.0  0.91703  0.31346  0.90704  1.0000
  C   C721      1.0  0.86968  0.37597  0.92777  1.0000
  C   C722      1.0  0.48452  0.43491  0.95769  1.0000
  H   H577      1.0  0.70459  0.12196  0.88395  1.0000
  C   C723      1.0  0.73564  0.32260  0.99899  1.0000
  S   S98       1.0  0.63494  0.41911  0.04355  1.0000
  H   H578      1.0  0.60214  0.08495  0.00601  1.0000
  H   H579      1.0  0.73469  0.10725  0.98007  1.0000
  H   H580      1.0  0.69507  0.27245  0.91582  1.0000
  C   C724      1.0  0.79760  0.27941  0.03251  1.0000
  C   C725      1.0  0.71884  0.35390  0.99014  1.0000
  H   H581      1.0  0.63396  0.19852  0.91710  1.0000
  H   H582      1.0  0.85005  0.17675  0.92583  1.0000
  H   H583      1.0  0.90543  0.13073  0.96702  1.0000
  H   H584      1.0  0.90942  0.29940  0.82103  1.0000
  C   C726      1.0  0.45077  0.46929  0.82687  1.0000
  C   C727      1.0  0.47885  0.37932  0.89393  1.0000
  C   C728      1.0  0.88455  0.08851  0.05782  1.0000
  C   C729      1.0  0.86769  0.40645  0.00419  1.0000
  C   C730      1.0  0.76975  0.25387  0.06133  1.0000
  C   C731      1.0  0.73821  0.19049  0.94485  1.0000
  H   H585      1.0  0.69764  0.21875  0.84647  1.0000
  C   C732      1.0  0.88439  0.40378  0.95356  1.0000
  C   C733      1.0  0.64571  0.12246  0.03396  1.0000
  H   H586      1.0  0.89343  0.54153  0.04633  1.0000
  H   H587      1.0  0.47550  0.45164  0.83078  1.0000
  H   H588      1.0  0.44138  0.28369  0.01049  1.0000
  C   C734      1.0  0.85968  0.25726  0.82332  1.0000
  H   H589      1.0  0.42759  0.35142  0.98619  1.0000
  C   C735      1.0  0.84437  0.31743  0.82052  1.0000
  H   H590      1.0  0.41909  0.20343  0.89266  1.0000
  C   C736      1.0  0.81468  0.24789  0.82280  1.0000
  H   H591      1.0  0.74957  0.26636  0.82168  1.0000
  C   C737      1.0  0.78429  0.27343  0.82238  1.0000
  C   C738      1.0  0.79927  0.30821  0.82053  1.0000
  C   C739      1.0  0.42098  0.48362  0.86783  1.0000
  H   H592      1.0  0.70848  0.05644  0.86956  1.0000
  S   S99       1.0  0.76246  0.33988  0.81519  1.0000
  S   S100      1.0  0.62552  0.24757  0.81472  1.0000
  H   H593      1.0  0.67530  0.09725  0.81597  1.0000
  C   C740      1.0  0.52933  0.16444  0.81766  1.0000
  C   C741      1.0  0.69031  0.20294  0.81687  1.0000
  C   C742      1.0  0.43483  0.41784  0.22168  1.0000
  C   C743      1.0  0.66672  0.13004  0.07246  1.0000
  H   H594      1.0  0.79079  0.13534  0.08938  1.0000
  S   S101      1.0  0.84831  0.20755  0.18145  1.0000
  C   C744      1.0  0.85920  0.30191  0.25813  1.0000
  H   H595      1.0  0.55960  0.53682  0.29048  1.0000
  H   H596      1.0  0.72397  0.46971  0.15297  1.0000
  C   C745      1.0  0.47206  0.10189  0.16669  1.0000
  C   C746      1.0  0.87843  0.32308  0.17538  1.0000
  P   P26       1.0  0.58757  0.53667  0.18220  1.0000
  H   H597      1.0  0.49446  0.19679  0.19441  1.0000
  C   C747      1.0  0.69913  0.06770  0.27483  1.0000
  H   H598      1.0  0.67179  0.51375  0.20340  1.0000
  C   C748      1.0  0.85043  0.33543  0.27604  1.0000
  Fe  Fe49      1.0  0.81652  0.49252  0.26055  1.0000
  S   S102      1.0  0.86784  0.38794  0.15060  1.0000
  H   H599      1.0  0.68963  0.15263  0.07140  1.0000
  H   H600      1.0  0.48856  0.42928  0.15791  1.0000
  S   S103      1.0  0.77911  0.52618  0.10144  1.0000
  H   H601      1.0  0.62415  0.54710  0.07480  1.0000
  C   C749      1.0  0.66928  0.26754  0.20950  1.0000
  S   S104      1.0  0.88010  0.48342  0.12459  1.0000
  Fe  Fe50      1.0  0.60183  0.38008  0.10055  1.0000
  C   C750      1.0  0.58462  0.10973  0.23836  1.0000
  H   H602      1.0  0.78012  0.31958  0.20828  1.0000
  C   C751      1.0  0.55089  0.52200  0.14345  1.0000
  S   S105      1.0  0.46905  0.39568  0.25031  1.0000
  C   C752      1.0  0.71851  0.37301  0.16185  1.0000
  C   C753      1.0  0.64363  0.49607  0.21939  1.0000
  H   H603      1.0  0.71725  0.27816  0.25343  1.0000
  C   C754      1.0  0.77772  0.32047  0.13285  1.0000
  Fe  Fe51      1.0  0.79481  0.16601  0.20793  1.0000
  S   S106      1.0  0.85072  0.26718  0.29837  1.0000
  C   C755      1.0  0.56465  0.47595  0.23366  1.0000
  H   H604      1.0  0.45214  0.53906  0.11502  1.0000
  S   S107      1.0  0.78589  0.46154  0.20697  1.0000
  S   S108      1.0  0.61439  0.32359  0.09622  1.0000
  H   H605      1.0  0.60325  0.19482  0.26218  1.0000
  H   H606      1.0  0.59581  0.48340  0.10637  1.0000
  H   H607      1.0  0.66629  0.42914  0.13108  1.0000
  H   H608      1.0  0.88940  0.31814  0.13645  1.0000
  H   H609      1.0  0.75204  0.22255  0.23532  1.0000
  Fe  Fe52      1.0  0.53836  0.31529  0.11244  1.0000
  C   C756      1.0  0.72872  0.36137  0.11312  1.0000
  Fe  Fe53      1.0  0.84767  0.13754  0.27470  1.0000
  C   C757      1.0  0.70478  0.25967  0.22977  1.0000
  H   H610      1.0  0.69596  0.39349  0.17361  1.0000
  C   C758      1.0  0.53801  0.10896  0.24195  1.0000
  H   H611      1.0  0.73620  0.52045  0.27313  1.0000
  S   S109      1.0  0.90450  0.17771  0.25471  1.0000
  H   H612      1.0  0.51808  0.27381  0.29308  1.0000
  H   H613      1.0  0.52064  0.19347  0.27124  1.0000
  C   C759      1.0  0.46061  0.07963  0.13111  1.0000
  C   C760      1.0  0.87426  0.29616  0.20788  1.0000
  C   C761      1.0  0.61026  0.07028  0.07535  1.0000
  C   C762      1.0  0.75878  0.33503  0.09802  1.0000
  C   C763      1.0  0.63126  0.07800  0.11342  1.0000
  C   C764      1.0  0.68422  0.44790  0.10532  1.0000
  C   C765      1.0  0.56464  0.49593  0.10844  1.0000
  H   H614      1.0  0.62301  0.42293  0.28575  1.0000
  H   H615      1.0  0.60262  0.08636  0.23010  1.0000
  Fe  Fe54      1.0  0.85486  0.44157  0.17878  1.0000
  C   C766      1.0  0.71679  0.47111  0.11777  1.0000
  S   S110      1.0  0.52697  0.37129  0.11046  1.0000
  C   C767      1.0  0.61639  0.44485  0.26653  1.0000
  H   H616      1.0  0.62670  0.06036  0.14329  1.0000
  P   P27       1.0  0.45432  0.13765  0.25648  1.0000
  H   H617      1.0  0.52704  0.33759  0.29178  1.0000
  C   C768      1.0  0.44006  0.10817  0.21088  1.0000
  S   S111      1.0  0.64413  0.30676  0.22596  1.0000
  C   C769      1.0  0.48410  0.52765  0.11264  1.0000
  H   H618      1.0  0.53071  0.47819  0.22897  1.0000
  C   C770      1.0  0.73715  0.35808  0.19600  1.0000
  C   C771      1.0  0.53933  0.48687  0.07442  1.0000
  C   C772      1.0  0.51458  0.13927  0.25213  1.0000
  H   H619      1.0  0.68560  0.46543  0.25021  1.0000
  C   C773      1.0  0.65349  0.24356  0.17858  1.0000
  C   C774      1.0  0.45291  0.43074  0.17491  1.0000
  H   H620      1.0  0.80223  0.30104  0.12264  1.0000
  S   S112      1.0  0.52918  0.31511  0.19333  1.0000
  C   C775      1.0  0.72456  0.22806  0.21945  1.0000
  C   C776      1.0  0.43343  0.17843  0.24681  1.0000
  C   C777      1.0  0.58489  0.17080  0.25682  1.0000
  C   C778      1.0  0.57276  0.44884  0.26095  1.0000
  C   C779      1.0  0.60815  0.14071  0.24510  1.0000
  C   C780      1.0  0.81119  0.11332  0.07857  1.0000
  H   H621      1.0  0.88304  0.27100  0.19388  1.0000
  H   H622      1.0  0.71512  0.09179  0.28421  1.0000
  S   S113      1.0  0.73236  0.16354  0.17880  1.0000
  C   C781      1.0  0.85378  0.36251  0.24339  1.0000
  H   H623      1.0  0.66009  0.19263  0.14591  1.0000
  C   C782      1.0  0.86709  0.35608  0.19297  1.0000
  Fe  Fe55      1.0  0.89885  0.16772  0.17808  1.0000
  C   C783      1.0  0.53812  0.17003  0.26115  1.0000
  H   H624      1.0  0.59558  0.24817  0.08509  1.0000
  H   H625      1.0  0.46599  0.25322  0.18554  1.0000
  Fe  Fe56      1.0  0.90302  0.51233  0.18464  1.0000
  C   C784      1.0  0.79023  0.08098  0.07320  1.0000
  S   S114      1.0  0.84495  0.12516  0.19748  1.0000
  H   H626      1.0  0.82428  0.38395  0.06833  1.0000
  S   S115      1.0  0.88331  0.46866  0.23635  1.0000
  H   H627      1.0  0.73663  0.25973  0.08378  1.0000
  C   C785      1.0  0.76608  0.33143  0.18164  1.0000
  C   C786      1.0  0.60008  0.49981  0.21261  1.0000
  Fe  Fe57      1.0  0.85022  0.21510  0.26011  1.0000
  C   C787      1.0  0.50967  0.53704  0.14636  1.0000
  H   H628      1.0  0.68131  0.17347  0.29758  1.0000
  Fe  Fe58      1.0  0.60379  0.32744  0.17779  1.0000
  H   H629      1.0  0.52021  0.08469  0.23680  1.0000
  H   H630      1.0  0.62583  0.24952  0.16311  1.0000
  H   H631      1.0  0.48550  0.07464  0.09729  1.0000
  Fe  Fe59      1.0  0.81269  0.50523  0.15581  1.0000
  H   H632      1.0  0.84544  0.38813  0.25705  1.0000
  S   S116      1.0  0.83776  0.53795  0.21179  1.0000
  H   H633      1.0  0.43843  0.45408  0.11299  1.0000
  H   H634      1.0  0.64444  0.14135  0.24123  1.0000
  S   S117      1.0  0.59643  0.38441  0.18117  1.0000
  C   C788      1.0  0.67286  0.21146  0.16891  1.0000
  C   C789      1.0  0.70841  0.20372  0.18950  1.0000
  H   H635      1.0  0.67591  0.11381  0.14141  1.0000
  S   S118      1.0  0.49630  0.27450  0.08277  1.0000
  C   C790      1.0  0.49956  0.50326  0.07593  1.0000
  C   C791      1.0  0.42711  0.31145  0.13585  1.0000
  Fe  Fe60      1.0  0.52240  0.37169  0.19103  1.0000
  H   H636      1.0  0.72856  0.36673  0.23377  1.0000
  C   C792      1.0  0.65171  0.46858  0.24606  1.0000
  H   H637      1.0  0.50576  0.11439  0.15930  1.0000
  S   S119      1.0  0.79337  0.17540  0.28706  1.0000
  C   C793      1.0  0.65922  0.10799  0.11214  1.0000
  H   H638      1.0  0.54544  0.43025  0.27644  1.0000
  C   C794      1.0  0.46074  0.20253  0.21501  1.0000
  C   C795      1.0  0.43067  0.53979  0.28298  1.0000
  C   C796      1.0  0.73888  0.49659  0.08529  1.0000
  C   C797      1.0  0.44453  0.23451  0.20949  1.0000
  H   H639      1.0  0.45258  0.33064  0.14035  1.0000
  C   C798      1.0  0.43900  0.28103  0.10965  1.0000
  C   C799      1.0  0.42493  0.44575  0.14997  1.0000
  H   H640      1.0  0.62648  0.19092  0.07131  1.0000
  C   C800      1.0  0.72302  0.53327  0.30779  1.0000
  C   C801      1.0  0.85828  0.11702  0.07133  1.0000
  H   H641      1.0  0.71368  0.37348  0.08769  1.0000
  H   H642      1.0  0.45250  0.52606  0.29980  1.0000
  H   H643      1.0  0.87435  0.14186  0.07737  1.0000
  C   C802      1.0  0.54429  0.32330  0.31329  1.0000
  C   C803      1.0  0.65385  0.05866  0.29782  1.0000
  H   H644      1.0  0.75366  0.07801  0.07935  1.0000
  H   H645      1.0  0.76336  0.20149  0.08518  1.0000
  H   H646      1.0  0.81132  0.54813  0.43579  1.0000
  C   C804      1.0  0.80593  0.21572  0.46449  1.0000
  S   S120      1.0  0.85360  0.09317  0.32051  1.0000
  H   H647      1.0  0.88687  0.26951  0.39464  1.0000
  C   C805      1.0  0.67453  0.14573  0.53082  1.0000
  H   H648      1.0  0.57430  0.06473  0.47982  1.0000
  C   C806      1.0  0.66144  0.51485  0.55701  1.0000
  H   H649      1.0  0.86221  0.49087  0.40029  1.0000
  H   H650      1.0  0.45694  0.14989  0.51205  1.0000
  H   H651      1.0  0.61523  0.33675  0.38861  1.0000
  C   C807      1.0  0.89411  0.36756  0.52327  1.0000
  C   C808      1.0  0.56946  0.50681  0.42444  1.0000
  H   H652      1.0  0.66036  0.27016  0.48980  1.0000
  C   C809      1.0  0.65104  0.15327  0.36914  1.0000
  H   H653      1.0  0.64146  0.51946  0.48934  1.0000
  H   H654      1.0  0.64016  0.44729  0.36334  1.0000
  H   H655      1.0  0.79228  0.31000  0.41280  1.0000
  C   C810      1.0  0.58907  0.43826  0.43035  1.0000
  C   C811      1.0  0.57253  0.29886  0.49735  1.0000
  C   C812      1.0  0.69734  0.21191  0.56196  1.0000
  C   C813      1.0  0.60317  0.49228  0.38804  1.0000
  C   C814      1.0  0.57228  0.34091  0.33953  1.0000
  C   C815      1.0  0.85682  0.24091  0.51170  1.0000
  C   C816      1.0  0.72984  0.09719  0.41302  1.0000
  C   C817      1.0  0.81201  0.06808  0.48411  1.0000
  C   C818      1.0  0.49348  0.38952  0.43965  1.0000
  H   H656      1.0  0.62107  0.50728  0.35694  1.0000
  C   C819      1.0  0.83063  0.23373  0.42353  1.0000
  H   H657      1.0  0.42980  0.31491  0.43504  1.0000
  H   H658      1.0  0.55680  0.24128  0.34302  1.0000
  H   H659      1.0  0.61982  0.14095  0.44397  1.0000
  C   C820      1.0  0.66214  0.50624  0.50829  1.0000
  H   H660      1.0  0.47170  0.36159  0.38142  1.0000
  H   H661      1.0  0.63530  0.07625  0.32460  1.0000
  H   H662      1.0  0.42608  0.31762  0.52374  1.0000
  H   H663      1.0  0.73876  0.54126  0.42281  1.0000
  H   H664      1.0  0.59591  0.19989  0.46696  1.0000
  C   C821      1.0  0.80101  0.08154  0.35935  1.0000
  C   C822      1.0  0.53446  0.09351  0.44363  1.0000
  C   C823      1.0  0.47101  0.36224  0.42003  1.0000
  C   C824      1.0  0.53000  0.07213  0.36333  1.0000
  C   C825      1.0  0.49491  0.25427  0.51862  1.0000
  H   H665      1.0  0.86870  0.35526  0.55260  1.0000
  C   C826      1.0  0.55509  0.45258  0.46731  1.0000
  H   H666      1.0  0.52551  0.15804  0.54416  1.0000
  C   C827      1.0  0.56188  0.06687  0.44731  1.0000
  C   C828      1.0  0.72955  0.18683  0.55378  1.0000
  H   H667      1.0  0.76536  0.31276  0.33701  1.0000
  C   C829      1.0  0.72739  0.29083  0.45638  1.0000
  H   H668      1.0  0.66337  0.12785  0.36001  1.0000
  C   C830      1.0  0.56954  0.26976  0.46739  1.0000
  C   C831      1.0  0.89124  0.36285  0.47484  1.0000
  C   C832      1.0  0.88149  0.25888  0.47057  1.0000
  C   C833      1.0  0.69719  0.29460  0.37099  1.0000
  H   H669      1.0  0.84007  0.34036  0.31496  1.0000
  C   C834      1.0  0.75157  0.36939  0.55227  1.0000
  H   H670      1.0  0.62181  0.42093  0.50246  1.0000
  H   H671      1.0  0.52580  0.22645  0.45353  1.0000
  H   H672      1.0  0.70716  0.11673  0.42990  1.0000
  H   H673      1.0  0.74860  0.36296  0.51558  1.0000
  H   H674      1.0  0.73906  0.28918  0.48948  1.0000
  C   C835      1.0  0.71854  0.06259  0.42468  1.0000
  H   H675      1.0  0.86374  0.34660  0.46659  1.0000
  C   C836      1.0  0.71644  0.46358  0.50800  1.0000
  H   H676      1.0  0.49751  0.11689  0.39863  1.0000
  H   H677      1.0  0.78033  0.13350  0.37267  1.0000
  H   H678      1.0  0.82033  0.23098  0.38940  1.0000
  C   C837      1.0  0.49330  0.39039  0.48960  1.0000
  C   C838      1.0  0.52993  0.24802  0.47755  1.0000
  C   C839      1.0  0.44543  0.33740  0.50005  1.0000
  C   C840      1.0  0.64618  0.21199  0.34628  1.0000
  H   H679      1.0  0.87856  0.17418  0.52746  1.0000
  H   H680      1.0  0.43884  0.17592  0.34910  1.0000
  C   C841      1.0  0.44831  0.54660  0.52760  1.0000
  C   C842      1.0  0.87879  0.12567  0.56068  1.0000
  C   C843      1.0  0.91432  0.49871  0.33425  1.0000
  C   C844      1.0  0.78484  0.39416  0.55976  1.0000
  C   C845      1.0  0.58952  0.28663  0.36874  1.0000
  C   C846      1.0  0.54538  0.48706  0.46397  1.0000
  H   H681      1.0  0.86737  0.24385  0.54565  1.0000
  S   S121      1.0  0.78656  0.50137  0.34078  1.0000
  C   C847      1.0  0.61254  0.19408  0.42932  1.0000
  H   H682      1.0  0.59623  0.41144  0.43126  1.0000
  H   H683      1.0  0.66557  0.11998  0.51912  1.0000
  C   C848      1.0  0.75723  0.30275  0.41340  1.0000
  C   C849      1.0  0.85814  0.15475  0.55086  1.0000
  C   C850      1.0  0.74188  0.52849  0.34729  1.0000
  H   H684      1.0  0.69144  0.47488  0.44550  1.0000
  C   C851      1.0  0.53722  0.30514  0.53809  1.0000
  C   C852      1.0  0.86822  0.25542  0.42655  1.0000
  C   C853      1.0  0.66098  0.17890  0.33402  1.0000
  H   H685      1.0  0.46454  0.23737  0.52650  1.0000
  C   C854      1.0  0.59454  0.32270  0.36750  1.0000
  H   H686      1.0  0.52536  0.11197  0.47342  1.0000
  C   C855      1.0  0.72450  0.54506  0.39212  1.0000
  C   C856      1.0  0.64235  0.17060  0.54037  1.0000
  C   C857      1.0  0.44720  0.33607  0.45018  1.0000
  C   C858      1.0  0.62196  0.21986  0.39402  1.0000
  C   C859      1.0  0.68253  0.28042  0.45658  1.0000
  H   H687      1.0  0.66654  0.40023  0.55540  1.0000
  H   H688      1.0  0.51880  0.49863  0.49115  1.0000
  C   C860      1.0  0.61346  0.45823  0.39134  1.0000
  C   C861      1.0  0.69011  0.48096  0.48360  1.0000
  H   H689      1.0  0.77690  0.19913  0.46111  1.0000
  C   C862      1.0  0.89567  0.48424  0.37982  1.0000
  C   C863      1.0  0.49481  0.16990  0.56302  1.0000
  C   C864      1.0  0.77109  0.10668  0.38033  1.0000
  H   H690      1.0  0.60181  0.31693  0.48916  1.0000
  H   H691      1.0  0.65522  0.23182  0.31902  1.0000
  C   C865      1.0  0.56168  0.26902  0.34195  1.0000
  C   C866      1.0  0.45605  0.16513  0.54496  1.0000
  H   H692      1.0  0.89544  0.51649  0.31948  1.0000
  H   H693      1.0  0.80741  0.40695  0.52890  1.0000
  H   H694      1.0  0.90537  0.45152  0.43507  1.0000
  H   H695      1.0  0.51796  0.07514  0.33096  1.0000
  H   H696      1.0  0.81153  0.09363  0.47032  1.0000
  P   P28       1.0  0.78553  0.19744  0.56281  1.0000
  C   C867      1.0  0.42581  0.14965  0.35677  1.0000
  C   C868      1.0  0.62654  0.16077  0.41665  1.0000
  C   C869      1.0  0.60404  0.41099  0.53749  1.0000
  C   C870      1.0  0.66697  0.28275  0.41399  1.0000
  H   H697      1.0  0.68648  0.29529  0.33720  1.0000
  C   C871      1.0  0.65395  0.20378  0.55519  1.0000
  H   H698      1.0  0.60828  0.16417  0.53672  1.0000
  C   C872      1.0  0.46870  0.36418  0.51959  1.0000
  H   H699      1.0  0.75039  0.07267  0.54059  1.0000
  H   H700      1.0  0.74293  0.13456  0.52798  1.0000
  P   P29       1.0  0.52182  0.42572  0.51586  1.0000
  P   P30       1.0  0.61197  0.26414  0.41136  1.0000
  C   C873      1.0  0.55644  0.40966  0.55313  1.0000
  H   H701      1.0  0.53983  0.32753  0.56116  1.0000
  H   H702      1.0  0.51033  0.40988  0.41556  1.0000
  H   H703      1.0  0.73768  0.44362  0.48912  1.0000
  C   C874      1.0  0.49898  0.28233  0.54953  1.0000
  C   C875      1.0  0.81855  0.21944  0.50908  1.0000
  C   C876      1.0  0.51868  0.09621  0.40156  1.0000
  C   C877      1.0  0.71823  0.15395  0.53670  1.0000
  H   H704      1.0  0.56193  0.53339  0.42165  1.0000
  C   C878      1.0  0.42849  0.12513  0.31862  1.0000
  H   H705      1.0  0.57673  0.36866  0.33799  1.0000
  C   C879      1.0  0.74208  0.30455  0.37076  1.0000
  H   H706      1.0  0.62885  0.22301  0.56276  1.0000
  H   H707      1.0  0.91074  0.27558  0.47295  1.0000
  H   H708      1.0  0.91469  0.12305  0.54556  1.0000
  C   C880      1.0  0.71565  0.47201  0.55672  1.0000
  C   C881      1.0  0.48057  0.45002  0.55867  1.0000
  C   C882      1.0  0.53917  0.28737  0.31425  1.0000
  H   H709      1.0  0.42127  0.42199  0.54403  1.0000
  H   H710      1.0  0.87134  0.05571  0.42933  1.0000
  C   C883      1.0  0.77752  0.05632  0.52361  1.0000
  H   H711      1.0  0.46288  0.54409  0.55850  1.0000
  H   H712      1.0  0.46664  0.36469  0.55831  1.0000
  H   H713      1.0  0.71320  0.04971  0.72204  1.0000
  H   H714      1.0  0.54872  0.78621  0.64795  1.0000
  H   H715      1.0  0.47113  0.87767  0.61749  1.0000
  C   C884      1.0  0.65147  0.60916  0.65549  1.0000
  C   C885      1.0  0.57030  0.73456  0.75794  1.0000
  H   H716      1.0  0.78993  0.76710  0.64661  1.0000
  C   C886      1.0  0.73127  0.79234  0.73539  1.0000
  H   H717      1.0  0.60563  0.58573  0.77311  1.0000
  C   C887      1.0  0.54249  0.04507  0.65502  1.0000
  H   H718      1.0  0.51757  0.69816  0.74623  1.0000
  H   H719      1.0  0.65875  0.64266  0.78178  1.0000
  C   C888      1.0  0.60375  0.01016  0.80866  1.0000
  H   H720      1.0  0.62751  0.77142  0.59902  1.0000
  H   H721      1.0  0.68284  0.68682  0.66974  1.0000
  H   H722      1.0  0.84519  0.72371  0.64134  1.0000
  C   C889      1.0  0.51220  0.79690  0.72177  1.0000
  C   C890      1.0  0.74989  0.67086  0.66085  1.0000
  H   H723      1.0  0.66612  0.95502  0.74945  1.0000
  H   H724      1.0  0.64037  0.05192  0.70040  1.0000
  C   C891      1.0  0.77435  0.94365  0.67128  1.0000
  C   C892      1.0  0.42032  0.66660  0.75186  1.0000
  C   C893      1.0  0.80976  0.71572  0.64774  1.0000
  C   C894      1.0  0.89726  0.60715  0.66341  1.0000
  H   H725      1.0  0.75925  0.87526  0.76324  1.0000
  H   H726      1.0  0.73763  0.76646  0.74361  1.0000
  C   C895      1.0  0.54639  0.80313  0.67950  1.0000
  C   C896      1.0  0.71623  0.67756  0.78135  1.0000
  C   C897      1.0  0.54112  0.56370  0.68414  1.0000
  C   C898      1.0  0.79580  0.68099  0.65323  1.0000
  C   C899      1.0  0.57656  0.85151  0.71991  1.0000
  H   H727      1.0  0.89481  0.96954  0.76114  1.0000
  C   C900      1.0  0.81739  0.90049  0.59524  1.0000
  C   C901      1.0  0.54268  0.84511  0.76306  1.0000
  H   H728      1.0  0.47019  0.97259  0.76151  1.0000
  C   C902      1.0  0.51004  0.81788  0.76329  1.0000
  C   C903      1.0  0.54083  0.98238  0.72358  1.0000
  C   C904      1.0  0.54998  0.71123  0.72999  1.0000
  C   C905      1.0  0.61125  0.91922  0.78283  1.0000
  H   H729      1.0  0.63182  0.71405  0.62359  1.0000
  C   C906      1.0  0.69677  0.83212  0.69343  1.0000
  C   C907      1.0  0.57188  0.70436  0.68134  1.0000
  H   H730      1.0  0.71734  0.02238  0.79840  1.0000
  C   C908      1.0  0.53151  0.91724  0.68036  1.0000
  S   S122      1.0  0.86954  0.80220  0.58290  1.0000
  C   C909      1.0  0.77546  0.91344  0.59471  1.0000
  H   H731      1.0  0.77980  0.59599  0.79116  1.0000
  H   H732      1.0  0.60206  0.92544  0.64384  1.0000
  C   C910      1.0  0.83782  0.90934  0.63373  1.0000
  H   H733      1.0  0.71797  0.93611  0.79756  1.0000
  C   C911      1.0  0.69430  0.64501  0.78158  1.0000
  H   H734      1.0  0.48387  0.81204  0.79613  1.0000
  H   H735      1.0  0.75771  0.96019  0.70093  1.0000
  H   H736      1.0  0.83197  0.93810  0.70119  1.0000
  C   C912      1.0  0.49536  0.61306  0.69215  1.0000
  H   H737      1.0  0.55644  0.68595  0.65979  1.0000
  C   C913      1.0  0.81637  0.93117  0.67145  1.0000
  H   H738      1.0  0.70060  0.59048  0.78408  1.0000
  C   C914      1.0  0.60085  0.02641  0.76594  1.0000
  H   H739      1.0  0.67735  0.83757  0.66760  1.0000
  P   P31       1.0  0.69110  0.76341  0.66308  1.0000
  C   C915      1.0  0.88034  0.77193  0.79337  1.0000
  H   H740      1.0  0.62780  0.76893  0.75972  1.0000
  C   C916      1.0  0.61424  0.72069  0.66075  1.0000
  H   H741      1.0  0.55016  0.60281  0.62987  1.0000
  H   H742      1.0  0.48819  0.77519  0.72264  1.0000
  H   H743      1.0  0.60411  0.83606  0.64509  1.0000
  H   H744      1.0  0.70987  0.88583  0.70792  1.0000
  C   C917      1.0  0.73184  0.73064  0.65744  1.0000
  H   H745      1.0  0.69797  0.70028  0.77990  1.0000
  C   C918      1.0  0.65498  0.93461  0.77568  1.0000
  C   C919      1.0  0.67096  0.57846  0.63692  1.0000
  C   C920      1.0  0.57320  0.93595  0.66918  1.0000
  C   C921      1.0  0.77812  0.74037  0.64988  1.0000
  H   H746      1.0  0.73894  0.64391  0.66504  1.0000
  C   C922      1.0  0.49922  0.96301  0.73560  1.0000
  H   H747      1.0  0.86699  0.70539  0.71679  1.0000
  C   C923      1.0  0.69666  0.78347  0.60468  1.0000
  H   H748      1.0  0.42667  0.97102  0.61958  1.0000
  S   S123      1.0  0.70009  0.94978  0.63583  1.0000
  H   H749      1.0  0.46308  0.56329  0.79300  1.0000
  C   C924      1.0  0.48147  0.57202  0.75723  1.0000
  C   C925      1.0  0.86868  0.71869  0.75063  1.0000
  H   H750      1.0  0.77289  0.81568  0.78063  1.0000
  C   C926      1.0  0.50824  0.83549  0.58305  1.0000
  P   P32       1.0  0.84250  0.65554  0.79418  1.0000
  C   C927      1.0  0.74338  0.85380  0.74703  1.0000
  C   C928      1.0  0.71559  0.85974  0.71596  1.0000
  H   H751      1.0  0.53811  0.85172  0.56671  1.0000
  C   C929      1.0  0.43071  0.79428  0.62414  1.0000
  H   H752      1.0  0.77682  0.70661  0.78541  1.0000
  C   C930      1.0  0.53094  0.59409  0.66546  1.0000
  H   H753      1.0  0.47012  0.75163  0.59174  1.0000
  C   C931      1.0  0.78504  0.65160  0.78725  1.0000
  H   H754      1.0  0.65534  0.63116  0.63212  1.0000
  C   C932      1.0  0.57800  0.83082  0.67822  1.0000
  C   C933      1.0  0.42973  0.83022  0.63036  1.0000
  H   H755      1.0  0.82067  0.66205  0.65098  1.0000
  C   C934      1.0  0.87845  0.75419  0.75014  1.0000
  C   C935      1.0  0.76136  0.68095  0.78429  1.0000
  H   H756      1.0  0.88521  0.59396  0.63428  1.0000
  H   H757      1.0  0.75032  0.01374  0.57089  1.0000
  C   C936      1.0  0.75379  0.93482  0.63304  1.0000
  C   C937      1.0  0.86052  0.70060  0.79443  1.0000
  C   C938      1.0  0.70566  0.79816  0.70169  1.0000
  C   C939      1.0  0.76269  0.61894  0.78744  1.0000
  C   C940      1.0  0.61233  0.75135  0.73720  1.0000
  H   H758      1.0  0.46233  0.91611  0.72225  1.0000
  C   C941      1.0  0.49461  0.93068  0.71367  1.0000
  C   C942      1.0  0.68250  0.03900  0.74650  1.0000
  C   C943      1.0  0.64079  0.04053  0.73469  1.0000
  H   H759      1.0  0.52794  0.89241  0.66302  1.0000
  C   C944      1.0  0.57780  0.96850  0.69024  1.0000
  C   C945      1.0  0.88153  0.63652  0.74264  1.0000
  P   P33       1.0  0.54767  0.02530  0.74799  1.0000
  H   H760      1.0  0.88695  0.79955  0.79282  1.0000
  H   H761      1.0  0.69089  0.57754  0.59944  1.0000
  C   C946      1.0  0.45674  0.03864  0.78419  1.0000
  H   H762      1.0  0.58851  0.92836  0.76288  1.0000
  C   C947      1.0  0.46927  0.60153  0.73747  1.0000
  C   C948      1.0  0.42041  0.69300  0.78686  1.0000
  H   H763      1.0  0.60248  0.87199  0.71797  1.0000
  C   C949      1.0  0.43647  0.64793  0.57330  1.0000
  C   C950      1.0  0.68432  0.92373  0.80231  1.0000
  S   S124      1.0  0.89003  0.89346  0.63571  1.0000
  C   C951      1.0  0.65943  0.78510  0.58382  1.0000
  C   C952      1.0  0.68480  0.02372  0.78971  1.0000
  H   H764      1.0  0.61263  0.63562  0.71861  1.0000
  C   C953      1.0  0.63467  0.74454  0.68842  1.0000
  H   H765      1.0  0.88440  0.76789  0.71610  1.0000
  C   C954      1.0  0.71774  0.61570  0.78369  1.0000
  C   C955      1.0  0.71799  0.69553  0.66322  1.0000
  C   C956      1.0  0.86619  0.61864  0.70518  1.0000
  C   C957      1.0  0.75097  0.82015  0.75693  1.0000
  H   H766      1.0  0.53268  0.01855  0.64795  1.0000
  H   H767      1.0  0.48777  0.63618  0.67653  1.0000
  H   H768      1.0  0.83044  0.61408  0.70732  1.0000
  C   C958      1.0  0.62756  0.61173  0.70432  1.0000
  H   H769      1.0  0.45360  0.03385  0.74712  1.0000
  C   C959      1.0  0.62335  0.58360  0.73486  1.0000
  H   H770      1.0  0.61034  0.98281  0.68019  1.0000
  H   H771      1.0  0.55392  0.73930  0.79602  1.0000
  C   C960      1.0  0.49886  0.03670  0.79566  1.0000
  Fe  Fe61      1.0  0.67582  0.94831  0.56678  1.0000
  H   H772      1.0  0.76584  0.80329  0.59971  1.0000
  C   C961      1.0  0.46977  0.77927  0.59696  1.0000
  C   C962      1.0  0.46957  0.85040  0.61123  1.0000
  Fe  Fe62      1.0  0.91050  0.85205  0.57899  1.0000
  S   S125      1.0  0.47686  0.62035  0.58164  1.0000
  C   C963      1.0  0.73693  0.80297  0.58405  1.0000
  S   S126      1.0  0.62337  0.98590  0.56602  1.0000
  H   H773      1.0  0.75957  0.90641  0.56519  1.0000
  H   H774      1.0  0.44979  0.86814  0.80454  1.0000
  H   H775      1.0  0.83378  0.88361  0.56598  1.0000
  C   C964      1.0  0.50808  0.79995  0.57517  1.0000
  C   C965      1.0  0.71941  0.79106  0.00960  1.0000
  C   C966      1.0  0.87359  0.75401  0.83695  1.0000
  H   H776      1.0  0.78462  0.63575  0.97100  1.0000
  H   H777      1.0  0.80295  0.92634  0.92947  1.0000
  S   S127      1.0  0.73876  0.87313  0.93095  1.0000
  C   C967      1.0  0.88411  0.84422  0.89125  1.0000
  S   S128      1.0  0.86385  0.78119  0.98584  1.0000
  S   S129      1.0  0.61857  0.57093  0.87016  1.0000
  H   H778      1.0  0.77544  0.81593  0.87049  1.0000
  C   C968      1.0  0.43569  0.71714  0.91979  1.0000
  C   C969      1.0  0.44041  0.61945  0.90507  1.0000
  H   H779      1.0  0.77002  0.56803  0.89820  1.0000
  Fe  Fe63      1.0  0.65119  0.66691  0.98590  1.0000
  C   C970      1.0  0.80645  0.73382  0.04519  1.0000
  H   H780      1.0  0.69333  0.88797  0.85501  1.0000
  S   S130      1.0  0.59571  0.62504  0.99221  1.0000
  H   H781      1.0  0.91290  0.73250  0.01408  1.0000
  C   C971      1.0  0.71790  0.78243  0.86397  1.0000
  H   H782      1.0  0.91520  0.62828  0.96049  1.0000
  C   C972      1.0  0.70197  0.56787  0.88940  1.0000
  C   C973      1.0  0.47611  0.98211  0.99169  1.0000
  H   H783      1.0  0.88418  0.56702  0.89505  1.0000
  C   C974      1.0  0.75822  0.83082  0.05503  1.0000
  H   H784      1.0  0.91262  0.94884  0.06204  1.0000
  C   C975      1.0  0.42600  0.55434  0.01925  1.0000
  S   S131      1.0  0.66003  0.02731  0.95987  1.0000
  Fe  Fe64      1.0  0.62608  0.69968  0.90172  1.0000
  P   P34       1.0  0.89736  0.01879  0.03565  1.0000
  H   H785      1.0  0.79028  0.92025  0.01896  1.0000
  C   C976      1.0  0.86828  0.60662  0.85136  1.0000
  Fe  Fe65      1.0  0.65053  0.97599  0.99529  1.0000
  C   C977      1.0  0.53075  0.78220  0.89774  1.0000
  H   H786      1.0  0.49196  0.00719  0.98066  1.0000
  C   C978      1.0  0.54523  0.80675  0.86137  1.0000
  C   C979      1.0  0.50254  0.95584  0.99972  1.0000
  S   S132      1.0  0.70573  0.95207  0.01967  1.0000
  C   C980      1.0  0.73900  0.81156  0.88148  1.0000
  H   H787      1.0  0.83206  0.58644  0.97181  1.0000
  C   C981      1.0  0.86512  0.58957  0.89507  1.0000
  H   H788      1.0  0.69156  0.57947  0.02822  1.0000
  Fe  Fe66      1.0  0.89045  0.80411  0.04878  1.0000
  H   H789      1.0  0.73986  0.70840  0.94729  1.0000
  H   H790      1.0  0.54391  0.75681  0.89220  1.0000
  C   C982      1.0  0.81923  0.74920  0.99939  1.0000
  H   H791      1.0  0.73805  0.76443  0.83923  1.0000
  C   C983      1.0  0.68924  0.78043  0.05286  1.0000
  Fe  Fe67      1.0  0.61749  0.62164  0.91055  1.0000
  H   H792      1.0  0.50927  0.76110  0.06066  1.0000
  C   C984      1.0  0.74580  0.69984  0.02028  1.0000
  S   S133      1.0  0.63627  0.88395  0.04618  1.0000
  P   P35       1.0  0.54229  0.86973  0.81877  1.0000
  S   S134      1.0  0.47806  0.66687  0.02229  1.0000
  C   C985      1.0  0.42147  0.91491  0.83621  1.0000
  C   C986      1.0  0.66585  0.82916  0.92771  1.0000
  H   H793      1.0  0.64728  0.99805  0.85494  1.0000
  Fe  Fe68      1.0  0.68650  0.90474  0.98021  1.0000
  H   H794      1.0  0.41976  0.89190  0.03038  1.0000
  C   C987      1.0  0.42152  0.05262  0.86859  1.0000
  C   C988      1.0  0.79575  0.73926  0.96378  1.0000
  H   H795      1.0  0.85695  0.83369  0.87562  1.0000
  H   H796      1.0  0.80456  0.75163  0.92880  1.0000
  C   C989      1.0  0.42874  0.94586  0.86031  1.0000
  C   C990      1.0  0.45649  0.89238  0.82173  1.0000
  C   C991      1.0  0.87784  0.98953  0.95076  1.0000
  C   C992      1.0  0.81132  0.64480  0.89411  1.0000
  C   C993      1.0  0.47082  0.56712  0.00168  1.0000
  H   H797      1.0  0.66331  0.76083  0.05039  1.0000
  C   C994      1.0  0.52866  0.83979  0.86836  1.0000
  C   C995      1.0  0.80868  0.62803  0.93783  1.0000
  C   C996      1.0  0.50080  0.79079  0.94188  1.0000
  H   H798      1.0  0.53865  0.96078  0.99465  1.0000
  C   C997      1.0  0.75876  0.71496  0.97438  1.0000
  H   H799      1.0  0.48329  0.59018  0.01793  1.0000
  S   S135      1.0  0.60465  0.70869  0.98264  1.0000
  C   C998      1.0  0.48225  0.92335  0.01395  1.0000
  C   C999      1.0  0.81632  0.05234  0.06038  1.0000
  H   H800      1.0  0.61758  0.85875  0.86495  1.0000
  Fe  Fe69      1.0  0.55144  0.66632  0.98087  1.0000
  H   H801      1.0  0.87216  0.67882  0.99444  1.0000
  C   C1000     1.0  0.83687  0.96297  0.02656  1.0000
  H   H802      1.0  0.57420  0.99718  0.83192  1.0000
  C   C1001     1.0  0.49933  0.84845  0.91322  1.0000
  H   H803      1.0  0.56942  0.79996  0.82790  1.0000
  S   S136      1.0  0.64378  0.74355  0.85041  1.0000
  S   S137      1.0  0.63441  0.92989  0.95181  1.0000
  H   H804      1.0  0.46324  0.83115  0.98427  1.0000
  C   C1002     1.0  0.81448  0.93993  0.00019  1.0000
  H   H805      1.0  0.90232  0.90118  0.97915  1.0000
  H   H806      1.0  0.64545  0.84721  0.95198  1.0000
  C   C1003     1.0  0.50598  0.93186  0.85563  1.0000
  C   C1004     1.0  0.50217  0.04480  0.84359  1.0000
  C   C1005     1.0  0.85392  0.96741  0.92493  1.0000
  C   C1006     1.0  0.67068  0.77715  0.87749  1.0000
  S   S138      1.0  0.69984  0.66922  0.03440  1.0000
  H   H807      1.0  0.47594  0.97781  0.88999  1.0000
  Fe  Fe70      1.0  0.58550  0.91309  0.02113  1.0000
  H   H808      1.0  0.71625  0.77951  0.97513  1.0000
  C   C1007     1.0  0.83548  0.60034  0.93832  1.0000
  C   C1008     1.0  0.86380  0.71843  0.83755  1.0000
  C   C1009     1.0  0.42946  0.97576  0.99706  1.0000
  C   C1010     1.0  0.49917  0.90080  0.83097  1.0000
  H   H809      1.0  0.85923  0.96983  0.88583  1.0000
  C   C1011     1.0  0.87459  0.86797  0.92987  1.0000
  H   H810      1.0  0.78899  0.66530  0.89401  1.0000
  H   H811      1.0  0.84003  0.87500  0.94440  1.0000
  S   S139      1.0  0.67593  0.66071  0.90498  1.0000
  C   C1012     1.0  0.71281  0.83539  0.91234  1.0000
  C   C1013     1.0  0.90884  0.68017  0.98776  1.0000
  C   C1014     1.0  0.47096  0.95433  0.86988  1.0000
  H   H812      1.0  0.77889  0.82287  0.97721  1.0000
  H   H813      1.0  0.69363  0.59005  0.91305  1.0000
  C   C1015     1.0  0.64489  0.79988  0.91070  1.0000
  C   C1016     1.0  0.86906  0.98796  0.00201  1.0000
  H   H814      1.0  0.78515  0.85018  0.05549  1.0000
  C   C1017     1.0  0.82198  0.94292  0.94966  1.0000
  C   C1018     1.0  0.46315  0.70304  0.94644  1.0000
  C   C1019     1.0  0.90945  0.88203  0.95002  1.0000
  H   H815      1.0  0.60866  0.79544  0.92264  1.0000
  S   S140      1.0  0.56989  0.66021  0.89942  1.0000
  S   S141      1.0  0.51494  0.89092  0.02585  1.0000
  C   C1020     1.0  0.44356  0.68537  0.98945  1.0000
  C   C1021     1.0  0.75444  0.81569  0.01073  1.0000
  C   C1022     1.0  0.84167  0.63464  0.85067  1.0000
  H   H816      1.0  0.90132  0.00883  0.93045  1.0000
  H   H817      1.0  0.87535  0.76762  0.87062  1.0000
  C   C1023     1.0  0.46355  0.05239  0.87988  1.0000
  C   C1024     1.0  0.43559  0.91697  0.01942  1.0000
  H   H818      1.0  0.53406  0.04520  0.85365  1.0000
  H   H819      1.0  0.46890  0.62396  0.92157  1.0000
  H   H820      1.0  0.85829  0.70533  0.87182  1.0000
  H   H821      1.0  0.53762  0.93815  0.86580  1.0000
  H   H822      1.0  0.49954  0.70615  0.93389  1.0000
  C   C1025     1.0  0.71795  0.03820  0.93677  1.0000
  H   H823      1.0  0.48713  0.87404  0.92055  1.0000
  C   C1026     1.0  0.62731  0.88005  0.84023  1.0000
  C   C1027     1.0  0.48545  0.82398  0.94971  1.0000
  C   C1028     1.0  0.67045  0.89650  0.83459  1.0000
  C   C1029     1.0  0.74943  0.03316  0.96412  1.0000
  H   H824      1.0  0.48999  0.77188  0.97021  1.0000
  H   H825      1.0  0.73811  0.02323  0.00063  1.0000
  H   H826      1.0  0.45119  0.73083  0.88658  1.0000
  C   C1030     1.0  0.73278  0.05229  0.89040  1.0000
  H   H827      1.0  0.47995  0.63068  0.83273  1.0000
  H   H828      1.0  0.91161  0.00887  0.82595  1.0000
  C   C1031     1.0  0.79560  0.04210  0.94468  1.0000
  C   C1032     1.0  0.44647  0.62327  0.85479  1.0000
  H   H829      1.0  0.89014  0.59692  0.81812  1.0000
  H   H830      1.0  0.79925  0.02743  0.05720  1.0000
  H   H831      1.0  0.81970  0.03920  0.96607  1.0000
  H   H832      1.0  0.53425  0.56029  0.94902  1.0000
  C   C1033     1.0  0.77006  0.70897  0.05545  1.0000
  C   C1034     1.0  0.74532  0.55537  0.88108  1.0000
  H   H833      1.0  0.42215  0.68743  0.82363  1.0000
  S   S142      1.0  0.59717  0.96137  0.06264  1.0000
  C   C1035     1.0  0.64533  0.00990  0.82131  1.0000
  C   C1036     1.0  0.59740  0.89133  0.81423  1.0000
  C   C1037     1.0  0.70393  0.01412  0.22857  1.0000
  C   C1038     1.0  0.65594  0.67767  0.17201  1.0000
  C   C1039     1.0  0.85197  0.67682  0.19978  1.0000
  C   C1040     1.0  0.89591  0.00597  0.17959  1.0000
  H   H834      1.0  0.45097  0.91981  0.24608  1.0000
  H   H835      1.0  0.58855  0.67430  0.09248  1.0000
  H   H836      1.0  0.89418  0.04839  0.13405  1.0000
  H   H837      1.0  0.45926  0.00829  0.18470  1.0000
  H   H838      1.0  0.73139  0.60747  0.16033  1.0000
  H   H839      1.0  0.90668  0.92253  0.14150  1.0000
  H   H840      1.0  0.89564  0.95852  0.21698  1.0000
  H   H841      1.0  0.69154  0.61746  0.25982  1.0000
  C   C1041     1.0  0.73818  0.89798  0.23367  1.0000
  H   H842      1.0  0.66244  0.57626  0.20861  1.0000
  C   C1042     1.0  0.89864  0.97044  0.18210  1.0000
  C   C1043     1.0  0.48918  0.68860  0.13994  1.0000
  C   C1044     1.0  0.90598  0.62637  0.21928  1.0000
  H   H843      1.0  0.61069  0.71673  0.27282  1.0000
  C   C1045     1.0  0.45999  0.63783  0.18742  1.0000
  C   C1046     1.0  0.72311  0.78579  0.20300  1.0000
  H   H844      1.0  0.64351  0.85515  0.14873  1.0000
  H   H845      1.0  0.55907  0.84738  0.29549  1.0000
  C   C1047     1.0  0.66861  0.57656  0.16931  1.0000
  C   C1048     1.0  0.82812  0.73859  0.29810  1.0000
  C   C1049     1.0  0.70095  0.91277  0.22335  1.0000
  C   C1050     1.0  0.48941  0.85045  0.29119  1.0000
  C   C1051     1.0  0.87932  0.65865  0.16126  1.0000
  C   C1052     1.0  0.64671  0.56004  0.09458  1.0000
  S   S143      1.0  0.87021  0.78824  0.12730  1.0000
  C   C1053     1.0  0.69995  0.91826  0.17493  1.0000
  H   H846      1.0  0.42386  0.86385  0.28356  1.0000
  Fe  Fe71      1.0  0.86882  0.84464  0.14606  1.0000
  C   C1054     1.0  0.64177  0.73544  0.15156  1.0000
  C   C1055     1.0  0.72416  0.04543  0.24023  1.0000
  C   C1056     1.0  0.58386  0.73434  0.28232  1.0000
  P   P36       1.0  0.65367  0.78166  0.15401  1.0000
  H   H847      1.0  0.67381  0.66084  0.18940  1.0000
  C   C1057     1.0  0.90632  0.63343  0.17103  1.0000
  C   C1058     1.0  0.49102  0.01469  0.29225  1.0000
  C   C1059     1.0  0.90477  0.95011  0.13956  1.0000
  H   H848      1.0  0.88592  0.80350  0.22620  1.0000
  H   H849      1.0  0.53480  0.65176  0.23521  1.0000
  H   H850      1.0  0.46265  0.73638  0.17112  1.0000
  C   C1060     1.0  0.87901  0.64476  0.25783  1.0000
  H   H851      1.0  0.89088  0.02177  0.21264  1.0000
  H   H852      1.0  0.58985  0.04645  0.07524  1.0000
  C   C1061     1.0  0.62877  0.66369  0.14227  1.0000
  H   H853      1.0  0.72325  0.99658  0.20199  1.0000
  C   C1062     1.0  0.42493  0.57480  0.29324  1.0000
  C   C1063     1.0  0.70727  0.59466  0.14224  1.0000
  Fe  Fe72      1.0  0.65117  0.93336  0.08363  1.0000
  C   C1064     1.0  0.53737  0.58708  0.31193  1.0000
  C   C1065     1.0  0.69325  0.79492  0.09788  1.0000
  C   C1066     1.0  0.67435  0.82298  0.28296  1.0000
  C   C1067     1.0  0.48130  0.01024  0.20964  1.0000
  S   S144      1.0  0.65245  0.93589  0.16279  1.0000
  H   H854      1.0  0.73846  0.89334  0.27118  1.0000
  H   H855      1.0  0.46377  0.69255  0.29700  1.0000
  H   H856      1.0  0.48793  0.75282  0.25077  1.0000
  C   C1068     1.0  0.61416  0.72094  0.12194  1.0000
  C   C1069     1.0  0.45927  0.87165  0.27748  1.0000
  C   C1070     1.0  0.43326  0.65818  0.22404  1.0000
  H   H857      1.0  0.43192  0.81157  0.23428  1.0000
  C   C1071     1.0  0.72744  0.82084  0.09843  1.0000
  H   H858      1.0  0.50444  0.82436  0.06675  1.0000
  H   H859      1.0  0.59273  0.01137  0.20844  1.0000
  C   C1072     1.0  0.89783  0.02099  0.13474  1.0000
  C   C1073     1.0  0.51433  0.78028  0.30651  1.0000
  C   C1074     1.0  0.86420  0.79087  0.25773  1.0000
  H   H860      1.0  0.50750  0.63723  0.11671  1.0000
  H   H861      1.0  0.73056  0.83339  0.13221  1.0000
  H   H862      1.0  0.62011  0.81922  0.24688  1.0000
  C   C1075     1.0  0.70050  0.64234  0.27395  1.0000
  H   H863      1.0  0.42622  0.01206  0.27401  1.0000
  H   H864      1.0  0.56025  0.60586  0.17399  1.0000
  C   C1076     1.0  0.60453  0.80622  0.15779  1.0000
  H   H865      1.0  0.57782  0.88919  0.15026  1.0000
  C   C1077     1.0  0.43418  0.69375  0.21746  1.0000
  C   C1078     1.0  0.85675  0.75507  0.25746  1.0000
  C   C1079     1.0  0.47456  0.90356  0.25627  1.0000
  C   C1080     1.0  0.55414  0.60051  0.21249  1.0000
  C   C1081     1.0  0.43692  0.75072  0.08373  1.0000
  H   H866      1.0  0.84888  0.83828  0.29806  1.0000
  C   C1082     1.0  0.53842  0.01441  0.27457  1.0000
  H   H867      1.0  0.62697  0.63624  0.13534  1.0000
  H   H868      1.0  0.54922  0.71267  0.22961  1.0000
  H   H869      1.0  0.53231  0.93917  0.23174  1.0000
  C   C1083     1.0  0.51438  0.75484  0.27019  1.0000
  H   H870      1.0  0.76015  0.69724  0.09098  1.0000
  H   H871      1.0  0.54265  0.00798  0.15253  1.0000
  C   C1084     1.0  0.53513  0.86220  0.28386  1.0000
  C   C1085     1.0  0.52373  0.80996  0.16587  1.0000
  C   C1086     1.0  0.71882  0.81506  0.28085  1.0000
  C   C1087     1.0  0.84366  0.81049  0.29849  1.0000
  C   C1088     1.0  0.52021  0.91464  0.24851  1.0000
  C   C1089     1.0  0.74583  0.65185  0.27215  1.0000
  C   C1090     1.0  0.57303  0.86155  0.15446  1.0000
  C   C1091     1.0  0.53947  0.62647  0.24708  1.0000
  H   H872      1.0  0.77132  0.63377  0.25672  1.0000
  C   C1092     1.0  0.77418  0.89510  0.14730  1.0000
  H   H873      1.0  0.68468  0.72322  0.19902  1.0000
  H   H874      1.0  0.59924  0.73702  0.10036  1.0000
  H   H875      1.0  0.77796  0.79119  0.23866  1.0000
  H   H876      1.0  0.74541  0.60962  0.07033  1.0000
  C   C1093     1.0  0.65877  0.00504  0.25165  1.0000
  H   H877      1.0  0.87942  0.66400  0.12382  1.0000
  C   C1094     1.0  0.52988  0.84551  0.16018  1.0000
  C   C1095     1.0  0.47372  0.80773  0.07635  1.0000
  C   C1096     1.0  0.66647  0.66400  0.29644  1.0000
  C   C1097     1.0  0.65425  0.81244  0.24496  1.0000
  C   C1098     1.0  0.85228  0.67047  0.24839  1.0000
  S   S145      1.0  0.81943  0.86801  0.20944  1.0000
  C   C1099     1.0  0.74303  0.79630  0.24104  1.0000
  C   C1100     1.0  0.90278  0.00055  0.09194  1.0000
  C   C1101     1.0  0.48779  0.65305  0.14555  1.0000
  H   H878      1.0  0.43011  0.84983  0.09132  1.0000
  H   H879      1.0  0.58592  0.90268  0.25622  1.0000
  H   H880      1.0  0.51007  0.70018  0.10693  1.0000
  C   C1102     1.0  0.66247  0.71333  0.17670  1.0000
  C   C1103     1.0  0.53163  0.61986  0.29684  1.0000
  P   P37       1.0  0.81498  0.69258  0.29820  1.0000
  C   C1104     1.0  0.52825  0.01023  0.19157  1.0000
  C   C1105     1.0  0.56185  0.56794  0.22742  1.0000
  C   C1106     1.0  0.60737  0.68528  0.11778  1.0000
  C   C1107     1.0  0.67853  0.79390  0.20454  1.0000
  C   C1108     1.0  0.46272  0.01242  0.25994  1.0000
  C   C1109     1.0  0.90788  0.96515  0.09452  1.0000
  H   H881      1.0  0.83054  0.69580  0.19166  1.0000
  C   C1110     1.0  0.77457  0.88857  0.19562  1.0000
  H   H882      1.0  0.67272  0.91951  0.25293  1.0000
  C   C1111     1.0  0.55046  0.89398  0.26230  1.0000
  C   C1112     1.0  0.54898  0.73191  0.25821  1.0000
  H   H883      1.0  0.73600  0.91382  0.09947  1.0000
  C   C1113     1.0  0.63834  0.55858  0.14577  1.0000
  C   C1114     1.0  0.71541  0.59571  0.09145  1.0000
  H   H884      1.0  0.49041  0.79749  0.16992  1.0000
  H   H885      1.0  0.55481  0.76309  0.16938  1.0000
  H   H886      1.0  0.45932  0.61024  0.19064  1.0000
  H   H887      1.0  0.80248  0.88866  0.11795  1.0000
  H   H888      1.0  0.82447  0.74107  0.07272  1.0000
  H   H889      1.0  0.87873  0.63861  0.29488  1.0000
  H   H890      1.0  0.50141  0.86073  0.15992  1.0000
  C   C1115     1.0  0.75761  0.68350  0.29249  1.0000
  H   H891      1.0  0.87368  0.74076  0.22552  1.0000
  H   H892      1.0  0.74294  0.77220  0.17165  1.0000
  H   H893      1.0  0.43881  0.72310  0.08013  1.0000
  C   C1116     1.0  0.61021  0.84211  0.15351  1.0000
  H   H894      1.0  0.64379  0.98053  0.24272  1.0000
  C   C1117     1.0  0.55305  0.56132  0.27753  1.0000
  C   C1118     1.0  0.56076  0.79041  0.16484  1.0000
  C   C1119     1.0  0.63325  0.02710  0.28656  1.0000
  C   C1120     1.0  0.73666  0.90957  0.13688  1.0000
  C   C1121     1.0  0.55670  0.01221  0.22375  1.0000
  H   H895      1.0  0.49709  0.55590  0.17444  1.0000
  C   C1122     1.0  0.46236  0.70894  0.17590  1.0000
  C   C1123     1.0  0.68504  0.57860  0.06769  1.0000
  C   C1124     1.0  0.43142  0.82207  0.09054  1.0000
  C   C1125     1.0  0.47650  0.77209  0.07290  1.0000
  H   H896      1.0  0.67033  0.55630  0.28360  1.0000
  H   H897      1.0  0.82843  0.96142  0.06601  1.0000
  C   C1126     1.0  0.42037  0.78869  0.30535  1.0000
  H   H898      1.0  0.73503  0.82444  0.30930  1.0000
  S   S146      1.0  0.88304  0.86010  0.06815  1.0000
  H   H899      1.0  0.63121  0.65572  0.29977  1.0000
  H   H900      1.0  0.75935  0.05234  0.22280  1.0000
  C   C1127     1.0  0.68608  0.55386  0.31352  1.0000
  H   H901      1.0  0.65601  0.83804  0.31358  1.0000
  Fe  Fe73      1.0  0.66175  0.99604  0.48911  1.0000
  H   H902      1.0  0.53776  0.78839  0.55257  1.0000
  C   C1128     1.0  0.61122  0.84644  0.44286  1.0000
  H   H903      1.0  0.76006  0.64028  0.36515  1.0000
  H   H904      1.0  0.65283  0.75428  0.41374  1.0000
  H   H905      1.0  0.70522  0.84186  0.49327  1.0000
  H   H906      1.0  0.67499  0.57912  0.43208  1.0000
  H   H907      1.0  0.63400  0.80700  0.52732  1.0000
  C   C1129     1.0  0.47198  0.56618  0.48784  1.0000
  C   C1130     1.0  0.82126  0.95377  0.40271  1.0000
  H   H908      1.0  0.85390  0.86005  0.41143  1.0000
  S   S147      1.0  0.63611  0.90401  0.54163  1.0000
  S   S148      1.0  0.57937  0.68896  0.54476  1.0000
  C   C1131     1.0  0.49836  0.98287  0.50431  1.0000
  H   H909      1.0  0.89516  0.90788  0.44386  1.0000
  H   H910      1.0  0.52718  0.99619  0.51418  1.0000
  C   C1132     1.0  0.47366  0.99953  0.47698  1.0000
  H   H911      1.0  0.82469  0.64550  0.48377  1.0000
  H   H912      1.0  0.84180  0.73848  0.52277  1.0000
  C   C1133     1.0  0.73691  0.70157  0.52495  1.0000
  C   C1134     1.0  0.86479  0.57253  0.46485  1.0000
  C   C1135     1.0  0.75260  0.75240  0.47496  1.0000
  C   C1136     1.0  0.55014  0.78300  0.32980  1.0000
  C   C1137     1.0  0.85296  0.69013  0.37805  1.0000
  C   C1138     1.0  0.65701  0.84186  0.42177  1.0000
  H   H913      1.0  0.47972  0.77206  0.40731  1.0000
  S   S149      1.0  0.64766  0.67610  0.43658  1.0000
  H   H914      1.0  0.81103  0.97963  0.40105  1.0000
  C   C1139     1.0  0.73963  0.82409  0.54441  1.0000
  H   H915      1.0  0.61188  0.76227  0.33628  1.0000
  H   H916      1.0  0.77075  0.83920  0.52907  1.0000
  S   S150      1.0  0.70154  0.66547  0.54783  1.0000
  Fe  Fe74      1.0  0.58723  0.94276  0.53474  1.0000
  S   S151      1.0  0.62004  0.59342  0.36570  1.0000
  H   H917      1.0  0.90315  0.97446  0.33869  1.0000
  H   H918      1.0  0.47015  0.58730  0.41911  1.0000
  H   H919      1.0  0.85015  0.56368  0.50164  1.0000
  C   C1140     1.0  0.57292  0.04254  0.40933  1.0000
  Fe  Fe75      1.0  0.64238  0.66114  0.51393  1.0000
  C   C1141     1.0  0.45241  0.57111  0.44901  1.0000
  C   C1142     1.0  0.90583  0.59238  0.45433  1.0000
  S   S152      1.0  0.51329  0.92854  0.55630  1.0000
  C   C1143     1.0  0.55757  0.90506  0.37939  1.0000
  C   C1144     1.0  0.68829  0.56643  0.39743  1.0000
  H   H920      1.0  0.64083  0.96346  0.32624  1.0000
  H   H921      1.0  0.88017  0.98896  0.55373  1.0000
  Fe  Fe76      1.0  0.60651  0.62699  0.43271  1.0000
  C   C1145     1.0  0.80875  0.73473  0.51512  1.0000
  S   S153      1.0  0.71691  0.96097  0.49133  1.0000
  C   C1146     1.0  0.82360  0.65367  0.44784  1.0000
  H   H922      1.0  0.49569  0.97190  0.36794  1.0000
  C   C1147     1.0  0.77968  0.70659  0.53474  1.0000
  H   H923      1.0  0.74175  0.77041  0.45247  1.0000
  C   C1148     1.0  0.55645  0.04463  0.36734  1.0000
  H   H924      1.0  0.41916  0.86428  0.38001  1.0000
  C   C1149     1.0  0.46011  0.69147  0.37313  1.0000
  S   S154      1.0  0.83153  0.79228  0.45919  1.0000
  C   C1150     1.0  0.60669  0.95270  0.34009  1.0000
  H   H925      1.0  0.43076  0.72749  0.53024  1.0000
  H   H926      1.0  0.48631  0.71192  0.37164  1.0000
  C   C1151     1.0  0.66865  0.57037  0.35831  1.0000
  C   C1152     1.0  0.81865  0.67660  0.35633  1.0000
  P   P38       1.0  0.57481  0.01485  0.31688  1.0000
  H   H927      1.0  0.76411  0.62124  0.44586  1.0000
  C   C1153     1.0  0.81071  0.89289  0.38597  1.0000
  H   H928      1.0  0.48634  0.91364  0.40003  1.0000
  C   C1154     1.0  0.81665  0.79420  0.33972  1.0000
  H   H929      1.0  0.48311  0.02572  0.46579  1.0000
  Fe  Fe77      1.0  0.88380  0.80402  0.50151  1.0000
  H   H930      1.0  0.88098  0.69011  0.44090  1.0000
  C   C1155     1.0  0.77735  0.02306  0.54057  1.0000
  Fe  Fe78      1.0  0.67267  0.91947  0.46578  1.0000
  H   H931      1.0  0.53190  0.58201  0.35042  1.0000
  C   C1156     1.0  0.84277  0.56385  0.42787  1.0000
  C   C1157     1.0  0.74795  0.03738  0.40275  1.0000
  C   C1158     1.0  0.84537  0.88633  0.40821  1.0000
  C   C1159     1.0  0.78705  0.65119  0.38071  1.0000
  H   H932      1.0  0.45893  0.78522  0.49495  1.0000
  C   C1160     1.0  0.78939  0.64002  0.42648  1.0000
  H   H933      1.0  0.68936  0.72242  0.49016  1.0000
  H   H934      1.0  0.73890  0.01061  0.41106  1.0000
  H   H935      1.0  0.91817  0.60087  0.33206  1.0000
  C   C1161     1.0  0.46278  0.79540  0.41964  1.0000
  C   C1162     1.0  0.81104  0.00124  0.51732  1.0000
  C   C1163     1.0  0.44698  0.68042  0.33079  1.0000
  C   C1164     1.0  0.72304  0.72498  0.49594  1.0000
  P   P39       1.0  0.88734  0.98333  0.44636  1.0000
  C   C1165     1.0  0.85538  0.67869  0.42364  1.0000
  H   H936      1.0  0.84483  0.56761  0.35155  1.0000
  H   H937      1.0  0.50493  0.57838  0.48792  1.0000
  H   H938      1.0  0.77098  0.93146  0.36696  1.0000
  H   H939      1.0  0.54448  0.82179  0.46632  1.0000
  H   H940      1.0  0.55305  0.87940  0.39402  1.0000
  C   C1166     1.0  0.79542  0.75734  0.48460  1.0000
  C   C1167     1.0  0.59493  0.78467  0.44081  1.0000
  S   S155      1.0  0.62103  0.95564  0.45759  1.0000
  C   C1168     1.0  0.43650  0.98236  0.46402  1.0000
  S   S156      1.0  0.60504  0.61015  0.50818  1.0000
  C   C1169     1.0  0.85674  0.94754  0.42425  1.0000
  C   C1170     1.0  0.44758  0.93221  0.50696  1.0000
  C   C1171     1.0  0.86180  0.57483  0.38031  1.0000
  H   H941      1.0  0.43785  0.90605  0.51807  1.0000
  C   C1172     1.0  0.78933  0.04691  0.37018  1.0000
  H   H942      1.0  0.80932  0.97505  0.52980  1.0000
  H   H943      1.0  0.59454  0.02221  0.41273  1.0000
  H   H944      1.0  0.47564  0.01664  0.33107  1.0000
  S   S157      1.0  0.66819  0.05152  0.46778  1.0000
  C   C1173     1.0  0.86852  0.91357  0.42699  1.0000
  H   H945      1.0  0.65151  0.71162  0.33618  1.0000
  C   C1174     1.0  0.58005  0.81795  0.45119  1.0000
  Fe  Fe79      1.0  0.54229  0.63944  0.53198  1.0000
  H   H946      1.0  0.80147  0.80916  0.37196  1.0000
  H   H947      1.0  0.59973  0.87205  0.45219  1.0000
  S   S158      1.0  0.54056  0.65201  0.45590  1.0000
  C   C1175     1.0  0.56880  0.97195  0.34182  1.0000
  H   H948      1.0  0.44300  0.58780  0.31769  1.0000
  Fe  Fe80      1.0  0.58132  0.70004  0.46694  1.0000
  S   S159      1.0  0.55502  0.74958  0.45063  1.0000
  H   H949      1.0  0.63040  0.90463  0.35667  1.0000
  S   S160      1.0  0.69571  0.87764  0.41011  1.0000
  C   C1176     1.0  0.52544  0.95750  0.36403  1.0000
  H   H950      1.0  0.78886  0.74630  0.37242  1.0000
  H   H951      1.0  0.87720  0.71012  0.36034  1.0000
  C   C1177     1.0  0.51991  0.92430  0.38264  1.0000
  C   C1178     1.0  0.64105  0.77992  0.42146  1.0000
  C   C1179     1.0  0.66261  0.80581  0.54344  1.0000
  H   H952      1.0  0.79244  0.87187  0.37168  1.0000
  H   H953      1.0  0.70757  0.80498  0.39570  1.0000
  C   C1180     1.0  0.70258  0.82551  0.52411  1.0000
  C   C1181     1.0  0.67195  0.80859  0.41096  1.0000
  C   C1182     1.0  0.60096  0.91918  0.35794  1.0000
  C   C1183     1.0  0.79862  0.92659  0.38327  1.0000
  C   C1184     1.0  0.48494  0.94924  0.51966  1.0000
  H   H954      1.0  0.55147  0.80278  0.35742  1.0000
  C   C1185     1.0  0.84595  0.01283  0.47769  1.0000
  C   C1186     1.0  0.90308  0.59433  0.36955  1.0000
  C   C1187     1.0  0.45328  0.81824  0.38645  1.0000
  H   H955      1.0  0.81228  0.02757  0.35315  1.0000
  P   P40       1.0  0.46955  0.80991  0.32139  1.0000
  C   C1188     1.0  0.84609  0.04643  0.46104  1.0000
  H   H956      1.0  0.73057  0.72933  0.33201  1.0000
  C   C1189     1.0  0.80937  0.75844  0.33976  1.0000
  C   C1190     1.0  0.45037  0.80249  0.46979  1.0000
  C   C1191     1.0  0.42706  0.83175  0.48733  1.0000
  C   C1192     1.0  0.42854  0.84698  0.40455  1.0000
  C   C1193     1.0  0.42342  0.94873  0.47907  1.0000
  C   C1194     1.0  0.67787  0.69551  0.31663  1.0000
  C   C1195     1.0  0.43965  0.67608  0.41765  1.0000
  H   H957      1.0  0.44977  0.68487  0.45034  1.0000
  H   H958      1.0  0.52167  0.64007  0.32387  1.0000
  C   C1196     1.0  0.90924  0.97479  0.53620  1.0000
  H   H959      1.0  0.48608  0.68918  0.54672  1.0000
  C   C1197     1.0  0.72315  0.70533  0.31458  1.0000
  C   C1198     1.0  0.58449  0.75990  0.31799  1.0000
  C   C1199     1.0  0.41935  0.70247  0.54561  1.0000
  C   C1200     1.0  0.45075  0.68061  0.55464  1.0000
  H   H960      1.0  0.79065  0.68839  0.55671  1.0000
