data_image0
_chemical_formula_structural       FeS2FeS2FeSFeS3C2HC2HSPHFeS2CHFe2SHCH2CH3C4HPC3HSC2HCHC3SHCH2C6H4C6H5CHCHC2H2C3H2PCH4C3HCFeH2C3H2C2HCSCH2CH4C2H2C4PH2C3H3C2H3CH2CSHCH3C2HSC3HC2H6CHCHC3H3CHC2HSHCHCHC3H2C3HC3HCH3CH2C2HC3HCH2CHCH4CHC9HCHCHCH2C2HC3H2C2HC4HFeHC3HSC4HSCHCHC2H5CFeS2FeS2FeSFeS3CHSHFeS2FeS2FeCFeS3HFeS3FeSFeS2CFeS2FeSFeHSFeS2FeS2FeSFeS3CH2C3HC6H4CHSHSC6H5CH2C6H4C6H5C6H4C2H2C7H6CH2CH2CHC6HC8HCH3C3H2CHC2HCH2CHCPH2C6PC3HC2HC11H2C2H2CHCH3CH7C4HC3HCH5C4HCH4CHC3HC2H2C7PC8HC9H11C2H7C6PC18H21C2HC2HC2H5CHSCHCH3C10H7FePC4SHC2H3CHC2PC2H3CSC5HC4HCH2C2HCHCHC2H8C3HC4HC4H2C2H2C2H2CSHCHC2HC4PHCHCP2HC6PC18H17CH2CH2CHC3H2C2H2C2HC6H2C2H2CH3FeHC2HCH2CHCH4CHC3H2C2HCH2C3HC4HC4H2CH6CSH2C2HSFeS2FeS2FeSFeS3CFeS2FeS2FeSFeS3FeHFeS2Fe2HS2HFeS3CH2C2FeS2FeS2FeSFeS3C3HC4H3C7H4CSC3H2CH2C6H4C6H4PCH3SC3HCH2CHCH2CHC7H4C6H3C7PC8H9CHC2PC2HCHCHC11HSC4H8C2HC6H5C7PH4C11PC3H3C7H8CH7CHC3H3CHCHSC2H3CH4C2H2CFeC3H3C2HCHC2H2C2HCH3C2PC4H2C6HCH2C2H2PH2CHC3H5C4HCHCH4CHCH2C3H2C2H3C4H2C7H2C5H3CHC3HC2HC3H4CHC2HCH2C3HC2HCHS2CHC7PHC5HC11H3CHC6PH2CH5C3H4C6PC8HSC8H12CH5CH2CH4FeC3H2C2SCHCFeC2H2C3H3C3H2C2HCH3PSC2H2CHCHCH2C3H3CSPH5CH4C2HC4H2CHC3HC2H5C5SHC3H2C3HCH3C2H2CH4FeSHFeS2FeSFeS3HFeS2FeSHFeSFeCS2HC6H2CH2SC2H3CH3CH2CH2C6H4C4HCH2C5HC3HCHC6H4CHCH2C2HC3HCHC2HC5HCH2C4H3CH4C2H8C3HC2HSCH2C2HCHC3H3CHC2H2C2HCHSCHCH2CPC4H2CH2CSHC4SC3H2CH5CH2C2HCHCHC2HCFeCH2C2HCHSHC2PHCPC3HCH3CHCHC3HC4HC4HC2H2C2HC4HC2HCHCHC3HCH2CHC2HCHPC3H2CHCH6CH2C3PCHC2H2CH5CHSHFeSCHFeH2SHSHS2HFeS2CS2CFeSFeS2FeS2FeS2Fe2S3FeS2FeS2Fe2S3C3HC4HCH2C6H4C6H4C6H4C6H4C6H4C6H6CFeCHCH2C7H2C2H3C3SC2HC2HC2H3CH2CHCSCHC8PC18H23C7HCH2FeC3HCHC2HCH5C2HCSH2CH4FeH4C2HC4HC4HC2H3CHC5H2C4HCH4C2HC5PC15H8CH5C6PC8H2C8H10FeHCH3CHCFeC4H2FeC4H2CHSH3CSC2H3CHSCHCH2CH4C7PC18H20C6PC2HC6H2C9H2C2PH3C3HPCHCHC2FeCHPC2HSCHCH5C5H3FeH5PC2HS3H2SC3HC2H2FeCFeHSFeS2HCFeCS2FeS2FeSC2H2CFeS2FeCFeS3H2CHCH2C6H4FeH2C5SHCFeHCHC6H5C4S2H2CH2SCH2C6FeCH3C3H2SH2C3H3C2HC6H2SHC3H2C5HC4HC2HCHCHCHCH2CHC3HC2HC4HCHC2H3C2HCH3CH7CHCHC6H3C4H3SCHCHSHCHPHPC3H2CH2C2H2FePH2C2HCH3C2SCH3C2HC2H2CH3FeS2FeSC2HFeCS2FeS2FeS2Fe2S3FeSFeHS2HCSH2CHC2H5SH2C4HCH2C7HCSCH2C3HSC3H2CH2C2H6C6H4C3HC2H4C3HCH3C7H3CHPH2CH2CH2C6PC10HC7H10CPHCH8CHCH3C2HC4H2C5H4C3H3CHC2FeHC2HCHCH2C2HCH2C2H2PH2CHC2SC3HCHCFeC2HC4HC5H2C6PHC2HC3SCHPC6H5CH3CHCH7C3PC4HCHC3SH5CHCHCH2CHC2SCHC2HC3HCH3C3H3C2FeC3H3C2HC2H2C2H3C2HCH2CSH3C2HC2H2CSH2CHC2H4CSC2FeS2FeS2FeHFeS2HC5SFeS2CSFeSFeSCS2CSFeSFeH2FeHSCH2FeS2C7H2C3H2CH2CSC6H6C3H2C3HFeH2CH2C2H6C2H2C2H3C8H2C4HC2H2CH2C6PC18H11CH4CH3C3H4FeH2CHCSPC2HC2HC2H6CH3CSFeHC6HCHFeCHPC10HSH2CH7CHC2HC3PC7HCH2C2FeCS2H2CSC2H5CH2CHPC3PHSHCPHCH3CSC3H2FeHSHCSC7H2C2PCH2C3HCH4C6H4C2HC2PH3CSHC5HCHCH3C2H2C2H2CH2SHC2SC2HCHSC2HC2FeC2SCFeCHCHC2HCSC3HCH2C10SH2C3HC3HCH5CH2CHCHCHC5HFeC2H2C2HCHC2FeCH2C2H3CHC4H4CHFeC4HCHCHCH2C2HCHC3H3C2HC2H7C5H3C2HCSHFeS2FeSFe2S4FeS2FeS2FeSFeS3CHCHFeSHC2SHFeS2FeS2FeS2FeS2FeSFeS3FeH2C2SHC6H4C6H4C6H3CHCHCH3C3HC2HCH2C3HCH2C2H2C3H2C6H4C6H4C6H4C6H3C4H2C7PC18H7CH10C6PC18H20C2SH2FeCSC2HCHCHCHC2FeCH4C3SCHCHCH2CHC3HCHC2FeH3C8PCH2PH2CH3C7HSC2H3CHC2H5C3HC3PC14H3CH4CH6C5HFeH2CHCH2PCFeHC3H4C4H2C3HC2H2CH2PCH2C3HCHC2HC7H3CSCS2HCHCHCHCHCH9C3FeH2CH2CH2C3HSHCHC3HC4SHCHCHSCH2CPH2C4HPCHC2H2C2SHC7PC18H2CH5CH13C4HCH4C2H8CH2CH2C2S2C2H2CHC2SH4CHPH2C2HFeS2FeS2FeHFeS3FeS2FeSCFeSFeS3FeHSFeCSHC2S2H2C2H2C6H4CHCH5C5H4CHCH2C6H5C3HCH4CSH3C3HC4H2CH2CSC2H2C2H2CH3CH3C5HCH3C2HCHFeHCHCPHC5SH2C2H5C8HC2HC8HC4H5CH4C3HCH3CSH2C2HC2HCH2C2HC2HC2HCHCHCHCH2CHC5HPCH2CH2CHCPHC4HC3HCPC5HC2HC4H3C9HC3HC2H8CHC3HCH3C5HCHC2FeS2FeS2FeS3H2CHCSC3HSCFeS2HC2FeSH2SC8HCHC3H3CH4SCFeC6HCH2C6H4C4HCH2CHC3H2CHCHC4HCHSHCHC3H3SC4H5C2PC2SH2C8HSCH3C2H3CHCH2CP2H2C4H3CHC2H2SCFeCHC2H2CH4FeCHFeH4CHC3H4PHCH3C2H3CHC2HC2SC2HC4FeC3H2CHC5HCH2CHCHC2HCH3CHCHCH3CHC2H2CH2C4SFeS2FeCFeSCSCSCFeS2FeS2FeSFeS3CSCS2HFeSCFeS2FeS2FeCFeS3FeS2FeS2FeSFeS3HC7H5C7H4C6H4C6H4C6H4C6H4C7H5C2H2C5HC6H4C6H4C2HCHC4PC4HC13HCH6SH11PC4HFeHC11H2C4H3CH4C6PC14H2C2H16C2H8C5HCHSH3CHCHCHCHC4PCHCHC2H3CHC7H7C8PH2C2H3CHCH2C6H6C2HC2HCH9SHCHC2HFeC2PCHCH2CH2C2H2C3H2CHC2H2SC2PH4C2HC2HC9HPHCHCH2PC2H2CH4C3SC2H2CH2C2H2C4HCHC3HCH2C5HC5H4CH2C4HC2HCHC6H4SH2C3H2CH4C2HCH4CHCHC2HC5PCHSCFeC5HPC3HC3HC2HSHSC3H2CFeHCHC3HC2H2CH2CHC3H3CHCHCSCHCSCHC4H2C2H5C3H2C2HCHCH2C3HCH2CH2CH2C4S2HFeS2FeS2FeSFeS3H2C2SCH2C2HC2HCSFeS2FeS2FeSFeS3C2H4CH2C7H3C2H2CH4C6H4C4HCHC2HC5H3CHC6H6C2HCHC2FeHC3H5C3HC4H2CHCHCH2C2PC2HC5HCH2C4HC4HCHC2HC3HC4HCH5CH3CHPHCHC4HCHC2H4CHCH3CHCHC3HCSCHCHC2PCSCH3C3HCHCH3PC4H2CHCH2SFeHCH3C3H2CH4C2H2C10H4CFeHCH2C2SCHC2HCPC2HCHC3HCHC3H2C4H2C3HCHCH3CH3SC2H2CHC2H2C2HCH2CHCH5C2PHCHCHC4H2C3HC2HC3HC2HCHC2H4C2HCHSC2H3C3H2PH2C4H3C4HCHC4FeS2FeSCFeSFeS3FeS2FeS2FeSFeS3FeS2FeS2FeCFeS3FeSHFeS2FeSFeHS2FeS2FeS2FeHFeS3C3HCHC2H3C2H2C2H2C6H6CHC3HC7H4C6H4C6H4CHC8H4CH2C5H3C6H5CSC3PC16H13C3PC4H3C7H5CH7C3H2C6H5C6PC14H14CHC2PC6HCH2CH3C2PC14H13C7HCHCH4PCHC5H2SC4H2CH2C2H6C2HCH2CHCH2CHC3HC2HC4HCSC3HC3H2CH2C6HCSC2H2CFeHCH2CHCH3CH4CHC2HCPC2H4C6H3C2HCHCH2CHCH2CHC5HCHCHC2HC3H3CH2CHCHCH3C2H2CH4CHC2HC2HC3SH2CH2C2HC2PHC3HC2HCH3C3HCHCHCHCH2CHCH2CHCHCHSHC2H2C8H2CPC4H2CHCHC5HC4PHCH3C3SHCH3C2H3CH2C3HCHCH2CHCH2CHC2HC3HC2H2CH2C2FeSCFeSHFeSFeS2FeS2FeS2CSFeS4FeS2FeS2FeSFeS3FeS2FeS2FeSFeHS2FeS2FeS2FeCFeS3C4HC6H11C9H4C6H2CHC4H2C6H4C6H4C6H4CHC5H2C2H5C8H6CH3PC14H10SHC2SHCHC2SC2H6C2H2C3H5C2H3CH2CHC7PC18H11C2H7C6PC18H20C3HC6H2CH2CH5CHCHC3HSHCH2CH2CHCHC2H4CHCHC2HC7PC3HC8H7CH7C2H2C5HC2HCHCHC4HFeCH2C2HC2HC8PHCHCHC2HCHCPC3HC2H2C3HC6PH2CH4CHPCH2PSCH2C3H3C2PHC2HC3PH2C2H3C2HC4HSCH2CHC2HC2HCH2C3FeHCH4CH2CHCHCHC2H3C2HCHC3HCHCHCH2C4HCH3FeC2H3C2HC6HFeSFeS2FeSFeS2C2SCFeSHFeS2FeSFeS3HSHFeS2FeS2FeSFeS3C6H4C6H4C4H3CHC4H4C7HCH2CH2CH3CH3C2HPH2C6H3C7H4SC2H3C3HC5PC2H2C5H2C7H3C3H3C3H6FeCHCHCHC2H2CH2CSHCH2CHC2HCH2CHC3PC19SH6CH10CHC2HC10H4CH4PCH2CHC2HPHC2H3CH3C2PC3H3CHCHC8H2C2H3CH2C2H2CH5C2HC4HCHC2H4CH3CH8C8PC14HC2H3CH3CH2C2H2CHC3FeCH2C4HCHC3HCHCH2C3HCH3SCH2C2H4CHPFeSFeS2FeSFeS3H2CFeS2FeSFeS3C2HCHCH4C2H5C2SH2C2HC8H2C3HCHC3H3C3H2C6H4C5SCHC12HC2SCHPH2CH4C2H2CHC3HCHCHC2H4CHC2HCH7C2HC3HFeC2H3CHPHC2H2CHC2SCH6CH2C3HPC2SHCFeC2H2C3H2C3HCHSC2HCH3C2HCHCHC9HCHC5HCH2SC4HC2PHFeHCFeSH2CFeS2HCSHCSFeS2FeS2FeSFeS3FeS2FeSCFeCFeS3FeSFeS2FeS2FeSFeS3HCH3CH2C7H4C6H4C6H4C6H4C6H4C7H3C7H3C6H4C6H4C5H7CHC3HCH2CSHC5HC4HCHSC3H4C6PC4H5CPHC6H5CHCHC2PC2H7C3H4CHSHCHCHCPH2C3HCHCH4CHCHCHCHC3H3CH2C8H5C7H2C2H6C2HC6H7C2HC4HC9H2CFeHCHCHCH3CH5C14PC5HCH2C9H4C2HCH2CH6C6PCHC2SCSPC2H2C6HFeHC3H2C3H2CH2FeHCHCPC4HC3HPC2HC3HCH4CHC2HCH4C3HCHCSHCHSHCFeC2H2PH2CHC2HCHC3H2C3HCPCFeCH3CH2C2HSHC2HSHCHSC3H2CHCH5C3H3CH2C6H3CHCH2C4H5C2SCPC3H4CH2CHC5H2C2HC4HCSH4CHCSHC3H2CSH2CHCH3CHSFeS2FeSFeS2CH2CFeS2FeS2FeSFeS3FeS2FeS2CHSHCH2SCFeS2FeS2FeSFeCS2CH11C7H4C2HC5H2C6H4C6H4C6H4FeC2PC9H6C4HC6H4C6H4C6PC3H2C8H2CH11C2HC4HC4HC2H2C3H2CHCH2CHSCHPCHC3HC9PC15H7CH9CHCH2C2H2CHCSHFeH2CH3C3H2CH2C2H2CH2CHC2SC4H2C2PC3HC8H2CPH2C8H4C2H3CFeC2H2C2HC2HCH2C2HCH2CHC2FeHCH5CHCHCHPHC2SC8HCH10CH2C2HCH2CH2CHCHCSCPCHC5H3CHC3HC3H3CHCH2C2H2C7PC18H17CHC3H2CHC2HFeSC2HCH4CHC3HPSCHCHCHC2HC2HSH2S2C5HC2SC4HC3H2CHCH2CH2FeHC3HC5HC3PC5HCH4CH4CHCSHCH3C4HPC2H2C3HC3H2CHCSHC7SC3H3CHFeH4FeCHCH2C4H4CS2HCHCH3FeS2FeSCFeSFeS3CH2FeCS2H2SH2FeSCFeS2FeSFeCS2HC3HCH4PHCH5C3HCHC10H4C2H2C2H2CHCHCH2C6H4C2HCH2C8HC2HSHC4H5C3HC2PCHC2HCHC2H2C2HC3HC2H3C2H2C2HCH2C2HPCHC2HC2HC2HC3HPH4C3H2SC2H2C3HCH3CH2C5H2CH2C4H3SCHC2HC6PC10HC7H2CH4CH4C2H7C8HCHCHFeC4H2CHCHCH2CH2C4H2CHCH2CHCH2C2H2CH3C3HCSHFeH2C5H3C2HC2FeS2FeSCHFeCS2FeS2FeS2FeSFeHS2CSFeS2FeS2CFeSHSFeS2FeS2FeSFeS3FeS2FeS2FeSFeHS2C5HCHCH4C6H4C6H4C3H2C6H6CHC6H4C6H4C6H4CH2CH2C6H4CHCHCH3CSH4C3HC3H2CH2SCH2C2H2C2H2CHFeCH3C2HC4HCHC2H3C3H4CHSC2H3C3HCHC3H3CH4PC4HC3H2C11PC10HC5HC4HCH8SC4H3C4PC10HC2H7CHC3HPC2H3CPFeH2C5HCHCH10C5H8C4H2C3HCHCPC3HCHC4HPC4H7FeC4HCH2CHC4H2C2H2C3H5CHCPCHC2H5PCHCH2C5HC2SC3HCH4C2SC2HC2HC3PC3H3C3HCH2CHC2HCSC2HC7H4C2H4CHC3H2C3H2SHC6H2C5HCHCHC2H4C5HCHCH4CH2C3HCHPCH2C5HCHC7H2C2H6C4HC3HCHFeH2CHC4HCH3CH3CH2C2HCHC2H3C2H2SH2C2HC4HSFeS2FeSFeS3CH2CHFeS2FeS2FeSFeS3FeS2FeS2FeSFeS3C4HC6H4SCPC9H4CPC5HCHC3HC2H5C6H2C7HCHC7H4C9H6CHCHCHC2H5CHC2HC4H3C9H2CH2C3HPH2C2HC2H4C2HCH4FeC2H4CHCHCSCPH4C6PC2H5CH3CHC8H3CH2C2H2C2H2C2H2C6PC8HC4HPC2H12CHCH2CH2C7PC9H2C7HCH12CH3C2H2C7H11C2HC2HC7HC4SCHCHCHCH4C3H3PHC2H2CH2C4HCHCH2C3HC2HSCS2H2C3H3C5HCFeS2FeS2FeSFeS3FeS2FeS2FeSFeS3HC3HCH3S2H3C6H4PHC3H2C2HC6H4C6H3CH2CHC2HCSC3H4C7H4C6HCH3CHCHCHCH2C6PC11H7CH8CH2CH2CH2C6HC3HCHC3HCHFeC2H2CHC8HCHC4H2CH2C3H2C2H4C7H3CH2C6SH8C3HC4H2CH2CHC2HC2H2C3HC5HC3H2C10H2CHP2HCHCH2CH2CFeHPC4FeCHCHC2HC2PH2CPFeSC2H2CH2CHC2H2C2H3C2HC3HC2H2CH2CH4C2H2CHCH5CH2C3HC2HCH3CHC4HCHCHFeS2FeSCFe2S3FeS2FeS2FeHFeS3FeS2FeS2FeSFeS3FeS2FeS2FeSFeS2FeS2FeS2FeSFeS3HC7H2C6H5CHC2HCH3CH5CPHC6H4C6H4C6H6C7H5SCH2C7H4C2HC2HPHCH2CH3CH3CH3C2H3C2H2C5SC2HCHCH4C5PC16H9CH2CHCHC3PHCHC4H2C3HC2HC2H3C2H5C4HC2HC5PC2PC9H2C7H8CH3CHC6PC8H2C2HCPCH10C2HC3HCHCHC3HCH2C2HCH3C2HC2H3CHC4HC4H6C3HC3HSC3H3C3H7C4H2C3HC11HCHC4H3CH7C2PCH3C4H3CHSHCH2C4H2C5HC3HCHCSHC2H2C3H3C2HPCH2CHCHC5HCHC7HC2HCHCH3C2HCH2CH2CH3SCH3C2FeCHCH3C2HC3H4C3SC2HPHC2HCHCHCHCHCH3CHC2H4C3HCH3FeS2FeS2FeSFeS3FeS2FeS2FeSFeS3HFeS2FeS2FeSFeCS2CHFeS2HFeCS3FeSH5CHC2H4C6H6CFeHC5H2C6H4C6H4C3H2C6H5C3SFeH2CHC7H2CH2C3HCHPHC2H2C2HC3H3C9H2CHSPH2C8H3CHPCH4C2H3CHCHCHC4HC8H4CHCHC2HC2HCHCHSC6H2C3SHC2H2CHCHCHCH2C2HSCHCSCHCHCH2CFeC2H3CHCH2CH3PHCH3C3H2C3SC5H2C4HCHCH2C2H2C3HC2HCHC2SC3H3CHCHC2PC18HC3H17C3HSC6PC4HC13H7C2H11C6PC5HC9HC2H4CHSCH4C2H2C3HC5HC3H5C2HC6HC3SCHC2H2CH2C2H4C2HSHCH4CHC3HPCHCH4C5HC2PHCH2CHC2HCH2C3HC3HC2PH3C2H2C6H3CH5CFeH4C2HCHCHCH2CHCH2CH4CH2CH2C2H3C3HCHC2HCH2CHC2H2CSCFeS2FeS2FeSFeS3HC2HC2HCHSFeS2FeSCFeSFeHS2C6H3CH5CHCHC2HCHCHC9H5CH3C6H5CHCPCSHCHSC2HC6PCHC2H3CPFeHCHPH3C6H3C5H5CH2C4H2C4H4C3HSC2HC3HC2HC3HC5PHCH3CHCH4C2H3C4HC4FeH2C2H2C3H5CHC4H9CHCSCH3C3HC3PH3C4H2CPC3H5C3HC5HC4H2CPHCH2C4H2C2HC4H2CH2FeS2FeS2Fe2S3FeS2CSFe2S3C3HCSCHC3H2CH2C6HSHC6H4C6H5CH3C4H3CHC4H2PC2HCSH3CHC3H3CH3C3HC3HCHC8HCHPC3HC2HSHSH4FeC3HC6H2CH2CHCH2C2PC3HCHCH2CH2C4HCH2CH2C3HC2HPC10HC2H3CHCHC2H8SC2HPHFeC2HC5H3C4HCH4CH2CH2CH2C9H4C2H2CH3CH2CHCH3FeS2FeS2FeSFeS3FeS2FeS2Fe3S3FeS2FeSFeS3HSFeS2FeSFeCSCFeS2FeS2FeSFeS3HC3HFePC6H4C3HCH3C6H4CHC2HC6H4C6H5CHCH4C7H5C5H3C2HC3PC2HCHC3HCSHSCHCHCH2CHC2H5C2H5C3H2C5HC2HC3H2CH4C6PC15H17C2H2C6HCH2C4H3CHC2HC6H3PH2PC7H3C3HC7PC14H18C4H5CH2CHSC3H4SH3C4H3C2H3C2SHSHCHC3HC3PC3HC5H2CH2C2H2CH5CHC2SC2HCHPC3HCH3C2HC2H2C8HCHC3HC2HC6H4C2HC4HC2HCHCHC2H2C3H2CHC2HC3HCHCH2CH2CHCHC2HCHCHCH4C2PHCHC2HC6HC2HCHC2HCHC2H2CHCHCH2CSHCH4PCHC2H3CHCFeCSFeHSCHC2S2FeS2FeS2FeSFeS2FeS3C5HC4H3SH2C2H2C2SC2SCH3C3HFeH2C5HCHC3SH3CHCHC2H2CHC6H4C6H4C7H3CPSCHCSC2SH3C3HC4H2CHPC2H4CH2FeCHSHCH3C9PC8H8CH2C4HSH2FeHCH2CH4CH2PH2CHC2HC6HC2HC3HC3H2C4HFeH6C2HC3HPH3CH2C3H2CFeHSCHC3H3C2HCHCPH2CHCHCH2C2HC3HCSHCHC2HC3HC4H6CHSC6H2CPH6CHC3H3CFeSCSFeSHFeSFeSH3FeS2FeSFeCSH2CH3CSHSFe2SFeS2FeSCS2CS2FeSFeSHSHC5H4FeC6H2CHFeH2C2HC7H4CHC4H2C6H4CH3FeC2HCHCHSHC4H2CHC2HCHC2H2C3H5C6PC18H20SH2C4H4SC6HCHCH4CHC3Fe2HCH2C2HCHCHC3HCFeC3HC2HC5PH2CH2C3SH2C3HSH2C3H2C2H2C2H4C4PC19H10C2HSC2HSCS2CHC2SPC3H2C2HCHC3H2C2HSH2C2HCH2CHC2HCH3CHCH2C4HC3H2C2SCH2CHC3HCHC2HCHSFeHC3H2C2H2C2PC2H2PC2H3CH2CHC2SHC4H2CFeSH2CPCH3C2HCHC2H2CHC2H2C2H3CFeHCHFeHC3H2SCH2CHC2H2SCHSC2FeS2HCSCFeSFeS2FeSFeS2FeSFeS3FeSFeS2FeSFeS3CFeHC3PC6H4C6H4C6H4C6H4C6H9C6H3C4HCH2C2HC2HCHC2H2CHSCH2CHSCH2C11PCH3C2HC4H2CHSH4C2SC3FeH2CH5C2HC2HCH4SCHCHC3H2C2H4CHC3HCSCHC3S2CHCHC2SCH2CH2CHFeCH2C3HCHCFeC2FeHC2HCSCH5CH5C2HC5HSHCPSPC2HCH3C2H3C2H3C2HCSCPC4FeHC2HC2HC8H3FeC2HC2H6CSCH2C2H2C3H2C11H2CHCHSC2H2CH4CH4CH2C6HCH2SPCH2C2H2C2HFeC3H4CHC2H2FeSHC3HPCSHC2H2C5HFeC3H5C7H2SHC2PH2C2HC3H2SH2CH3C3HC2HCH3CHC4HC2HFeHCH2CHFeS2FeS2FeCFeCS2FeS2CH2FeS2HFeS2FeSCFe2S3C3H2C2HC7H4CH2C2H2CHSC6H4C5HCHCH3CSC2HCHC3H5CHCHCH2CH4C4H2C2PC10HC7H2CH3C3H7CH2CPHCHSC2PH4C8HCH6CHCHC2H5CHC4HCHC2H2CHC2PCH2C4H3C2HCHCH3C2SH2CHC2PCHC3HCHC9HCH7CH2C6H3CHC2HCFeC2HCH2CHC3HC2H2CH3C4HSCHC4H2C
_chemical_formula_sum              "Fe512 S1024 C7680 H6144 P256"
_cell_length_a       79.5953
_cell_length_b       80.4838
_cell_length_c       112.794
_cell_angle_alpha    74.0708
_cell_angle_beta     74.1416
_cell_angle_gamma    74.0172

_space_group_name_H-M_alt    "P 1"
_space_group_IT_number       1

loop_
  _space_group_symop_operation_xyz
  'x, y, z'

loop_
  _atom_site_type_symbol
  _atom_site_label
  _atom_site_symmetry_multiplicity
  _atom_site_fract_x
  _atom_site_fract_y
  _atom_site_fract_z
  _atom_site_occupancy
  Fe  Fe1       1.0  0.44375  0.10069  0.03675  1.0000
  S   S1        1.0  0.42958  0.12832  0.02943  1.0000
  S   S2        1.0  0.47234  0.09115  0.03858  1.0000
  Fe  Fe2       1.0  0.41004  0.08584  0.04413  1.0000
  S   S3        1.0  0.39285  0.11245  0.03790  1.0000
  S   S4        1.0  0.39964  0.06073  0.05288  1.0000
  Fe  Fe3       1.0  0.41565  0.11492  0.02095  1.0000
  S   S5        1.0  0.41080  0.12547  0.00109  1.0000
  Fe  Fe4       1.0  0.40839  0.12323  0.04698  1.0000
  S   S6        1.0  0.39735  0.14041  0.06148  1.0000
  S   S7        1.0  0.43195  0.08765  0.02676  1.0000
  S   S8        1.0  0.42345  0.09626  0.05475  1.0000
  C   C1        1.0  0.28778  0.10420  0.00508  1.0000
  C   C2        1.0  0.44354  0.04734  0.06069  1.0000
  H   H1        1.0  0.42331  0.03596  0.07497  1.0000
  C   C3        1.0  0.38568  0.13660  0.17670  1.0000
  C   C4        1.0  0.37901  0.16607  0.12992  1.0000
  H   H2        1.0  0.42626  0.23933  0.13902  1.0000
  S   S9        1.0  0.38181  0.02798  0.01393  1.0000
  P   P1        1.0  0.34391  0.09906  0.01165  1.0000
  H   H3        1.0  0.40778  0.99656  0.05370  1.0000
  Fe  Fe5       1.0  0.43419  0.21310  0.07297  1.0000
  S   S10       1.0  0.44802  0.19053  0.08600  1.0000
  S   S11       1.0  0.42453  0.20934  0.05698  1.0000
  C   C5        1.0  0.36046  0.09542  0.99750  1.0000
  H   H4        1.0  0.38187  0.20843  0.15857  1.0000
  Fe  Fe6       1.0  0.46753  0.20745  0.08306  1.0000
  Fe  Fe7       1.0  0.43199  0.20523  0.10114  1.0000
  S   S12       1.0  0.41995  0.19059  0.12025  1.0000
  H   H5        1.0  0.48176  0.02332  0.01772  1.0000
  C   C6        1.0  0.47143  0.13468  0.05754  1.0000
  H   H6        1.0  0.35104  0.04239  0.05448  1.0000
  H   H7        1.0  0.36697  0.06675  0.00318  1.0000
  C   C7        1.0  0.37864  0.17136  0.18892  1.0000
  H   H8        1.0  0.37671  0.14047  0.01564  1.0000
  H   H9        1.0  0.40538  0.11852  0.16623  1.0000
  H   H10       1.0  0.49224  0.12619  0.99764  1.0000
  C   C8        1.0  0.34561  0.01723  0.99631  1.0000
  C   C9        1.0  0.29069  0.09973  0.01735  1.0000
  C   C10       1.0  0.33302  0.20343  0.22053  1.0000
  C   C11       1.0  0.32994  0.13132  0.01937  1.0000
  H   H11       1.0  0.35865  0.07062  0.05354  1.0000
  P   P2        1.0  0.49802  0.03168  0.05481  1.0000
  C   C12       1.0  0.30558  0.19946  0.21735  1.0000
  C   C13       1.0  0.32159  0.20545  0.21254  1.0000
  C   C14       1.0  0.46181  0.04623  0.05581  1.0000
  H   H12       1.0  0.29712  0.20042  0.21106  1.0000
  S   S13       1.0  0.49175  0.99547  0.00137  1.0000
  C   C15       1.0  0.40139  0.20368  0.12850  1.0000
  C   C16       1.0  0.38893  0.21644  0.12225  1.0000
  H   H13       1.0  0.15301  0.23956  0.23062  1.0000
  C   C17       1.0  0.41477  0.15971  0.10367  1.0000
  H   H14       1.0  0.46844  0.12389  0.05502  1.0000
  C   C18       1.0  0.39876  0.20083  0.14162  1.0000
  C   C19       1.0  0.36413  0.11000  0.98775  1.0000
  C   C20       1.0  0.39185  0.12645  0.16748  1.0000
  S   S14       1.0  0.45281  0.22020  0.09940  1.0000
  H   H15       1.0  0.40832  0.19090  0.14645  1.0000
  C   C21       1.0  0.46629  0.14351  0.99881  1.0000
  H   H16       1.0  0.31943  0.15605  0.02546  1.0000
  H   H17       1.0  0.36402  0.23577  0.12434  1.0000
  C   C22       1.0  0.39636  0.05086  0.04179  1.0000
  C   C23       1.0  0.39703  0.05998  0.02925  1.0000
  C   C24       1.0  0.39322  0.05252  0.02067  1.0000
  C   C25       1.0  0.38862  0.03594  0.02456  1.0000
  C   C26       1.0  0.38845  0.02655  0.03702  1.0000
  C   C27       1.0  0.39225  0.03405  0.04564  1.0000
  H   H18       1.0  0.40004  0.07298  0.02625  1.0000
  H   H19       1.0  0.39384  0.05968  0.01100  1.0000
  H   H20       1.0  0.38483  0.01381  0.04010  1.0000
  H   H21       1.0  0.39163  0.02704  0.05535  1.0000
  C   C28       1.0  0.40773  0.15804  0.05958  1.0000
  C   C29       1.0  0.41240  0.16064  0.06997  1.0000
  C   C30       1.0  0.41818  0.17602  0.06916  1.0000
  C   C31       1.0  0.41912  0.18903  0.05799  1.0000
  C   C32       1.0  0.41508  0.18612  0.04746  1.0000
  C   C33       1.0  0.40953  0.17063  0.04822  1.0000
  H   H22       1.0  0.41117  0.15091  0.07875  1.0000
  H   H23       1.0  0.42134  0.17811  0.07729  1.0000
  H   H24       1.0  0.41590  0.19606  0.03876  1.0000
  H   H25       1.0  0.40590  0.16880  0.04017  1.0000
  H   H26       1.0  0.38031  0.16996  0.14777  1.0000
  C   C34       1.0  0.44386  0.01143  0.04482  1.0000
  H   H27       1.0  0.34159  0.03838  0.03641  1.0000
  C   C35       1.0  0.33836  0.13562  0.11327  1.0000
  H   H28       1.0  0.44711  0.01159  0.05348  1.0000
  C   C36       1.0  0.46833  0.02082  0.07256  1.0000
  C   C37       1.0  0.30899  0.18548  0.18780  1.0000
  H   H29       1.0  0.44266  0.15761  0.10257  1.0000
  H   H30       1.0  0.31678  0.12902  0.02052  1.0000
  C   C38       1.0  0.40119  0.15056  0.10575  1.0000
  C   C39       1.0  0.44090  0.02733  0.03591  1.0000
  C   C40       1.0  0.43662  0.13200  0.10629  1.0000
  H   H31       1.0  0.38914  0.17304  0.16883  1.0000
  H   H32       1.0  0.32569  0.13482  0.11986  1.0000
  P   P3        1.0  0.36080  0.16089  0.18980  1.0000
  C   C41       1.0  0.47442  0.03297  0.06169  1.0000
  H   H33       1.0  0.46614  0.05574  0.04737  1.0000
  H   H34       1.0  0.48716  0.20298  0.10367  1.0000
  H   H35       1.0  0.41183  0.17401  0.10194  1.0000
  H   H36       1.0  0.41771  0.19295  0.18712  1.0000
  C   C42       1.0  0.39075  0.17541  0.17741  1.0000
  C   C43       1.0  0.34116  0.17742  0.18640  1.0000
  C   C44       1.0  0.46503  0.16578  0.05779  1.0000
  H   H37       1.0  0.47731  0.02292  0.04019  1.0000
  C   C45       1.0  0.48675  0.10598  0.03290  1.0000
  Fe  Fe8       1.0  0.38264  0.99874  0.01777  1.0000
  H   H38       1.0  0.39133  0.15610  0.12941  1.0000
  H   H39       1.0  0.39592  0.18665  0.20736  1.0000
  C   C46       1.0  0.33137  0.14669  0.02220  1.0000
  C   C47       1.0  0.34254  0.19439  0.17913  1.0000
  C   C48       1.0  0.38072  0.17538  0.19972  1.0000
  H   H40       1.0  0.49455  0.11854  0.06438  1.0000
  H   H41       1.0  0.47798  0.06504  0.06314  1.0000
  C   C49       1.0  0.34338  0.04879  0.99202  1.0000
  C   C50       1.0  0.33796  0.03353  0.99972  1.0000
  H   H42       1.0  0.44195  0.03954  0.03766  1.0000
  C   C51       1.0  0.36830  0.14723  0.17821  1.0000
  S   S15       1.0  0.45505  0.22911  0.06870  1.0000
  C   C52       1.0  0.31888  0.10584  0.99670  1.0000
  H   H43       1.0  0.33861  0.17052  0.21322  1.0000
  H   H44       1.0  0.35462  0.13727  0.15532  1.0000
  C   C53       1.0  0.44220  0.99566  0.04261  1.0000
  H   H45       1.0  0.38551  0.11895  0.15256  1.0000
  H   H46       1.0  0.23258  0.20916  0.21825  1.0000
  H   H47       1.0  0.36910  0.16849  0.08094  1.0000
  H   H48       1.0  0.27977  0.09734  0.02535  1.0000
  C   C54       1.0  0.44783  0.14080  0.98594  1.0000
  C   C55       1.0  0.34343  0.15631  0.21514  1.0000
  H   H49       1.0  0.46683  0.12917  0.02760  1.0000
  H   H50       1.0  0.37858  0.22012  0.06307  1.0000
  C   C56       1.0  0.34274  0.06482  0.02564  1.0000
  C   C57       1.0  0.34694  0.08092  0.02504  1.0000
  C   C58       1.0  0.34945  0.05325  0.04641  1.0000
  C   C59       1.0  0.49215  0.06416  0.06164  1.0000
  P   P4        1.0  0.37828  0.16262  0.10600  1.0000
  H   H51       1.0  0.35272  0.19362  0.14915  1.0000
  H   H52       1.0  0.35534  0.19817  0.17568  1.0000
  C   C60       1.0  0.35372  0.06919  0.04589  1.0000
  C   C61       1.0  0.37756  0.18105  0.09248  1.0000
  C   C62       1.0  0.37276  0.17386  0.14042  1.0000
  H   H53       1.0  0.32801  0.03425  0.00840  1.0000
  H   H54       1.0  0.37132  0.17302  0.20863  1.0000
  H   H55       1.0  0.34363  0.15528  0.17141  1.0000
  C   C63       1.0  0.35475  0.14789  0.20556  1.0000
  C   C64       1.0  0.40705  0.18662  0.18766  1.0000
  H   H56       1.0  0.33762  0.06141  0.99471  1.0000
  H   H57       1.0  0.32957  0.10824  0.98856  1.0000
  H   H58       1.0  0.32540  0.21097  0.20258  1.0000
  C   C65       1.0  0.34821  0.15000  0.02084  1.0000
  H   H59       1.0  0.32821  0.21990  0.17075  1.0000
  H   H60       1.0  0.48067  0.04668  0.98552  1.0000
  C   C66       1.0  0.48881  0.02732  0.03375  1.0000
  S   S16       1.0  0.37745  0.22398  0.17885  1.0000
  H   H61       1.0  0.34359  0.15457  0.12117  1.0000
  C   C67       1.0  0.37252  0.18018  0.08167  1.0000
  H   H62       1.0  0.43403  0.05762  0.05602  1.0000
  H   H63       1.0  0.46815  0.14978  0.00557  1.0000
  H   H64       1.0  0.32283  0.16007  0.19636  1.0000
  C   C68       1.0  0.35706  0.14722  0.17053  1.0000
  C   C69       1.0  0.35893  0.01609  0.98535  1.0000
  H   H65       1.0  0.36975  0.19310  0.06266  1.0000
  S   S17       1.0  0.35397  0.20912  0.21453  1.0000
  C   C70       1.0  0.36090  0.12943  0.20838  1.0000
  C   C71       1.0  0.40499  0.18284  0.17683  1.0000
  C   C72       1.0  0.46086  0.15173  0.05498  1.0000
  H   H66       1.0  0.26446  0.23730  0.23005  1.0000
  C   C73       1.0  0.48624  0.15569  0.09305  1.0000
  C   C74       1.0  0.32425  0.17307  0.19073  1.0000
  H   H67       1.0  0.44957  0.15409  0.05064  1.0000
  H   H68       1.0  0.33625  0.20362  0.13186  1.0000
  H   H69       1.0  0.48764  0.08942  0.06629  1.0000
  H   H70       1.0  0.33863  0.06282  0.01783  1.0000
  H   H71       1.0  0.38606  0.19774  0.10087  1.0000
  H   H72       1.0  0.36046  0.10539  0.22273  1.0000
  C   C75       1.0  0.39483  0.18302  0.19906  1.0000
  H   H73       1.0  0.38628  0.22241  0.08224  1.0000
  C   C76       1.0  0.32193  0.10130  0.00900  1.0000
  H   H74       1.0  0.48551  0.09031  0.00633  1.0000
  C   C77       1.0  0.36494  0.14804  0.10539  1.0000
  C   C78       1.0  0.36228  0.12252  0.01390  1.0000
  C   C79       1.0  0.34541  0.11913  0.01517  1.0000
  H   H75       1.0  0.42914  0.01260  0.01453  1.0000
  H   H76       1.0  0.39074  0.21860  0.11215  1.0000
  H   H77       1.0  0.42446  0.06563  0.99322  1.0000
  C   C80       1.0  0.34797  0.19289  0.13140  1.0000
  H   H78       1.0  0.41660  0.08722  0.00681  1.0000
  C   C81       1.0  0.40548  0.13193  0.10861  1.0000
  C   C82       1.0  0.35420  0.18516  0.12086  1.0000
  H   H79       1.0  0.27461  0.10528  0.00357  1.0000
  S   S18       1.0  0.41654  0.22671  0.08837  1.0000
  H   H80       1.0  0.37447  0.11324  0.01081  1.0000
  C   C83       1.0  0.37132  0.22349  0.14227  1.0000
  H   H81       1.0  0.42190  0.02191  0.99228  1.0000
  C   C84       1.0  0.43592  0.02766  0.02490  1.0000
  H   H82       1.0  0.49276  0.06765  0.99116  1.0000
  C   C85       1.0  0.43235  0.15045  0.10400  1.0000
  C   C86       1.0  0.48081  0.12390  0.02773  1.0000
  C   C87       1.0  0.41899  0.09180  0.99671  1.0000
  H   H83       1.0  0.47761  0.01047  0.07730  1.0000
  H   H84       1.0  0.39529  0.12439  0.11081  1.0000
  C   C88       1.0  0.38215  0.19660  0.09270  1.0000
  C   C89       1.0  0.34410  0.05102  0.03625  1.0000
  C   C90       1.0  0.36073  0.12656  0.09550  1.0000
  H   H85       1.0  0.33647  0.11692  0.10341  1.0000
  C   C91       1.0  0.36977  0.17168  0.12004  1.0000
  C   C92       1.0  0.44997  0.02185  0.07735  1.0000
  C   C93       1.0  0.47986  0.13002  0.99434  1.0000
  H   H86       1.0  0.44535  0.01230  0.08562  1.0000
  C   C94       1.0  0.38387  0.21084  0.14847  1.0000
  H   H87       1.0  0.41416  0.18617  0.16792  1.0000
  H   H88       1.0  0.45705  0.17907  0.05559  1.0000
  H   H89       1.0  0.34709  0.18994  0.11323  1.0000
  C   C95       1.0  0.30768  0.09829  0.01931  1.0000
  H   H90       1.0  0.48864  0.14887  0.01869  1.0000
  H   H91       1.0  0.46856  0.16676  0.10857  1.0000
  C   C96       1.0  0.49134  0.02738  0.02098  1.0000
  C   C97       1.0  0.35262  0.08293  0.03522  1.0000
  H   H92       1.0  0.39457  0.13638  0.18254  1.0000
  C   C98       1.0  0.47963  0.16279  0.06331  1.0000
  C   C99       1.0  0.38066  0.12668  0.15978  1.0000
  C   C100      1.0  0.37269  0.19430  0.07119  1.0000
  H   H93       1.0  0.36546  0.11890  0.08821  1.0000
  C   C101      1.0  0.37762  0.20952  0.07142  1.0000
  H   H94       1.0  0.45032  0.12492  0.10634  1.0000
  H   H95       1.0  0.34143  0.00535  0.00221  1.0000
  C   C102      1.0  0.37098  0.13768  0.09621  1.0000
  H   H96       1.0  0.30973  0.09482  0.02888  1.0000
  C   C103      1.0  0.38216  0.21073  0.08221  1.0000
  H   H97       1.0  0.38356  0.13837  0.08945  1.0000
  H   H98       1.0  0.29875  0.21190  0.17809  1.0000
  H   H99       1.0  0.42643  0.10841  0.11051  1.0000
  H   H100      1.0  0.35642  0.09494  0.03498  1.0000
  C   C104      1.0  0.35724  0.18722  0.14118  1.0000
  H   H101      1.0  0.36962  0.12256  0.20122  1.0000
  C   C105      1.0  0.31050  0.20229  0.18048  1.0000
  C   C106      1.0  0.43375  0.01214  0.02281  1.0000
  C   C107      1.0  0.34434  0.12815  0.23003  1.0000
  C   C108      1.0  0.36325  0.13698  0.16136  1.0000
  C   C109      1.0  0.42316  0.12273  0.10864  1.0000
  C   C110      1.0  0.36363  0.13794  0.01668  1.0000
  C   C111      1.0  0.34442  0.12552  0.10403  1.0000
  C   C112      1.0  0.36927  0.07826  0.99584  1.0000
  C   C113      1.0  0.43757  0.03512  0.07140  1.0000
  H   H102      1.0  0.43326  0.04004  0.01813  1.0000
  C   C114      1.0  0.34856  0.14685  0.11397  1.0000
  H   H103      1.0  0.47542  0.15687  0.08863  1.0000
  C   C115      1.0  0.48611  0.13166  0.06300  1.0000
  H   H104      1.0  0.48287  0.17389  0.06525  1.0000
  C   C116      1.0  0.32720  0.20676  0.17624  1.0000
  H   H105      1.0  0.45555  0.00524  0.99744  1.0000
  H   H106      1.0  0.34938  0.16186  0.02306  1.0000
  C   C117      1.0  0.37379  0.22616  0.12916  1.0000
  C   C118      1.0  0.49313  0.13499  0.02266  1.0000
  H   H107      1.0  0.29599  0.18209  0.19128  1.0000
  C   C119      1.0  0.43715  0.99614  0.03152  1.0000
  C   C120      1.0  0.33820  0.14650  0.22730  1.0000
  C   C121      1.0  0.35571  0.11962  0.22059  1.0000
  H   H108      1.0  0.27798  0.22940  0.19228  1.0000
  H   H109      1.0  0.39276  0.02548  0.98740  1.0000
  C   C122      1.0  0.42342  0.07958  0.98897  1.0000
  C   C123      1.0  0.45026  0.14883  0.99467  1.0000
  H   H110      1.0  0.43960  0.15901  0.99834  1.0000
  C   C124      1.0  0.49007  0.14564  0.06617  1.0000
  C   C125      1.0  0.41708  0.10989  0.99140  1.0000
  C   C126      1.0  0.30186  0.10726  0.99477  1.0000
  C   C127      1.0  0.22926  0.21801  0.22466  1.0000
  H   H111      1.0  0.35764  0.12338  0.98881  1.0000
  Fe  Fe9       1.0  0.35679  0.22940  0.19620  1.0000
  H   H112      1.0  0.26427  0.22055  0.21492  1.0000
  C   C128      1.0  0.47739  0.12165  0.98569  1.0000
  C   C129      1.0  0.48225  0.16109  0.10448  1.0000
  C   C130      1.0  0.21987  0.23544  0.22134  1.0000
  H   H113      1.0  0.29962  0.11071  0.98525  1.0000
  S   S19       1.0  0.49710  0.19619  0.07845  1.0000
  C   C131      1.0  0.49759  0.07809  0.06362  1.0000
  C   C132      1.0  0.30058  0.19208  0.23024  1.0000
  C   C133      1.0  0.27030  0.23196  0.21162  1.0000
  C   C134      1.0  0.27837  0.23673  0.19889  1.0000
  H   H114      1.0  0.42377  0.23275  0.11941  1.0000
  S   S20       1.0  0.35190  0.23515  0.15090  1.0000
  C   C135      1.0  0.49597  0.15969  0.11045  1.0000
  H   H115      1.0  0.49291  0.16432  0.11912  1.0000
  C   C136      1.0  0.32814  0.19585  0.23340  1.0000
  H   H116      1.0  0.49766  0.11138  0.08958  1.0000
  C   C137      1.0  0.45893  0.99105  0.00077  1.0000
  C   C138      1.0  0.49999  0.08779  0.00356  1.0000
  H   H117      1.0  0.47222  0.23875  0.14194  1.0000
  H   H118      1.0  0.31167  0.23959  0.22703  1.0000
  H   H119      1.0  0.34327  0.23890  0.22568  1.0000
  H   H120      1.0  0.21584  0.23995  0.21236  1.0000
  H   H121      1.0  0.18402  0.23985  0.22974  1.0000
  C   C139      1.0  0.38163  0.07578  0.98465  1.0000
  Fe  Fe10      1.0  0.39797  0.08765  0.44544  1.0000
  S   S21       1.0  0.42236  0.09157  0.43023  1.0000
  S   S22       1.0  0.40080  0.07531  0.46569  1.0000
  Fe  Fe11      1.0  0.37326  0.10014  0.42658  1.0000
  S   S23       1.0  0.39554  0.10596  0.40993  1.0000
  S   S24       1.0  0.34450  0.10251  0.42564  1.0000
  Fe  Fe12      1.0  0.41104  0.08006  0.41893  1.0000
  S   S25       1.0  0.42907  0.06022  0.40790  1.0000
  Fe  Fe13      1.0  0.40495  0.11712  0.42261  1.0000
  S   S26       1.0  0.41433  0.14286  0.41547  1.0000
  S   S27       1.0  0.38841  0.07339  0.43484  1.0000
  S   S28       1.0  0.38095  0.11403  0.43856  1.0000
  C   C140      1.0  0.17114  0.99730  0.32793  1.0000
  H   H122      1.0  0.07272  0.13260  0.32241  1.0000
  S   S29       1.0  0.48919  0.15152  0.42005  1.0000
  H   H123      1.0  0.09847  0.19079  0.37526  1.0000
  Fe  Fe14      1.0  0.30299  0.08749  0.37422  1.0000
  S   S30       1.0  0.30912  0.06718  0.36242  1.0000
  S   S31       1.0  0.32674  0.09694  0.37545  1.0000
  Fe  Fe15      1.0  0.26303  0.08915  0.38006  1.0000
  S   S32       1.0  0.26589  0.06884  0.36926  1.0000
  S   S33       1.0  0.23562  0.10142  0.38987  1.0000
  Fe  Fe16      1.0  0.28935  0.05435  0.37787  1.0000
  C   C141      1.0  0.07885  0.14641  0.28115  1.0000
  Fe  Fe17      1.0  0.28525  0.08335  0.35466  1.0000
  S   S34       1.0  0.28253  0.08598  0.33493  1.0000
  S   S35       1.0  0.28491  0.07327  0.39040  1.0000
  S   S36       1.0  0.28071  0.10511  0.36479  1.0000
  H   H124      1.0  0.11586  0.18962  0.35347  1.0000
  Fe  Fe18      1.0  0.25221  0.15085  0.27764  1.0000
  S   S37       1.0  0.25200  0.16358  0.29302  1.0000
  S   S38       1.0  0.24165  0.12623  0.28193  1.0000
  S   S39       1.0  0.27405  0.19092  0.27090  1.0000
  Fe  Fe19      1.0  0.28052  0.16389  0.28327  1.0000
  S   S40       1.0  0.30120  0.15430  0.29522  1.0000
  Fe  Fe20      1.0  0.24539  0.18922  0.27940  1.0000
  S   S41       1.0  0.22612  0.21260  0.28639  1.0000
  S   S42       1.0  0.28126  0.14942  0.26867  1.0000
  C   C142      1.0  0.29047  0.01612  0.35127  1.0000
  Fe  Fe21      1.0  0.06370  0.20819  0.34245  1.0000
  S   S43       1.0  0.06672  0.19348  0.36204  1.0000
  S   S44       1.0  0.08810  0.21153  0.32698  1.0000
  Fe  Fe22      1.0  0.04590  0.17997  0.36148  1.0000
  S   S45       1.0  0.04378  0.15146  0.36877  1.0000
  Fe  Fe23      1.0  0.04369  0.21513  0.36805  1.0000
  H   H125      1.0  0.33116  0.02765  0.38262  1.0000
  S   S46       1.0  0.04486  0.19280  0.34133  1.0000
  Fe  Fe24      1.0  0.16431  0.10231  0.33506  1.0000
  S   S47       1.0  0.14421  0.10577  0.35289  1.0000
  S   S48       1.0  0.16942  0.12836  0.32276  1.0000
  Fe  Fe25      1.0  0.16935  0.06233  0.34225  1.0000
  S   S49       1.0  0.14985  0.06273  0.36079  1.0000
  S   S50       1.0  0.18472  0.03623  0.33719  1.0000
  Fe  Fe26      1.0  0.13289  0.08540  0.34966  1.0000
  S   S51       1.0  0.10357  0.08685  0.35189  1.0000
  Fe  Fe27      1.0  0.16308  0.08321  0.36229  1.0000
  S   S52       1.0  0.16698  0.08533  0.38079  1.0000
  S   S53       1.0  0.15145  0.08359  0.33086  1.0000
  S   S54       1.0  0.18412  0.08095  0.34467  1.0000
  C   C143      1.0  0.08344  0.22865  0.31402  1.0000
  H   H126      1.0  0.24465  0.06294  0.28550  1.0000
  H   H127      1.0  0.18131  0.19773  0.30500  1.0000
  C   C144      1.0  0.12967  0.19353  0.27753  1.0000
  C   C145      1.0  0.17239  0.02419  0.33327  1.0000
  C   C146      1.0  0.04853  0.17190  0.28832  1.0000
  H   H128      1.0  0.10982  0.22195  0.30260  1.0000
  C   C147      1.0  0.06104  0.13426  0.36363  1.0000
  C   C148      1.0  0.07916  0.13468  0.36127  1.0000
  C   C149      1.0  0.09248  0.11994  0.35808  1.0000
  C   C150      1.0  0.08764  0.10512  0.35680  1.0000
  C   C151      1.0  0.06953  0.10494  0.35901  1.0000
  C   C152      1.0  0.05632  0.11930  0.36259  1.0000
  H   H129      1.0  0.08287  0.14615  0.36220  1.0000
  H   H130      1.0  0.10640  0.12019  0.35643  1.0000
  H   H131      1.0  0.06567  0.09357  0.35806  1.0000
  H   H132      1.0  0.04236  0.11883  0.36453  1.0000
  C   C153      1.0  0.20736  0.22139  0.27958  1.0000
  H   H133      1.0  0.19499  0.00262  0.33028  1.0000
  S   S55       1.0  0.02293  0.20014  0.36937  1.0000
  H   H134      1.0  0.35522  0.02883  0.40482  1.0000
  S   S56       1.0  0.04293  0.22762  0.38393  1.0000
  C   C154      1.0  0.22222  0.12672  0.29394  1.0000
  C   C155      1.0  0.21249  0.14265  0.29739  1.0000
  C   C156      1.0  0.19636  0.14302  0.30642  1.0000
  C   C157      1.0  0.19012  0.12743  0.31215  1.0000
  C   C158      1.0  0.20009  0.11144  0.30898  1.0000
  C   C159      1.0  0.21602  0.11113  0.29976  1.0000
  H   H135      1.0  0.21709  0.15478  0.29284  1.0000
  H   H136      1.0  0.18862  0.15538  0.30889  1.0000
  H   H137      1.0  0.19529  0.09943  0.31345  1.0000
  H   H138      1.0  0.22347  0.09886  0.29706  1.0000
  H   H139      1.0  0.01894  0.14728  0.35431  1.0000
  C   C160      1.0  0.47753  0.00876  0.40745  1.0000
  H   H140      1.0  0.33694  0.03017  0.35826  1.0000
  H   H141      1.0  0.18411  0.21172  0.26211  1.0000
  C   C161      1.0  0.28823  0.10475  0.32400  1.0000
  C   C162      1.0  0.30105  0.11266  0.32526  1.0000
  C   C163      1.0  0.30541  0.12768  0.31625  1.0000
  C   C164      1.0  0.29658  0.13500  0.30620  1.0000
  C   C165      1.0  0.28403  0.12677  0.30490  1.0000
  C   C166      1.0  0.27998  0.11162  0.31371  1.0000
  H   H142      1.0  0.30767  0.10704  0.33310  1.0000
  H   H143      1.0  0.31548  0.13371  0.31708  1.0000
  H   H144      1.0  0.27757  0.13189  0.29700  1.0000
  H   H145      1.0  0.27010  0.10548  0.31270  1.0000
  C   C167      1.0  0.21699  0.09714  0.38652  1.0000
  C   C168      1.0  0.21772  0.09242  0.37525  1.0000
  C   C169      1.0  0.20235  0.08920  0.37309  1.0000
  C   C170      1.0  0.18633  0.09059  0.38224  1.0000
  C   C171      1.0  0.18567  0.09556  0.39333  1.0000
  C   C172      1.0  0.20083  0.09898  0.39540  1.0000
  H   H146      1.0  0.23001  0.09144  0.36815  1.0000
  H   H147      1.0  0.20298  0.08537  0.36448  1.0000
  H   H148      1.0  0.17337  0.09665  0.40043  1.0000
  H   H149      1.0  0.20008  0.10277  0.40405  1.0000
  H   H150      1.0  0.14758  0.04358  0.33528  1.0000
  C   C173      1.0  0.43581  0.14409  0.41634  1.0000
  C   C174      1.0  0.44057  0.16055  0.41199  1.0000
  C   C175      1.0  0.45714  0.16244  0.41290  1.0000
  C   C176      1.0  0.46921  0.14793  0.41818  1.0000
  C   C177      1.0  0.46478  0.13130  0.42220  1.0000
  C   C178      1.0  0.44800  0.12941  0.42142  1.0000
  H   H151      1.0  0.43132  0.17196  0.40800  1.0000
  H   H152      1.0  0.46058  0.17527  0.40956  1.0000
  H   H153      1.0  0.47427  0.11990  0.42587  1.0000
  H   H154      1.0  0.44463  0.11658  0.42466  1.0000
  C   C179      1.0  0.41832  0.04651  0.40439  1.0000
  C   C180      1.0  0.40054  0.05229  0.40310  1.0000
  H   H155      1.0  0.12848  0.10869  0.30195  1.0000
  H   H156      1.0  0.39332  0.06556  0.40401  1.0000
  C   C181      1.0  0.09267  0.00394  0.36779  1.0000
  C   C182      1.0  0.34037  0.09853  0.41210  1.0000
  C   C183      1.0  0.32347  0.09603  0.41234  1.0000
  C   C184      1.0  0.31943  0.09439  0.40134  1.0000
  C   C185      1.0  0.33203  0.09600  0.38993  1.0000
  C   C186      1.0  0.34911  0.09779  0.38982  1.0000
  C   C187      1.0  0.35337  0.09873  0.40090  1.0000
  H   H157      1.0  0.31340  0.09559  0.42102  1.0000
  H   H158      1.0  0.30639  0.09255  0.40157  1.0000
  H   H159      1.0  0.35905  0.09877  0.38108  1.0000
  H   H160      1.0  0.36651  0.10036  0.40060  1.0000
  H   H161      1.0  0.49225  0.02679  0.37656  1.0000
  H   H162      1.0  0.18960  0.18954  0.24354  1.0000
  C   C188      1.0  0.00073  0.09545  0.33521  1.0000
  H   H163      1.0  0.02133  0.16336  0.30828  1.0000
  H   H164      1.0  0.38975  0.11338  0.46455  1.0000
  C   C189      1.0  0.33932  0.01858  0.35448  1.0000
  H   H165      1.0  0.07826  0.18573  0.31879  1.0000
  H   H166      1.0  0.38777  0.04864  0.37068  1.0000
  C   C190      1.0  0.13150  0.12174  0.29862  1.0000
  H   H167      1.0  0.48043  0.18594  0.43630  1.0000
  C   C191      1.0  0.09526  0.13499  0.32824  1.0000
  C   C192      1.0  0.03585  0.15993  0.32278  1.0000
  C   C193      1.0  0.34345  0.04889  0.38132  1.0000
  C   C194      1.0  0.07498  0.15014  0.29314  1.0000
  C   C195      1.0  0.14451  0.02049  0.33050  1.0000
  C   C196      1.0  0.37551  0.02762  0.37119  1.0000
  H   H168      1.0  0.20053  0.99564  0.39967  1.0000
  C   C197      1.0  0.05961  0.16276  0.29692  1.0000
  C   C198      1.0  0.42764  0.02935  0.40319  1.0000
  C   C199      1.0  0.42034  0.00410  0.44078  1.0000
  C   C200      1.0  0.03853  0.22937  0.30132  1.0000
  C   C201      1.0  0.18763  0.21908  0.26741  1.0000
  C   C202      1.0  0.03495  0.15523  0.33587  1.0000
  C   C203      1.0  0.20104  0.16677  0.25639  1.0000
  C   C204      1.0  0.40804  0.04838  0.28743  1.0000
  H   H169      1.0  0.46277  0.06572  0.39473  1.0000
  C   C205      1.0  0.41901  0.01771  0.40115  1.0000
  H   H170      1.0  0.38822  0.01935  0.36786  1.0000
  H   H171      1.0  0.13045  0.02552  0.33047  1.0000
  H   H172      1.0  0.33107  0.05712  0.38532  1.0000
  C   C206      1.0  0.40083  0.01071  0.47762  1.0000
  C   C207      1.0  0.48868  0.02536  0.38671  1.0000
  C   C208      1.0  0.25336  0.99972  0.30189  1.0000
  H   H173      1.0  0.25104  0.08420  0.30458  1.0000
  H   H174      1.0  0.32932  0.15321  0.23456  1.0000
  C   C209      1.0  0.19723  0.00789  0.39297  1.0000
  H   H175      1.0  0.37006  0.17163  0.47519  1.0000
  C   C210      1.0  0.13546  0.12952  0.30688  1.0000
  C   C211      1.0  0.10018  0.20417  0.27251  1.0000
  H   H176      1.0  0.30921  0.05284  0.28278  1.0000
  C   C212      1.0  0.29011  0.02464  0.36071  1.0000
  H   H177      1.0  0.26012  0.06740  0.32531  1.0000
  H   H178      1.0  0.30228  0.08556  0.27971  1.0000
  C   C213      1.0  0.27013  0.01191  0.31559  1.0000
  H   H179      1.0  0.21000  0.19857  0.27224  1.0000
  C   C214      1.0  0.25259  0.05808  0.33185  1.0000
  P   P5        1.0  0.48767  0.05370  0.41212  1.0000
  H   H180      1.0  0.02200  0.19463  0.32099  1.0000
  H   H181      1.0  0.27628  0.01625  0.32134  1.0000
  C   C215      1.0  0.38567  0.15668  0.44793  1.0000
  C   C216      1.0  0.37343  0.16349  0.45786  1.0000
  C   C217      1.0  0.29561  0.99764  0.35319  1.0000
  C   C218      1.0  0.39789  0.16235  0.46722  1.0000
  C   C219      1.0  0.41024  0.15519  0.45738  1.0000
  C   C220      1.0  0.40397  0.15269  0.44765  1.0000
  P   P6        1.0  0.43403  0.15069  0.45652  1.0000
  C   C221      1.0  0.44336  0.16832  0.44505  1.0000
  C   C222      1.0  0.43800  0.15006  0.47163  1.0000
  C   C223      1.0  0.29868  0.99619  0.37428  1.0000
  H   H182      1.0  0.45103  0.05050  0.42414  1.0000
  C   C224      1.0  0.48329  0.99162  0.47374  1.0000
  C   C225      1.0  0.44726  0.06481  0.48100  1.0000
  H   H183      1.0  0.24658  0.99491  0.29681  1.0000
  C   C226      1.0  0.46041  0.17040  0.44486  1.0000
  C   C227      1.0  0.46714  0.18470  0.43661  1.0000
  C   C228      1.0  0.45696  0.19706  0.42848  1.0000
  C   C229      1.0  0.43995  0.19523  0.42867  1.0000
  C   C230      1.0  0.43317  0.18095  0.43689  1.0000
  C   C231      1.0  0.44519  0.12894  0.45333  1.0000
  C   C232      1.0  0.43528  0.11667  0.45376  1.0000
  C   C233      1.0  0.44387  0.09940  0.45247  1.0000
  C   C234      1.0  0.46239  0.09405  0.45104  1.0000
  C   C235      1.0  0.47232  0.10584  0.45106  1.0000
  C   C236      1.0  0.46383  0.12325  0.45208  1.0000
  H   H184      1.0  0.38110  0.15448  0.44037  1.0000
  H   H185      1.0  0.35923  0.16649  0.45808  1.0000
  C   C237      1.0  0.38278  0.01180  0.44531  1.0000
  C   C238      1.0  0.32971  0.01921  0.43965  1.0000
  H   H186      1.0  0.41331  0.14766  0.43981  1.0000
  H   H187      1.0  0.43808  0.17794  0.46789  1.0000
  C   C239      1.0  0.19492  0.00789  0.38105  1.0000
  H   H188      1.0  0.32796  0.00629  0.33172  1.0000
  C   C240      1.0  0.33223  0.02014  0.34410  1.0000
  H   H189      1.0  0.49756  0.05178  0.43583  1.0000
  H   H190      1.0  0.46854  0.16111  0.45110  1.0000
  H   H191      1.0  0.34022  0.12059  0.23947  1.0000
  C   C241      1.0  0.15402  0.99800  0.36170  1.0000
  H   H192      1.0  0.43216  0.20463  0.42221  1.0000
  H   H193      1.0  0.42007  0.17981  0.43665  1.0000
  H   H194      1.0  0.42091  0.12014  0.45527  1.0000
  H   H195      1.0  0.43611  0.09008  0.45276  1.0000
  H   H196      1.0  0.46911  0.08075  0.44999  1.0000
  H   H197      1.0  0.48666  0.10146  0.45005  1.0000
  H   H198      1.0  0.47190  0.13214  0.45191  1.0000
  C   C242      1.0  0.10511  0.02986  0.35672  1.0000
  C   C243      1.0  0.08990  0.04073  0.36245  1.0000
  C   C244      1.0  0.07601  0.03332  0.37080  1.0000
  C   C245      1.0  0.07737  0.01501  0.37350  1.0000
  H   H199      1.0  0.32225  0.01697  0.44932  1.0000
  C   C246      1.0  0.10648  0.01156  0.35933  1.0000
  C   C247      1.0  0.39377  0.10684  0.47340  1.0000
  C   C248      1.0  0.03151  0.20152  0.31394  1.0000
  H   H200      1.0  0.32428  0.03272  0.34027  1.0000
  C   C249      1.0  0.13255  0.21081  0.27310  1.0000
  H   H201      1.0  0.32327  0.02768  0.40973  1.0000
  H   H202      1.0  0.21198  0.05443  0.32318  1.0000
  H   H203      1.0  0.28704  0.03573  0.29638  1.0000
  H   H204      1.0  0.12254  0.18596  0.30704  1.0000
  H   H205      1.0  0.43483  0.00112  0.43889  1.0000
  C   C250      1.0  0.44864  0.04609  0.44408  1.0000
  C   C251      1.0  0.13559  0.18799  0.30670  1.0000
  C   C252      1.0  0.06757  0.15536  0.27277  1.0000
  C   C253      1.0  0.16647  0.18802  0.29610  1.0000
  H   H206      1.0  0.46240  0.20785  0.42188  1.0000
  C   C254      1.0  0.26375  0.07712  0.29998  1.0000
  H   H207      1.0  0.06492  0.22784  0.28946  1.0000
  H   H208      1.0  0.11587  0.03572  0.35032  1.0000
  H   H209      1.0  0.08895  0.05491  0.36046  1.0000
  H   H210      1.0  0.06428  0.04182  0.37527  1.0000
  C   C255      1.0  0.48572  0.03659  0.40530  1.0000
  H   H211      1.0  0.16476  0.01163  0.37068  1.0000
  C   C256      1.0  0.32089  0.02194  0.42989  1.0000
  C   C257      1.0  0.45779  0.04938  0.43149  1.0000
  C   C258      1.0  0.26747  0.05861  0.30174  1.0000
  H   H212      1.0  0.13575  0.12243  0.31653  1.0000
  C   C259      1.0  0.13979  0.15537  0.29012  1.0000
  C   C260      1.0  0.05550  0.22042  0.29611  1.0000
  H   H213      1.0  0.28711  0.02387  0.34243  1.0000
  H   H214      1.0  0.47636  0.01939  0.42313  1.0000
  C   C261      1.0  0.47510  0.04603  0.45072  1.0000
  C   C262      1.0  0.31994  0.11234  0.28432  1.0000
  C   C263      1.0  0.33143  0.12390  0.27824  1.0000
  C   C264      1.0  0.34862  0.11983  0.28056  1.0000
  C   C265      1.0  0.35434  0.10416  0.28895  1.0000
  C   C266      1.0  0.34282  0.09249  0.29515  1.0000
  C   C267      1.0  0.32545  0.09684  0.29292  1.0000
  P   P7        1.0  0.35038  0.07246  0.30611  1.0000
  C   C268      1.0  0.37296  0.06277  0.29897  1.0000
  C   C269      1.0  0.34962  0.07719  0.32105  1.0000
  C   C270      1.0  0.34720  0.09464  0.32230  1.0000
  C   C271      1.0  0.34694  0.09798  0.33389  1.0000
  C   C272      1.0  0.34916  0.08397  0.34427  1.0000
  C   C273      1.0  0.35139  0.06661  0.34314  1.0000
  C   C274      1.0  0.35142  0.06322  0.33163  1.0000
  C   C275      1.0  0.38633  0.05572  0.30604  1.0000
  H   H215      1.0  0.08748  0.20173  0.27247  1.0000
  C   C276      1.0  0.08295  0.17155  0.32120  1.0000
  C   C277      1.0  0.39484  0.05541  0.28032  1.0000
  C   C278      1.0  0.37737  0.06260  0.28605  1.0000
  C   C279      1.0  0.33596  0.05725  0.30912  1.0000
  C   C280      1.0  0.34096  0.04278  0.30326  1.0000
  C   C281      1.0  0.32945  0.03123  0.30587  1.0000
  C   C282      1.0  0.31293  0.03407  0.31429  1.0000
  C   C283      1.0  0.30780  0.04857  0.31999  1.0000
  C   C284      1.0  0.31935  0.05998  0.31751  1.0000
  H   H216      1.0  0.30642  0.11587  0.28280  1.0000
  H   H217      1.0  0.32672  0.13635  0.27210  1.0000
  H   H218      1.0  0.35734  0.12905  0.27606  1.0000
  H   H219      1.0  0.36764  0.10130  0.29077  1.0000
  H   H220      1.0  0.31596  0.08860  0.29794  1.0000
  H   H221      1.0  0.34524  0.10574  0.31445  1.0000
  H   H222      1.0  0.34482  0.11146  0.33490  1.0000
  H   H223      1.0  0.34893  0.08657  0.35325  1.0000
  H   H224      1.0  0.35280  0.05585  0.35130  1.0000
  H   H225      1.0  0.35295  0.04970  0.33095  1.0000
  H   H226      1.0  0.38348  0.05587  0.31594  1.0000
  C   C285      1.0  0.45748  0.09395  0.39037  1.0000
  C   C286      1.0  0.49208  0.11417  0.47581  1.0000
  H   H227      1.0  0.39817  0.05541  0.27034  1.0000
  H   H228      1.0  0.36729  0.06810  0.28040  1.0000
  H   H229      1.0  0.35369  0.04029  0.29677  1.0000
  H   H230      1.0  0.33336  0.02004  0.30140  1.0000
  H   H231      1.0  0.30414  0.02497  0.31653  1.0000
  H   H232      1.0  0.29498  0.05091  0.32652  1.0000
  H   H233      1.0  0.31537  0.07101  0.32213  1.0000
  C   C287      1.0  0.21695  0.10741  0.33731  1.0000
  C   C288      1.0  0.23491  0.10710  0.33623  1.0000
  C   C289      1.0  0.23953  0.11979  0.34031  1.0000
  C   C290      1.0  0.22617  0.13293  0.34532  1.0000
  C   C291      1.0  0.20802  0.13316  0.34668  1.0000
  C   C292      1.0  0.20349  0.12030  0.34260  1.0000
  P   P8        1.0  0.19119  0.15176  0.35141  1.0000
  C   C293      1.0  0.16890  0.14948  0.35228  1.0000
  C   C294      1.0  0.19120  0.15400  0.36697  1.0000
  C   C295      1.0  0.20430  0.14322  0.37363  1.0000
  C   C296      1.0  0.20351  0.14467  0.38586  1.0000
  C   C297      1.0  0.18953  0.15663  0.39165  1.0000
  C   C298      1.0  0.17624  0.16714  0.38523  1.0000
  C   C299      1.0  0.17699  0.16576  0.37300  1.0000
  C   C300      1.0  0.16027  0.15777  0.34219  1.0000
  C   C301      1.0  0.14241  0.15729  0.34346  1.0000
  C   C302      1.0  0.13302  0.14869  0.35481  1.0000
  C   C303      1.0  0.14169  0.13999  0.36477  1.0000
  C   C304      1.0  0.15964  0.14012  0.36345  1.0000
  C   C305      1.0  0.19581  0.17109  0.33935  1.0000
  C   C306      1.0  0.20466  0.16924  0.32699  1.0000
  C   C307      1.0  0.20875  0.18395  0.31768  1.0000
  C   C308      1.0  0.20367  0.20071  0.32050  1.0000
  C   C309      1.0  0.19452  0.20278  0.33266  1.0000
  C   C310      1.0  0.19066  0.18804  0.34207  1.0000
  H   H234      1.0  0.21352  0.09783  0.33380  1.0000
  H   H235      1.0  0.24528  0.09720  0.33206  1.0000
  H   H236      1.0  0.25350  0.11961  0.33934  1.0000
  H   H237      1.0  0.23001  0.14313  0.34792  1.0000
  H   H238      1.0  0.18964  0.12046  0.34317  1.0000
  H   H239      1.0  0.21484  0.13324  0.36971  1.0000
  H   H240      1.0  0.21351  0.13610  0.39099  1.0000
  H   H241      1.0  0.18882  0.15744  0.40121  1.0000
  H   H242      1.0  0.16514  0.17610  0.38983  1.0000
  H   H243      1.0  0.16620  0.17354  0.36836  1.0000
  H   H244      1.0  0.16737  0.16428  0.33327  1.0000
  H   H245      1.0  0.13598  0.16325  0.33554  1.0000
  H   H246      1.0  0.11923  0.14820  0.35576  1.0000
  H   H247      1.0  0.13468  0.13264  0.37339  1.0000
  H   H248      1.0  0.16625  0.13293  0.37117  1.0000
  H   H249      1.0  0.20852  0.15644  0.32448  1.0000
  H   H250      1.0  0.21578  0.18237  0.30822  1.0000
  H   H251      1.0  0.20686  0.21206  0.31320  1.0000
  H   H252      1.0  0.19056  0.21579  0.33482  1.0000
  H   H253      1.0  0.18376  0.18999  0.35140  1.0000
  H   H254      1.0  0.13699  0.15385  0.27193  1.0000
  C   C311      1.0  0.46098  0.10907  0.39212  1.0000
  C   C312      1.0  0.24830  0.01748  0.30284  1.0000
  H   H255      1.0  0.06655  0.00965  0.38018  1.0000
  C   C313      1.0  0.18132  0.15813  0.27645  1.0000
  C   C314      1.0  0.37954  0.16642  0.46746  1.0000
  H   H256      1.0  0.30810  0.18463  0.24823  1.0000
  C   C315      1.0  0.15420  0.03073  0.33318  1.0000
  C   C316      1.0  0.39302  0.11681  0.48209  1.0000
  H   H257      1.0  0.47248  0.99732  0.41336  1.0000
  H   H258      1.0  0.43907  0.09288  0.47955  1.0000
  H   H259      1.0  0.15623  0.20261  0.32336  1.0000
  H   H260      1.0  0.20878  0.14468  0.27113  1.0000
  H   H261      1.0  0.41090  0.00423  0.47070  1.0000
  C   C317      1.0  0.14998  0.18434  0.29666  1.0000
  H   H262      1.0  0.10451  0.17371  0.32837  1.0000
  S   S57       1.0  0.04208  0.23068  0.34854  1.0000
  C   C318      1.0  0.35934  0.05490  0.37785  1.0000
  H   H263      1.0  0.14293  0.00902  0.36008  1.0000
  C   C319      1.0  0.07389  0.16008  0.31935  1.0000
  H   H264      1.0  0.48256  0.14170  0.47616  1.0000
  H   H265      1.0  0.04378  0.17525  0.26982  1.0000
  H   H266      1.0  0.48009  0.00093  0.39017  1.0000
  C   C320      1.0  0.24626  0.04653  0.32767  1.0000
  C   C321      1.0  0.23679  0.03448  0.33661  1.0000
  C   C322      1.0  0.23370  0.03404  0.34949  1.0000
  C   C323      1.0  0.23988  0.04571  0.35356  1.0000
  C   C324      1.0  0.24927  0.05773  0.34473  1.0000
  C   C325      1.0  0.23172  0.06393  0.29194  1.0000
  C   C326      1.0  0.21630  0.07192  0.28710  1.0000
  C   C327      1.0  0.19946  0.07325  0.29523  1.0000
  C   C328      1.0  0.19807  0.06668  0.30819  1.0000
  C   C329      1.0  0.21346  0.05905  0.31309  1.0000
  H   H267      1.0  0.23155  0.02558  0.33363  1.0000
  H   H268      1.0  0.22646  0.02468  0.35631  1.0000
  H   H269      1.0  0.23741  0.04547  0.36355  1.0000
  H   H270      1.0  0.25400  0.06683  0.34787  1.0000
  H   H271      1.0  0.21740  0.07721  0.27706  1.0000
  H   H272      1.0  0.18748  0.07946  0.29153  1.0000
  H   H273      1.0  0.18504  0.06758  0.31452  1.0000
  Fe  Fe28      1.0  0.27202  0.17639  0.25713  1.0000
  P   P9        1.0  0.25040  0.04660  0.31107  1.0000
  C   C330      1.0  0.00599  0.15458  0.32663  1.0000
  C   C331      1.0  0.29653  0.05959  0.28761  1.0000
  C   C332      1.0  0.45739  0.04411  0.45371  1.0000
  C   C333      1.0  0.18089  0.00761  0.33041  1.0000
  S   S58       1.0  0.24282  0.17646  0.26479  1.0000
  H   H274      1.0  0.49140  0.19135  0.47564  1.0000
  C   C334      1.0  0.47257  0.10740  0.39989  1.0000
  C   C335      1.0  0.34813  0.02606  0.41456  1.0000
  H   H275      1.0  0.35931  0.06766  0.37927  1.0000
  H   H276      1.0  0.35802  0.99903  0.39903  1.0000
  H   H277      1.0  0.08418  0.14323  0.29926  1.0000
  C   C336      1.0  0.48007  0.09067  0.40635  1.0000
  H   H278      1.0  0.01378  0.08770  0.33667  1.0000
  C   C337      1.0  0.34792  0.01973  0.43692  1.0000
  C   C338      1.0  0.35958  0.02149  0.37459  1.0000
  P   P10       1.0  0.35860  0.01789  0.44962  1.0000
  C   C339      1.0  0.35321  0.03913  0.45389  1.0000
  C   C340      1.0  0.09796  0.16475  0.32662  1.0000
  H   H279      1.0  0.30685  0.02158  0.43201  1.0000
  H   H280      1.0  0.28680  0.03890  0.35898  1.0000
  H   H281      1.0  0.01140  0.11437  0.31931  1.0000
  C   C341      1.0  0.10338  0.22126  0.26784  1.0000
  S   S59       1.0  0.29499  0.02480  0.38402  1.0000
  C   C342      1.0  0.36397  0.04262  0.46053  1.0000
  C   C343      1.0  0.36082  0.05937  0.46311  1.0000
  C   C344      1.0  0.34691  0.07280  0.45906  1.0000
  C   C345      1.0  0.33603  0.06942  0.45255  1.0000
  C   C346      1.0  0.33916  0.05269  0.44993  1.0000
  H   H282      1.0  0.00752  0.23461  0.37366  1.0000
  C   C347      1.0  0.39243  0.02448  0.43753  1.0000
  C   C348      1.0  0.41110  0.02069  0.43542  1.0000
  C   C349      1.0  0.39218  0.99517  0.45074  1.0000
  C   C350      1.0  0.17044  0.18338  0.26086  1.0000
  H   H283      1.0  0.37106  0.02360  0.42191  1.0000
  C   C351      1.0  0.05245  0.16815  0.27635  1.0000
  H   H284      1.0  0.12667  0.19721  0.32402  1.0000
  H   H285      1.0  0.33700  0.19420  0.23960  1.0000
  C   C352      1.0  0.43992  0.16529  0.47446  1.0000
  C   C353      1.0  0.27179  0.23919  0.26334  1.0000
  H   H286      1.0  0.35088  0.01424  0.47711  1.0000
  C   C354      1.0  0.39190  0.99275  0.35601  1.0000
  H   H287      1.0  0.43479  0.04501  0.44633  1.0000
  C   C355      1.0  0.18722  0.18066  0.25267  1.0000
  H   H288      1.0  0.03692  0.18211  0.29082  1.0000
  C   C356      1.0  0.34923  0.99095  0.39897  1.0000
  C   C357      1.0  0.07988  0.14173  0.32326  1.0000
  H   H289      1.0  0.34500  0.08602  0.46050  1.0000
  H   H290      1.0  0.32574  0.08006  0.44893  1.0000
  H   H291      1.0  0.33101  0.05072  0.44439  1.0000
  H   H292      1.0  0.38553  0.03741  0.43324  1.0000
  H   H293      1.0  0.41843  0.03064  0.42958  1.0000
  H   H294      1.0  0.14290  0.15179  0.30924  1.0000
  H   H295      1.0  0.47544  0.11915  0.40108  1.0000
  H   H296      1.0  0.45035  0.04124  0.46345  1.0000
  C   C358      1.0  0.11051  0.20224  0.35623  1.0000
  C   C359      1.0  0.10070  0.20289  0.36850  1.0000
  C   C360      1.0  0.09299  0.21921  0.37187  1.0000
  H   H297      1.0  0.41162  0.03416  0.47236  1.0000
  C   C361      1.0  0.47572  0.05078  0.42840  1.0000
  C   C362      1.0  0.11292  0.21790  0.34741  1.0000
  C   C363      1.0  0.19708  0.23825  0.28085  1.0000
  C   C364      1.0  0.23049  0.22337  0.24445  1.0000
  H   H298      1.0  0.37520  0.03258  0.46335  1.0000
  C   C365      1.0  0.40127  0.02349  0.39978  1.0000
  C   C366      1.0  0.48411  0.04969  0.43807  1.0000
  C   C367      1.0  0.16744  0.17226  0.27290  1.0000
  C   C368      1.0  0.19803  0.15543  0.26823  1.0000
  H   H299      1.0  0.11017  0.17740  0.28137  1.0000
  H   H300      1.0  0.09318  0.23207  0.26428  1.0000
  C   C369      1.0  0.11321  0.19035  0.27744  1.0000
  C   C370      1.0  0.33436  0.00528  0.33927  1.0000
  H   H301      1.0  0.48816  0.08970  0.41293  1.0000
  H   H302      1.0  0.11591  0.14120  0.33417  1.0000
  C   C371      1.0  0.09545  0.23488  0.36310  1.0000
  C   C372      1.0  0.31182  0.19041  0.23829  1.0000
  H   H303      1.0  0.07374  0.19526  0.29579  1.0000
  H   H304      1.0  0.16007  0.19434  0.25779  1.0000
  C   C373      1.0  0.37535  0.04426  0.37284  1.0000
  S   S60       1.0  0.39029  0.00886  0.39753  1.0000
  H   H305      1.0  0.08478  0.21976  0.38123  1.0000
  C   C374      1.0  0.34893  0.00215  0.35995  1.0000
  H   H306      1.0  0.12025  0.21713  0.33793  1.0000
  C   C375      1.0  0.01967  0.15036  0.34422  1.0000
  C   C376      1.0  0.47740  0.07536  0.40412  1.0000
  H   H307      1.0  0.48179  0.04502  0.45814  1.0000
  C   C377      1.0  0.44855  0.08097  0.48258  1.0000
  C   C378      1.0  0.15286  0.00358  0.32816  1.0000
  C   C379      1.0  0.10426  0.14649  0.32999  1.0000
  C   C380      1.0  0.13188  0.13063  0.28605  1.0000
  P   P11       1.0  0.05461  0.16849  0.31216  1.0000
  H   H308      1.0  0.01355  0.22692  0.31447  1.0000
  C   C381      1.0  0.40379  0.04854  0.30028  1.0000
  H   H309      1.0  0.14483  0.21370  0.27360  1.0000
  C   C382      1.0  0.23041  0.05744  0.30500  1.0000
  P   P12       1.0  0.14660  0.17629  0.28425  1.0000
  P   P13       1.0  0.35938  0.99991  0.37278  1.0000
  H   H310      1.0  0.44806  0.09515  0.38466  1.0000
  C   C383      1.0  0.27735  0.12179  0.40506  1.0000
  C   C384      1.0  0.26295  0.12178  0.40024  1.0000
  C   C385      1.0  0.26048  0.13269  0.38859  1.0000
  C   C386      1.0  0.27250  0.14343  0.38168  1.0000
  C   C387      1.0  0.28727  0.14324  0.38631  1.0000
  C   C388      1.0  0.28950  0.13247  0.39813  1.0000
  P   P14       1.0  0.30239  0.15760  0.37732  1.0000
  C   C389      1.0  0.32425  0.14945  0.38117  1.0000
  C   C390      1.0  0.30412  0.15874  0.36081  1.0000
  C   C391      1.0  0.30263  0.17503  0.35207  1.0000
  C   C392      1.0  0.30286  0.17569  0.33949  1.0000
  C   C393      1.0  0.30456  0.16015  0.33557  1.0000
  C   C394      1.0  0.30626  0.14391  0.34421  1.0000
  C   C395      1.0  0.30609  0.14318  0.35675  1.0000
  C   C396      1.0  0.33919  0.14261  0.37250  1.0000
  C   C397      1.0  0.35621  0.13755  0.37528  1.0000
  C   C398      1.0  0.35842  0.13896  0.38681  1.0000
  C   C399      1.0  0.34360  0.14546  0.39558  1.0000
  C   C400      1.0  0.32663  0.15089  0.39272  1.0000
  C   C401      1.0  0.29351  0.17936  0.38077  1.0000
  C   C402      1.0  0.30501  0.19089  0.37851  1.0000
  C   C403      1.0  0.29825  0.20783  0.38106  1.0000
  C   C404      1.0  0.27998  0.21339  0.38584  1.0000
  C   C405      1.0  0.26843  0.20203  0.38806  1.0000
  C   C406      1.0  0.27515  0.18508  0.38553  1.0000
  H   H311      1.0  0.27938  0.11317  0.41403  1.0000
  H   H312      1.0  0.25380  0.11315  0.40543  1.0000
  H   H313      1.0  0.24937  0.13259  0.38481  1.0000
  H   H314      1.0  0.27031  0.15175  0.37266  1.0000
  H   H315      1.0  0.30075  0.13189  0.40195  1.0000
  H   H316      1.0  0.30104  0.18724  0.35491  1.0000
  H   H317      1.0  0.30150  0.18827  0.33277  1.0000
  H   H318      1.0  0.30441  0.16073  0.32587  1.0000
  H   H319      1.0  0.30745  0.13185  0.34127  1.0000
  H   H320      1.0  0.30721  0.13048  0.36336  1.0000
  H   H321      1.0  0.33782  0.14103  0.36362  1.0000
  H   H322      1.0  0.36764  0.13205  0.36863  1.0000
  H   H323      1.0  0.37153  0.13452  0.38912  1.0000
  H   H324      1.0  0.34528  0.14599  0.40468  1.0000
  H   H325      1.0  0.31533  0.15610  0.39958  1.0000
  H   H326      1.0  0.31920  0.18681  0.37473  1.0000
  H   H327      1.0  0.30721  0.21664  0.37931  1.0000
  C   C407      1.0  0.43976  0.13403  0.48056  1.0000
  H   H328      1.0  0.25425  0.20636  0.39175  1.0000
  H   H329      1.0  0.26595  0.17653  0.38731  1.0000
  C   C408      1.0  0.39216  0.04091  0.40047  1.0000
  H   H330      1.0  0.37847  0.04548  0.39936  1.0000
  H   H331      1.0  0.42161  0.04292  0.28298  1.0000
  C   C409      1.0  0.06050  0.20202  0.29979  1.0000
  H   H332      1.0  0.17767  0.18600  0.28826  1.0000
  C   C410      1.0  0.19058  0.03996  0.37563  1.0000
  C   C411      1.0  0.19241  0.03986  0.38761  1.0000
  C   C412      1.0  0.19579  0.02384  0.39626  1.0000
  H   H333      1.0  0.44136  0.02489  0.40423  1.0000
  H   H334      1.0  0.38809  0.13094  0.47999  1.0000
  C   C413      1.0  0.19197  0.02405  0.37231  1.0000
  C   C414      1.0  0.15449  0.19753  0.31592  1.0000
  H   H335      1.0  0.27475  0.22652  0.38781  1.0000
  H   H336      1.0  0.45447  0.12210  0.38765  1.0000
  C   C415      1.0  0.47955  0.02150  0.41294  1.0000
  C   C416      1.0  0.02659  0.21993  0.31025  1.0000
  H   H337      1.0  0.09067  0.13660  0.27835  1.0000
  C   C417      1.0  0.16865  0.19464  0.30567  1.0000
  C   C418      1.0  0.34357  0.03221  0.37977  1.0000
  C   C419      1.0  0.11962  0.22452  0.26807  1.0000
  C   C420      1.0  0.13622  0.14730  0.28177  1.0000
  C   C421      1.0  0.20247  0.21173  0.27299  1.0000
  C   C422      1.0  0.49893  0.01237  0.47565  1.0000
  H   H338      1.0  0.21415  0.16483  0.25017  1.0000
  H   H339      1.0  0.09997  0.12080  0.33107  1.0000
  C   C423      1.0  0.27631  0.08675  0.29210  1.0000
  C   C424      1.0  0.35707  0.02313  0.42429  1.0000
  H   H340      1.0  0.07060  0.15247  0.26349  1.0000
  H   H341      1.0  0.17933  0.14939  0.28570  1.0000
  C   C425      1.0  0.46583  0.07717  0.39619  1.0000
  H   H342      1.0  0.18820  0.05243  0.36890  1.0000
  H   H343      1.0  0.19136  0.05223  0.39014  1.0000
  H   H344      1.0  0.19755  0.02383  0.40545  1.0000
  Fe  Fe29      1.0  0.02337  0.21388  0.34920  1.0000
  H   H345      1.0  0.19105  0.02437  0.36283  1.0000
  C   C426      1.0  0.29268  0.07800  0.28591  1.0000
  C   C427      1.0  0.29433  0.01464  0.37223  1.0000
  H   H346      1.0  0.23470  0.21869  0.25339  1.0000
  C   C428      1.0  0.13950  0.14628  0.30269  1.0000
  H   H347      1.0  0.47948  0.11276  0.47479  1.0000
  H   H348      1.0  0.27317  0.10107  0.29068  1.0000
  C   C429      1.0  0.04854  0.19240  0.30870  1.0000
  H   H349      1.0  0.12207  0.23780  0.26464  1.0000
  C   C430      1.0  0.48187  0.01078  0.39435  1.0000
  H   H350      1.0  0.41407  0.04322  0.30577  1.0000
  H   H351      1.0  0.40233  0.16453  0.47481  1.0000
  H   H352      1.0  0.04578  0.15579  0.33974  1.0000
  H   H353      1.0  0.12920  0.12443  0.27958  1.0000
  C   C431      1.0  0.33009  0.02544  0.41733  1.0000
  H   H354      1.0  0.23763  0.02613  0.29841  1.0000
  C   C432      1.0  0.13788  0.19444  0.31633  1.0000
  C   C433      1.0  0.25671  0.02373  0.30967  1.0000
  C   C434      1.0  0.28393  0.04991  0.29542  1.0000
  H   H355      1.0  0.42612  0.00432  0.40054  1.0000
  H   H356      1.0  0.43754  0.12232  0.47886  1.0000
  C   C435      1.0  0.09690  0.23097  0.30315  1.0000
  C   C436      1.0  0.02126  0.15946  0.31823  1.0000
  H   H357      1.0  0.38674  0.00491  0.34982  1.0000
  C   C437      1.0  0.10569  0.23433  0.35085  1.0000
  H   H358      1.0  0.36970  0.06214  0.46773  1.0000
  H   H359      1.0  0.43711  0.06433  0.47644  1.0000
  C   C438      1.0  0.49078  0.03813  0.39216  1.0000
  C   C439      1.0  0.39951  0.08843  0.47628  1.0000
  C   C440      1.0  0.17730  0.23584  0.26874  1.0000
  H   H360      1.0  0.31440  0.04303  0.48288  1.0000
  C   C441      1.0  0.27542  0.99426  0.31438  1.0000
  C   C442      1.0  0.40128  0.02752  0.47858  1.0000
  C   C443      1.0  0.41089  0.99135  0.44845  1.0000
  C   C444      1.0  0.34808  0.00298  0.47525  1.0000
  H   H361      1.0  0.27982  0.22968  0.26961  1.0000
  C   C445      1.0  0.35071  0.00123  0.46281  1.0000
  C   C446      1.0  0.49389  0.13059  0.47659  1.0000
  C   C447      1.0  0.49674  0.00125  0.46883  1.0000
  C   C448      1.0  0.00516  0.15009  0.33962  1.0000
  H   H362      1.0  0.14107  0.23541  0.30005  1.0000
  H   H363      1.0  0.11837  0.00335  0.35479  1.0000
  C   C449      1.0  0.16666  0.99953  0.36761  1.0000
  H   H364      1.0  0.24218  0.19858  0.23865  1.0000
  H   H365      1.0  0.49600  0.04940  0.38613  1.0000
  H   H366      1.0  0.17094  0.23676  0.30187  1.0000
  H   H367      1.0  0.11345  0.99295  0.38612  1.0000
  H   H368      1.0  0.05603  0.23824  0.32267  1.0000
  H   H369      1.0  0.10324  0.99281  0.34408  1.0000
  C   C450      1.0  0.23466  0.21201  0.23617  1.0000
  S   S61       1.0  0.28050  0.18459  0.23594  1.0000
  H   H370      1.0  0.34993  0.99041  0.31495  1.0000
  H   H371      1.0  0.24705  0.23833  0.27705  1.0000
  C   C451      1.0  0.06665  0.24021  0.31450  1.0000
  C   C452      1.0  0.14247  0.23969  0.30798  1.0000
  H   H372      1.0  0.05565  0.23967  0.40043  1.0000
  S   S62       1.0  0.13990  0.99031  0.32620  1.0000
  Fe  Fe30      1.0  0.45108  0.10223  0.52246  1.0000
  S   S63       1.0  0.42826  0.12564  0.52360  1.0000
  S   S64       1.0  0.47817  0.10575  0.51065  1.0000
  Fe  Fe31      1.0  0.42699  0.07658  0.53799  1.0000
  S   S65       1.0  0.40236  0.09828  0.54021  1.0000
  S   S66       1.0  0.42514  0.04857  0.54804  1.0000
  Fe  Fe32      1.0  0.41276  0.10910  0.51959  1.0000
  S   S67       1.0  0.39642  0.12133  0.50452  1.0000
  Fe  Fe33      1.0  0.42072  0.11224  0.54383  1.0000
  S   S68       1.0  0.41773  0.12753  0.55837  1.0000
  S   S69       1.0  0.43619  0.08641  0.51713  1.0000
  S   S70       1.0  0.44468  0.08980  0.54297  1.0000
  C   C453      1.0  0.36853  0.00015  0.54559  1.0000
  Fe  Fe34      1.0  0.16733  0.11209  0.67366  1.0000
  S   S71       1.0  0.18573  0.08813  0.68230  1.0000
  S   S72       1.0  0.14644  0.12872  0.68609  1.0000
  Fe  Fe35      1.0  0.18973  0.11155  0.64738  1.0000
  S   S73       1.0  0.21021  0.08769  0.65384  1.0000
  S   S74       1.0  0.19041  0.12702  0.62743  1.0000
  Fe  Fe36      1.0  0.18636  0.07690  0.66594  1.0000
  S   S75       1.0  0.18834  0.04730  0.66963  1.0000
  Fe  Fe37      1.0  0.20778  0.10083  0.66963  1.0000
  S   S76       1.0  0.23155  0.10083  0.67691  1.0000
  S   S77       1.0  0.16583  0.09996  0.65833  1.0000
  S   S78       1.0  0.18939  0.12553  0.66204  1.0000
  Fe  Fe38      1.0  0.05067  0.21891  0.66344  1.0000
  H   H373      1.0  0.21042  0.19952  0.71607  1.0000
  Fe  Fe39      1.0  0.05475  0.18156  0.67889  1.0000
  S   S79       1.0  0.03757  0.18974  0.69663  1.0000
  S   S80       1.0  0.06779  0.15360  0.67698  1.0000
  Fe  Fe40      1.0  0.01960  0.20807  0.68396  1.0000
  Fe  Fe41      1.0  0.05279  0.21150  0.69095  1.0000
  H   H374      1.0  0.22487  0.01917  0.66383  1.0000
  S   S81       1.0  0.03547  0.19793  0.66667  1.0000
  S   S82       1.0  0.07130  0.20180  0.67416  1.0000
  H   H375      1.0  0.48955  0.07932  0.56494  1.0000
  Fe  Fe42      1.0  0.28554  0.18048  0.67974  1.0000
  S   S83       1.0  0.30699  0.17191  0.66355  1.0000
  S   S84       1.0  0.25727  0.19107  0.67722  1.0000
  S   S85       1.0  0.28671  0.20399  0.68638  1.0000
  C   C454      1.0  0.34232  0.13426  0.55455  1.0000
  H   H376      1.0  0.32858  0.99604  0.57655  1.0000
  H   H377      1.0  0.49187  0.14061  0.50145  1.0000
  C   C455      1.0  0.29658  0.01655  0.55952  1.0000
  C   C456      1.0  0.38903  0.17133  0.54571  1.0000
  Fe  Fe43      1.0  0.30537  0.11238  0.62450  1.0000
  S   S86       1.0  0.29854  0.13925  0.61218  1.0000
  S   S87       1.0  0.29895  0.10704  0.64570  1.0000
  Fe  Fe44      1.0  0.32127  0.09439  0.60249  1.0000
  S   S88       1.0  0.31602  0.11962  0.58805  1.0000
  S   S89       1.0  0.33512  0.06852  0.59661  1.0000
  Fe  Fe45      1.0  0.32558  0.13137  0.60013  1.0000
  S   S90       1.0  0.34244  0.15158  0.59265  1.0000
  Fe  Fe46      1.0  0.28938  0.12549  0.60117  1.0000
  S   S91       1.0  0.26517  0.13851  0.59279  1.0000
  S   S92       1.0  0.33341  0.10567  0.61340  1.0000
  S   S93       1.0  0.29357  0.09923  0.61456  1.0000
  C   C457      1.0  0.31227  0.05378  0.61711  1.0000
  C   C458      1.0  0.32379  0.05179  0.60556  1.0000
  C   C459      1.0  0.01503  0.14488  0.65297  1.0000
  H   H378      1.0  0.31121  0.06498  0.62095  1.0000
  C   C460      1.0  0.31573  0.02386  0.60786  1.0000
  C   C461      1.0  0.30809  0.21293  0.71312  1.0000
  C   C462      1.0  0.31816  0.22426  0.71405  1.0000
  C   C463      1.0  0.40421  0.08014  0.48796  1.0000
  H   H379      1.0  0.28939  0.08907  0.69045  1.0000
  H   H380      1.0  0.30750  0.21164  0.70396  1.0000
  H   H381      1.0  0.40820  0.06588  0.49045  1.0000
  C   C464      1.0  0.44696  0.14796  0.49441  1.0000
  C   C465      1.0  0.30551  0.15313  0.65909  1.0000
  C   C466      1.0  0.31375  0.15071  0.64683  1.0000
  C   C467      1.0  0.31190  0.13649  0.64274  1.0000
  C   C468      1.0  0.30234  0.12420  0.65105  1.0000
  C   C469      1.0  0.29503  0.12594  0.66357  1.0000
  C   C470      1.0  0.29626  0.14062  0.66752  1.0000
  H   H382      1.0  0.32135  0.16001  0.64041  1.0000
  H   H383      1.0  0.31790  0.13507  0.63314  1.0000
  H   H384      1.0  0.28760  0.11648  0.67002  1.0000
  H   H385      1.0  0.29000  0.14230  0.67704  1.0000
  C   C471      1.0  0.17619  0.03674  0.66408  1.0000
  S   S94       1.0  0.03336  0.23066  0.67981  1.0000
  C   C472      1.0  0.15696  0.01860  0.65610  1.0000
  C   C473      1.0  0.15277  0.03719  0.65387  1.0000
  C   C474      1.0  0.16246  0.04625  0.65775  1.0000
  H   H386      1.0  0.14208  0.04458  0.64906  1.0000
  H   H387      1.0  0.15922  0.06055  0.65595  1.0000
  C   C475      1.0  0.24458  0.12001  0.68768  1.0000
  H   H388      1.0  0.25513  0.13507  0.69602  1.0000
  H   H389      1.0  0.25704  0.11047  0.68608  1.0000
  C   C476      1.0  0.24467  0.13510  0.60273  1.0000
  C   C477      1.0  0.24377  0.12489  0.61502  1.0000
  C   C478      1.0  0.22717  0.12218  0.62276  1.0000
  C   C479      1.0  0.21148  0.12979  0.61814  1.0000
  C   C480      1.0  0.21245  0.14006  0.60586  1.0000
  C   C481      1.0  0.22899  0.14271  0.59818  1.0000
  H   H390      1.0  0.25589  0.11916  0.61851  1.0000
  H   H391      1.0  0.22647  0.11436  0.63228  1.0000
  H   H392      1.0  0.20036  0.14594  0.60227  1.0000
  H   H393      1.0  0.22964  0.15060  0.58867  1.0000
  C   C482      1.0  0.12510  0.13613  0.68269  1.0000
  C   C483      1.0  0.11362  0.15084  0.68709  1.0000
  C   C484      1.0  0.09613  0.15654  0.68507  1.0000
  C   C485      1.0  0.09000  0.14736  0.67882  1.0000
  C   C486      1.0  0.10151  0.13268  0.67437  1.0000
  C   C487      1.0  0.11913  0.12716  0.67620  1.0000
  H   H394      1.0  0.11814  0.15769  0.69223  1.0000
  H   H395      1.0  0.08722  0.16765  0.68874  1.0000
  H   H396      1.0  0.09677  0.12552  0.66957  1.0000
  H   H397      1.0  0.12791  0.11572  0.67287  1.0000
  P   P15       1.0  0.13435  0.21347  0.72997  1.0000
  C   C488      1.0  0.28857  0.07905  0.54439  1.0000
  H   H398      1.0  0.36300  0.12007  0.52257  1.0000
  H   H399      1.0  0.19049  0.01068  0.67156  1.0000
  H   H400      1.0  0.35719  0.02120  0.64240  1.0000
  S   S95       1.0  0.27844  0.16390  0.69924  1.0000
  C   C489      1.0  0.44444  0.16420  0.48583  1.0000
  C   C490      1.0  0.48767  0.11406  0.52983  1.0000
  C   C491      1.0  0.35246  0.00240  0.54200  1.0000
  H   H401      1.0  0.48584  0.06802  0.51529  1.0000
  C   C492      1.0  0.12837  0.21438  0.71542  1.0000
  H   H402      1.0  0.33359  0.07376  0.53301  1.0000
  H   H403      1.0  0.47367  0.11591  0.53447  1.0000
  C   C493      1.0  0.41449  0.01214  0.64243  1.0000
  H   H404      1.0  0.20309  0.05217  0.69060  1.0000
  C   C494      1.0  0.19716  0.00461  0.60014  1.0000
  H   H405      1.0  0.37061  0.08603  0.52159  1.0000
  H   H406      1.0  0.40204  0.16236  0.54522  1.0000
  C   C495      1.0  0.44788  0.07107  0.57329  1.0000
  H   H407      1.0  0.27884  0.16165  0.56942  1.0000
  C   C496      1.0  0.30736  0.00292  0.56657  1.0000
  C   C497      1.0  0.39659  0.13358  0.56784  1.0000
  C   C498      1.0  0.39375  0.14727  0.57404  1.0000
  C   C499      1.0  0.37697  0.15287  0.58146  1.0000
  C   C500      1.0  0.36319  0.14427  0.58318  1.0000
  C   C501      1.0  0.36609  0.13023  0.57726  1.0000
  C   C502      1.0  0.38271  0.12518  0.56927  1.0000
  H   H408      1.0  0.40447  0.15379  0.57292  1.0000
  H   H409      1.0  0.37477  0.16366  0.58607  1.0000
  H   H410      1.0  0.35552  0.12339  0.57877  1.0000
  H   H411      1.0  0.38489  0.11465  0.56443  1.0000
  C   C503      1.0  0.42687  0.01719  0.51955  1.0000
  C   C504      1.0  0.42276  0.03568  0.51649  1.0000
  C   C505      1.0  0.42164  0.04527  0.52541  1.0000
  C   C506      1.0  0.42518  0.03645  0.53728  1.0000
  C   C507      1.0  0.42923  0.01791  0.54040  1.0000
  C   C508      1.0  0.43015  0.00827  0.53150  1.0000
  H   H412      1.0  0.42011  0.04259  0.50728  1.0000
  H   H413      1.0  0.41788  0.05950  0.52310  1.0000
  H   H414      1.0  0.43206  0.01104  0.54956  1.0000
  C   C509      1.0  0.17190  0.19336  0.68453  1.0000
  C   C510      1.0  0.34779  0.00318  0.63627  1.0000
  C   C511      1.0  0.28463  0.06820  0.59369  1.0000
  C   C512      1.0  0.27855  0.08657  0.59156  1.0000
  C   C513      1.0  0.29413  0.08906  0.56967  1.0000
  C   C514      1.0  0.29986  0.07056  0.57164  1.0000
  C   C515      1.0  0.29540  0.06024  0.58380  1.0000
  P   P16       1.0  0.31403  0.06045  0.55881  1.0000
  C   C516      1.0  0.33717  0.06011  0.55786  1.0000
  C   C517      1.0  0.31151  0.03792  0.56159  1.0000
  C   C518      1.0  0.32221  0.02411  0.56875  1.0000
  C   C519      1.0  0.34157  0.06950  0.56497  1.0000
  C   C520      1.0  0.35945  0.06897  0.56442  1.0000
  C   C521      1.0  0.37310  0.05953  0.55649  1.0000
  C   C522      1.0  0.36891  0.05003  0.54943  1.0000
  C   C523      1.0  0.35101  0.05012  0.55021  1.0000
  H   H415      1.0  0.28130  0.06015  0.60308  1.0000
  H   H416      1.0  0.27032  0.09282  0.59923  1.0000
  H   H417      1.0  0.30031  0.04605  0.58574  1.0000
  H   H418      1.0  0.33187  0.02683  0.57269  1.0000
  H   H419      1.0  0.33128  0.07711  0.57110  1.0000
  H   H420      1.0  0.36262  0.07593  0.57021  1.0000
  H   H421      1.0  0.38694  0.05942  0.55592  1.0000
  H   H422      1.0  0.37966  0.04242  0.54352  1.0000
  H   H423      1.0  0.34795  0.04246  0.54485  1.0000
  C   C524      1.0  0.30443  0.16646  0.55823  1.0000
  H   H424      1.0  0.25036  0.07814  0.62250  1.0000
  C   C525      1.0  0.36218  0.02319  0.52275  1.0000
  C   C526      1.0  0.07019  0.01576  0.58800  1.0000
  P   P17       1.0  0.35877  0.03760  0.50777  1.0000
  C   C527      1.0  0.36077  0.05997  0.50626  1.0000
  C   C528      1.0  0.37508  0.02733  0.49578  1.0000
  H   H425      1.0  0.20189  0.00091  0.59107  1.0000
  C   C529      1.0  0.12188  0.23130  0.69513  1.0000
  H   H426      1.0  0.15325  0.11791  0.71114  1.0000
  C   C530      1.0  0.21936  0.01576  0.63573  1.0000
  H   H427      1.0  0.23125  0.99799  0.69380  1.0000
  C   C531      1.0  0.35603  0.07308  0.49587  1.0000
  C   C532      1.0  0.35616  0.09073  0.49492  1.0000
  C   C533      1.0  0.36087  0.09546  0.50440  1.0000
  C   C534      1.0  0.36605  0.08246  0.51461  1.0000
  C   C535      1.0  0.36605  0.06477  0.51553  1.0000
  C   C536      1.0  0.33640  0.04048  0.50560  1.0000
  C   C537      1.0  0.32152  0.04515  0.51509  1.0000
  C   C538      1.0  0.30418  0.04843  0.51313  1.0000
  C   C539      1.0  0.30159  0.04744  0.50159  1.0000
  C   C540      1.0  0.12692  0.23024  0.70630  1.0000
  C   C541      1.0  0.33367  0.04007  0.49393  1.0000
  H   H428      1.0  0.20305  0.02036  0.69790  1.0000
  S   S96       1.0  0.24831  0.19897  0.70561  1.0000
  C   C542      1.0  0.28289  0.08877  0.53331  1.0000
  C   C543      1.0  0.18165  0.11033  0.70897  1.0000
  C   C544      1.0  0.28575  0.02381  0.66951  1.0000
  C   C545      1.0  0.38753  0.00217  0.48570  1.0000
  H   H429      1.0  0.48486  0.06710  0.49578  1.0000
  H   H430      1.0  0.36490  0.00338  0.50130  1.0000
  H   H431      1.0  0.36129  0.10910  0.50353  1.0000
  H   H432      1.0  0.38917  0.02648  0.51988  1.0000
  H   H433      1.0  0.33492  0.03499  0.59215  1.0000
  H   H434      1.0  0.32334  0.04631  0.52397  1.0000
  H   H435      1.0  0.29274  0.05187  0.52053  1.0000
  H   H436      1.0  0.34491  0.03770  0.48623  1.0000
  C   C546      1.0  0.31943  0.07765  0.53325  1.0000
  C   C547      1.0  0.11970  0.11652  0.72414  1.0000
  H   H437      1.0  0.11739  0.18899  0.70011  1.0000
  C   C548      1.0  0.17078  0.00913  0.66233  1.0000
  C   C549      1.0  0.28535  0.07993  0.68685  1.0000
  C   C550      1.0  0.25064  0.23934  0.71208  1.0000
  C   C551      1.0  0.01173  0.19959  0.61173  1.0000
  C   C552      1.0  0.34705  0.99701  0.62604  1.0000
  C   C553      1.0  0.26421  0.03569  0.59009  1.0000
  H   H438      1.0  0.16389  0.00040  0.62636  1.0000
  H   H439      1.0  0.41771  0.00168  0.57522  1.0000
  H   H440      1.0  0.45467  0.23016  0.72828  1.0000
  H   H441      1.0  0.31714  0.01229  0.60430  1.0000
  H   H442      1.0  0.20628  0.06815  0.71217  1.0000
  C   C554      1.0  0.49083  0.00407  0.51765  1.0000
  C   C555      1.0  0.01956  0.15991  0.64408  1.0000
  C   C556      1.0  0.04718  0.21739  0.61929  1.0000
  C   C557      1.0  0.21552  0.04253  0.68903  1.0000
  C   C558      1.0  0.00116  0.15154  0.61837  1.0000
  C   C559      1.0  0.29504  0.07528  0.67545  1.0000
  C   C560      1.0  0.14178  0.07028  0.70828  1.0000
  P   P18       1.0  0.48864  0.02995  0.49557  1.0000
  H   H443      1.0  0.46282  0.09409  0.48957  1.0000
  H   H444      1.0  0.46547  0.00494  0.50149  1.0000
  H   H445      1.0  0.04770  0.20548  0.58764  1.0000
  H   H446      1.0  0.41417  0.00315  0.65158  1.0000
  C   C561      1.0  0.31371  0.08737  0.52218  1.0000
  C   C562      1.0  0.37859  0.02027  0.52619  1.0000
  C   C563      1.0  0.38699  0.18854  0.54708  1.0000
  C   C564      1.0  0.18146  0.00023  0.60810  1.0000
  C   C565      1.0  0.21268  0.14515  0.69144  1.0000
  C   C566      1.0  0.12574  0.17315  0.65580  1.0000
  C   C567      1.0  0.11188  0.18795  0.65388  1.0000
  C   C568      1.0  0.11370  0.20455  0.65431  1.0000
  C   C569      1.0  0.12938  0.20634  0.65674  1.0000
  C   C570      1.0  0.14345  0.19152  0.65860  1.0000
  C   C571      1.0  0.14145  0.17489  0.65816  1.0000
  P   P19       1.0  0.16367  0.19349  0.66200  1.0000
  C   C572      1.0  0.18255  0.17931  0.65397  1.0000
  C   C573      1.0  0.16648  0.21610  0.65669  1.0000
  C   C574      1.0  0.17893  0.22117  0.64562  1.0000
  H   H447      1.0  0.35292  0.20056  0.49951  1.0000
  H   H448      1.0  0.20227  0.13034  0.68284  1.0000
  H   H449      1.0  0.18866  0.22166  0.68982  1.0000
  C   C575      1.0  0.15656  0.22873  0.66387  1.0000
  C   C576      1.0  0.19702  0.17009  0.65973  1.0000
  C   C577      1.0  0.21124  0.15857  0.65372  1.0000
  C   C578      1.0  0.21124  0.15625  0.64190  1.0000
  C   C579      1.0  0.19705  0.16558  0.63601  1.0000
  C   C580      1.0  0.18275  0.17711  0.64199  1.0000
  C   C581      1.0  0.16299  0.18607  0.67872  1.0000
  H   H450      1.0  0.12419  0.16022  0.65570  1.0000
  H   H451      1.0  0.09960  0.18649  0.65225  1.0000
  H   H452      1.0  0.38927  0.04869  0.48828  1.0000
  H   H453      1.0  0.13037  0.21927  0.65715  1.0000
  H   H454      1.0  0.15194  0.16314  0.65979  1.0000
  H   H455      1.0  0.18695  0.21172  0.63996  1.0000
  H   H456      1.0  0.08704  0.22899  0.71548  1.0000
  H   H457      1.0  0.14357  0.09124  0.69148  1.0000
  C   C582      1.0  0.21550  0.02452  0.69317  1.0000
  H   H458      1.0  0.14716  0.22506  0.67255  1.0000
  H   H459      1.0  0.19728  0.17137  0.66898  1.0000
  H   H460      1.0  0.22189  0.15089  0.65850  1.0000
  H   H461      1.0  0.22201  0.14687  0.63747  1.0000
  H   H462      1.0  0.19686  0.16337  0.62699  1.0000
  H   H463      1.0  0.17170  0.18397  0.63740  1.0000
  H   H464      1.0  0.17845  0.20412  0.67928  1.0000
  C   C583      1.0  0.35692  0.12403  0.53149  1.0000
  H   H465      1.0  0.23090  0.06211  0.67866  1.0000
  C   C584      1.0  0.31635  0.04338  0.49196  1.0000
  C   C585      1.0  0.39120  0.01379  0.57232  1.0000
  C   C586      1.0  0.29868  0.03397  0.55696  1.0000
  H   H466      1.0  0.29710  0.21029  0.51729  1.0000
  H   H467      1.0  0.27594  0.03644  0.58256  1.0000
  H   H468      1.0  0.44639  0.12039  0.49845  1.0000
  C   C587      1.0  0.19485  0.23293  0.68685  1.0000
  H   H469      1.0  0.20995  0.09912  0.70658  1.0000
  C   C588      1.0  0.26448  0.06201  0.68848  1.0000
  H   H470      1.0  0.43418  0.07723  0.57701  1.0000
  S   S97       1.0  0.14475  0.00756  0.65098  1.0000
  C   C589      1.0  0.32583  0.03664  0.60102  1.0000
  C   C590      1.0  0.29052  0.16644  0.56894  1.0000
  H   H471      1.0  0.25924  0.00742  0.68218  1.0000
  H   H472      1.0  0.48106  0.05874  0.53820  1.0000
  H   H473      1.0  0.27864  0.07610  0.55296  1.0000
  C   C591      1.0  0.30382  0.02621  0.61928  1.0000
  H   H474      1.0  0.12727  0.18670  0.71954  1.0000
  H   H475      1.0  0.27902  0.11127  0.57805  1.0000
  H   H476      1.0  0.26872  0.09324  0.53337  1.0000
  H   H477      1.0  0.35863  0.09731  0.54237  1.0000
  C   C592      1.0  0.23713  0.23575  0.64225  1.0000
  C   C593      1.0  0.24724  0.01742  0.68418  1.0000
  H   H478      1.0  0.03803  0.17752  0.63800  1.0000
  H   H479      1.0  0.37124  0.02272  0.60236  1.0000
  C   C594      1.0  0.46632  0.18098  0.50513  1.0000
  Fe  Fe47      1.0  0.25760  0.21296  0.68575  1.0000
  C   C595      1.0  0.37366  0.01177  0.57451  1.0000
  C   C596      1.0  0.19666  0.09637  0.70919  1.0000
  C   C597      1.0  0.22978  0.11863  0.68383  1.0000
  H   H480      1.0  0.45593  0.18717  0.51204  1.0000
  H   H481      1.0  0.45063  0.14692  0.50317  1.0000
  H   H482      1.0  0.29321  0.04298  0.63276  1.0000
  C   C598      1.0  0.35736  0.17698  0.54596  1.0000
  C   C599      1.0  0.23216  0.04365  0.59755  1.0000
  H   H483      1.0  0.08992  0.00897  0.57171  1.0000
  C   C600      1.0  0.17584  0.00415  0.62006  1.0000
  H   H484      1.0  0.11092  0.09538  0.70483  1.0000
  C   C601      1.0  0.47331  0.16277  0.50798  1.0000
  C   C602      1.0  0.47927  0.07216  0.56636  1.0000
  H   H485      1.0  0.08210  0.14424  0.71547  1.0000
  H   H486      1.0  0.44317  0.03288  0.61844  1.0000
  C   C603      1.0  0.41520  0.03592  0.61909  1.0000
  C   C604      1.0  0.31084  0.20380  0.51777  1.0000
  H   H487      1.0  0.29007  0.04421  0.55155  1.0000
  C   C605      1.0  0.26587  0.02512  0.60198  1.0000
  H   H488      1.0  0.47623  0.00493  0.54884  1.0000
  H   H489      1.0  0.04213  0.16116  0.61882  1.0000
  H   H490      1.0  0.41151  0.04239  0.57563  1.0000
  C   C606      1.0  0.23364  0.03232  0.60933  1.0000
  C   C607      1.0  0.25066  0.02331  0.61158  1.0000
  P   P20       1.0  0.21360  0.02919  0.62111  1.0000
  C   C608      1.0  0.20095  0.05093  0.62343  1.0000
  C   C609      1.0  0.20122  0.01769  0.61594  1.0000
  C   C610      1.0  0.18588  0.01248  0.62408  1.0000
  C   C611      1.0  0.24739  0.04521  0.58793  1.0000
  H   H491      1.0  0.35477  0.99947  0.60599  1.0000
  H   H492      1.0  0.34263  0.20358  0.54734  1.0000
  C   C612      1.0  0.20708  0.01321  0.60404  1.0000
  C   C613      1.0  0.18216  0.05506  0.62608  1.0000
  C   C614      1.0  0.17273  0.07190  0.62796  1.0000
  C   C615      1.0  0.18193  0.08475  0.62721  1.0000
  C   C616      1.0  0.20061  0.08081  0.62452  1.0000
  C   C617      1.0  0.21008  0.06401  0.62261  1.0000
  H   H493      1.0  0.33722  0.01429  0.52778  1.0000
  C   C618      1.0  0.22254  0.23146  0.65175  1.0000
  H   H494      1.0  0.26959  0.23757  0.69447  1.0000
  H   H495      1.0  0.26074  0.21226  0.58321  1.0000
  C   C619      1.0  0.29099  0.01553  0.65923  1.0000
  C   C620      1.0  0.21994  0.02358  0.64527  1.0000
  H   H496      1.0  0.19286  0.23046  0.71268  1.0000
  H   H497      1.0  0.28498  0.02092  0.65115  1.0000
  P   P21       1.0  0.00564  0.17247  0.63296  1.0000
  H   H498      1.0  0.01893  0.22215  0.62709  1.0000
  H   H499      1.0  0.25229  0.01478  0.62065  1.0000
  C   C621      1.0  0.47221  0.99284  0.48558  1.0000
  H   H500      1.0  0.21947  0.01585  0.59783  1.0000
  C   C622      1.0  0.18608  0.21964  0.71720  1.0000
  C   C623      1.0  0.18726  0.18824  0.72468  1.0000
  C   C624      1.0  0.47279  0.19114  0.49337  1.0000
  H   H501      1.0  0.17460  0.04541  0.62688  1.0000
  H   H502      1.0  0.15823  0.07489  0.63020  1.0000
  H   H503      1.0  0.17460  0.09775  0.62877  1.0000
  H   H504      1.0  0.20772  0.09078  0.62401  1.0000
  H   H505      1.0  0.22452  0.06124  0.62058  1.0000
  C   C625      1.0  0.33264  0.18433  0.52977  1.0000
  C   C626      1.0  0.03645  0.17423  0.61388  1.0000
  C   C627      1.0  0.16569  0.17175  0.70396  1.0000
  C   C628      1.0  0.34227  0.19835  0.50775  1.0000
  H   H506      1.0  0.21620  0.03778  0.64435  1.0000
  C   C629      1.0  0.08307  0.00406  0.58125  1.0000
  H   H507      1.0  0.33704  0.13796  0.56361  1.0000
  C   C630      1.0  0.31980  0.17227  0.55767  1.0000
  H   H508      1.0  0.24850  0.04655  0.63133  1.0000
  H   H509      1.0  0.41576  0.04558  0.61024  1.0000
  H   H510      1.0  0.26611  0.07970  0.65544  1.0000
  H   H511      1.0  0.30651  0.08091  0.67019  1.0000
  C   C631      1.0  0.48670  0.15475  0.49909  1.0000
  H   H512      1.0  0.40789  0.08356  0.50532  1.0000
  C   C632      1.0  0.09310  0.13277  0.71618  1.0000
  H   H513      1.0  0.18060  0.19166  0.70130  1.0000
  H   H514      1.0  0.44099  0.04860  0.57046  1.0000
  C   C633      1.0  0.01891  0.18288  0.61853  1.0000
  C   C634      1.0  0.49341  0.10862  0.51833  1.0000
  C   C635      1.0  0.25606  0.04533  0.64848  1.0000
  H   H515      1.0  0.02124  0.21898  0.71922  1.0000
  H   H516      1.0  0.35301  0.10069  0.48669  1.0000
  C   C636      1.0  0.46197  0.08166  0.48811  1.0000
  C   C637      1.0  0.14346  0.07734  0.69527  1.0000
  H   H517      1.0  0.00323  0.14046  0.65333  1.0000
  H   H518      1.0  0.29703  0.06071  0.66162  1.0000
  H   H519      1.0  0.25910  0.09435  0.63489  1.0000
  C   C638      1.0  0.06170  0.22487  0.61222  1.0000
  C   C639      1.0  0.32028  0.00668  0.57107  1.0000
  C   C640      1.0  0.29911  0.20303  0.72403  1.0000
  C   C641      1.0  0.14249  0.05205  0.71286  1.0000
  H   H520      1.0  0.18169  0.01476  0.63357  1.0000
  H   H521      1.0  0.18333  0.12387  0.70614  1.0000
  C   C642      1.0  0.12553  0.19931  0.71292  1.0000
  C   C643      1.0  0.35452  0.11120  0.54265  1.0000
  C   C644      1.0  0.46165  0.07969  0.57160  1.0000
  C   C645      1.0  0.48339  0.02167  0.51243  1.0000
  C   C646      1.0  0.47296  0.03296  0.52049  1.0000
  C   C647      1.0  0.47053  0.02689  0.53357  1.0000
  C   C648      1.0  0.47811  0.00946  0.53870  1.0000
  H   H522      1.0  0.25253  0.05723  0.69362  1.0000
  H   H523      1.0  0.44261  0.01157  0.63907  1.0000
  C   C649      1.0  0.36537  0.01705  0.61194  1.0000
  C   C650      1.0  0.22758  0.14667  0.69511  1.0000
  C   C651      1.0  0.35191  0.14201  0.53182  1.0000
  C   C652      1.0  0.14415  0.04124  0.70460  1.0000
  C   C653      1.0  0.49453  0.05876  0.53275  1.0000
  H   H524      1.0  0.46681  0.04649  0.51677  1.0000
  H   H525      1.0  0.46267  0.03575  0.53973  1.0000
  H   H526      1.0  0.08584  0.12114  0.70376  1.0000
  C   C654      1.0  0.02554  0.13557  0.66181  1.0000
  H   H527      1.0  0.14680  0.04007  0.68530  1.0000
  C   C655      1.0  0.03459  0.16562  0.64437  1.0000
  C   C656      1.0  0.12017  0.20046  0.70184  1.0000
  C   C657      1.0  0.17319  0.18625  0.69709  1.0000
  H   H528      1.0  0.01652  0.22065  0.59550  1.0000
  C   C658      1.0  0.38162  0.00904  0.53765  1.0000
  C   C659      1.0  0.31486  0.19283  0.52908  1.0000
  H   H529      1.0  0.24159  0.23337  0.70986  1.0000
  C   C660      1.0  0.04060  0.14121  0.66188  1.0000
  C   C661      1.0  0.45170  0.05496  0.56964  1.0000
  C   C662      1.0  0.10530  0.13114  0.72350  1.0000
  H   H530      1.0  0.15995  0.23658  0.71816  1.0000
  H   H531      1.0  0.49911  0.99519  0.51161  1.0000
  H   H532      1.0  0.16203  0.18060  0.73215  1.0000
  H   H533      1.0  0.00795  0.23637  0.66513  1.0000
  C   C663      1.0  0.23136  0.01196  0.69078  1.0000
  H   H534      1.0  0.28816  0.05004  0.50004  1.0000
  C   C664      1.0  0.48817  0.99799  0.53074  1.0000
  C   C665      1.0  0.37023  0.20010  0.54771  1.0000
  H   H535      1.0  0.29107  0.10045  0.51361  1.0000
  C   C666      1.0  0.46928  0.04739  0.56439  1.0000
  H   H536      1.0  0.38658  0.01552  0.64350  1.0000
  H   H537      1.0  0.36866  0.21345  0.54878  1.0000
  C   C667      1.0  0.14506  0.06650  0.68706  1.0000
  C   C668      1.0  0.16228  0.08936  0.71517  1.0000
  C   C669      1.0  0.03965  0.19915  0.59621  1.0000
  H   H538      1.0  0.11361  0.21745  0.68458  1.0000
  C   C670      1.0  0.06897  0.23785  0.70282  1.0000
  C   C671      1.0  0.02210  0.20770  0.60064  1.0000
  H   H539      1.0  0.04932  0.20334  0.62338  1.0000
  C   C672      1.0  0.44455  0.13293  0.49177  1.0000
  H   H540      1.0  0.45858  0.09249  0.57404  1.0000
  S   S98       1.0  0.28698  0.18795  0.72329  1.0000
  S   S99       1.0  0.06523  0.21651  0.70505  1.0000
  C   C673      1.0  0.47263  0.04982  0.49076  1.0000
  H   H541      1.0  0.46839  0.15477  0.51708  1.0000
  C   C674      1.0  0.11818  0.21649  0.69300  1.0000
  C   C675      1.0  0.38364  0.07757  0.58695  1.0000
  C   C676      1.0  0.39590  0.06801  0.57840  1.0000
  C   C677      1.0  0.40220  0.04983  0.58231  1.0000
  C   C678      1.0  0.39666  0.04130  0.59483  1.0000
  C   C679      1.0  0.38448  0.05087  0.60352  1.0000
  C   C680      1.0  0.37786  0.06906  0.59943  1.0000
  P   P22       1.0  0.37873  0.04012  0.61997  1.0000
  H   H542      1.0  0.14644  0.07196  0.67702  1.0000
  C   C681      1.0  0.39909  0.03082  0.62592  1.0000
  C   C682      1.0  0.26200  0.05415  0.65520  1.0000
  C   C683      1.0  0.25853  0.08058  0.63852  1.0000
  C   C684      1.0  0.06135  0.00942  0.60029  1.0000
  C   C685      1.0  0.12228  0.10365  0.71717  1.0000
  H   H543      1.0  0.02187  0.12413  0.66874  1.0000
  C   C686      1.0  0.17747  0.07540  0.71530  1.0000
  C   C687      1.0  0.28953  0.06395  0.67058  1.0000
  C   C688      1.0  0.29546  0.09287  0.52219  1.0000
  C   C689      1.0  0.23129  0.04807  0.68226  1.0000
  C   C690      1.0  0.26271  0.07205  0.65025  1.0000
  C   C691      1.0  0.36513  0.05621  0.62911  1.0000
  C   C692      1.0  0.37315  0.06618  0.63353  1.0000
  C   C693      1.0  0.36255  0.07856  0.64066  1.0000
  C   C694      1.0  0.34393  0.08104  0.64345  1.0000
  C   C695      1.0  0.33587  0.07127  0.63899  1.0000
  C   C696      1.0  0.34640  0.05910  0.63170  1.0000
  H   H544      1.0  0.37852  0.09162  0.58396  1.0000
  H   H545      1.0  0.40044  0.07469  0.56874  1.0000
  H   H546      1.0  0.21912  0.05087  0.59573  1.0000
  C   C697      1.0  0.43083  0.02888  0.62378  1.0000
  H   H547      1.0  0.36825  0.07679  0.60580  1.0000
  C   C698      1.0  0.30692  0.07320  0.54442  1.0000
  C   C699      1.0  0.30226  0.04110  0.62392  1.0000
  C   C700      1.0  0.10970  0.10523  0.71005  1.0000
  C   C701      1.0  0.09521  0.11974  0.70956  1.0000
  C   C702      1.0  0.35550  0.19442  0.54700  1.0000
  C   C703      1.0  0.01620  0.23269  0.71503  1.0000
  P   P23       1.0  0.26730  0.04281  0.67039  1.0000
  H   H548      1.0  0.28642  0.01356  0.55618  1.0000
  H   H549      1.0  0.32342  0.09071  0.51359  1.0000
  C   C704      1.0  0.40414  0.09016  0.49641  1.0000
  H   H550      1.0  0.38754  0.06458  0.63135  1.0000
  H   H551      1.0  0.36871  0.08644  0.64391  1.0000
  H   H552      1.0  0.33570  0.09084  0.64881  1.0000
  H   H553      1.0  0.32141  0.07355  0.64088  1.0000
  H   H554      1.0  0.33990  0.05211  0.62800  1.0000
  C   C705      1.0  0.34724  0.11634  0.55419  1.0000
  C   C706      1.0  0.30733  0.17732  0.57893  1.0000
  C   C707      1.0  0.32125  0.17744  0.56821  1.0000
  H   H555      1.0  0.34558  0.10652  0.56293  1.0000
  H   H556      1.0  0.28150  0.17104  0.58781  1.0000
  H   H557      1.0  0.30888  0.18068  0.58718  1.0000
  H   H558      1.0  0.33340  0.18070  0.56854  1.0000
  C   C708      1.0  0.25892  0.13715  0.64072  1.0000
  C   C709      1.0  0.25779  0.13425  0.65366  1.0000
  C   C710      1.0  0.25718  0.14822  0.65896  1.0000
  C   C711      1.0  0.25750  0.16507  0.65143  1.0000
  C   C712      1.0  0.25777  0.16830  0.63854  1.0000
  C   C713      1.0  0.25905  0.15410  0.63312  1.0000
  P   P24       1.0  0.25871  0.19013  0.62900  1.0000
  C   C714      1.0  0.24405  0.20660  0.63749  1.0000
  C   C715      1.0  0.28188  0.19123  0.62606  1.0000
  C   C716      1.0  0.28791  0.19713  0.63445  1.0000
  C   C717      1.0  0.30598  0.19740  0.63240  1.0000
  C   C718      1.0  0.31823  0.19134  0.62217  1.0000
  C   C719      1.0  0.31246  0.18474  0.61409  1.0000
  C   C720      1.0  0.29438  0.18457  0.61607  1.0000
  C   C721      1.0  0.24779  0.22343  0.63508  1.0000
  H   H559      1.0  0.17609  0.06181  0.71745  1.0000
  S   S100      1.0  0.05806  0.23484  0.64381  1.0000
  C   C722      1.0  0.21845  0.21493  0.65398  1.0000
  C   C723      1.0  0.22898  0.20263  0.64676  1.0000
  C   C724      1.0  0.25117  0.19350  0.61462  1.0000
  C   C725      1.0  0.23705  0.18613  0.61473  1.0000
  C   C726      1.0  0.23202  0.18753  0.60350  1.0000
  C   C727      1.0  0.24065  0.19682  0.59213  1.0000
  C   C728      1.0  0.25412  0.20497  0.59202  1.0000
  C   C729      1.0  0.25931  0.20342  0.60325  1.0000
  H   H560      1.0  0.26029  0.12609  0.63659  1.0000
  H   H561      1.0  0.25821  0.12100  0.65946  1.0000
  H   H562      1.0  0.25725  0.14591  0.66883  1.0000
  H   H563      1.0  0.25784  0.17548  0.65567  1.0000
  H   H564      1.0  0.26048  0.15591  0.62306  1.0000
  H   H565      1.0  0.27887  0.20094  0.64285  1.0000
  H   H566      1.0  0.31061  0.20145  0.63915  1.0000
  H   H567      1.0  0.33232  0.19096  0.62087  1.0000
  H   H568      1.0  0.32214  0.17920  0.60656  1.0000
  H   H569      1.0  0.29025  0.17879  0.61003  1.0000
  H   H570      1.0  0.25922  0.22685  0.62789  1.0000
  H   H571      1.0  0.16724  0.16589  0.71356  1.0000
  C   C730      1.0  0.29397  0.01616  0.67987  1.0000
  H   H572      1.0  0.20727  0.21155  0.66147  1.0000
  H   H573      1.0  0.22561  0.18989  0.64866  1.0000
  H   H574      1.0  0.23027  0.17890  0.62346  1.0000
  H   H575      1.0  0.22164  0.18110  0.60360  1.0000
  H   H576      1.0  0.23691  0.19765  0.58340  1.0000
  C   C731      1.0  0.49724  0.06385  0.51964  1.0000
  H   H577      1.0  0.26980  0.20974  0.60300  1.0000
  H   H578      1.0  0.35233  0.06967  0.48844  1.0000
  C   C732      1.0  0.24355  0.13404  0.69322  1.0000
  H   H579      1.0  0.30341  0.16147  0.55052  1.0000
  H   H580      1.0  0.14893  0.16534  0.68141  1.0000
  H   H581      1.0  0.36020  0.18131  0.51940  1.0000
  H   H582      1.0  0.14472  0.02719  0.70811  1.0000
  Fe  Fe48      1.0  0.27753  0.18840  0.70579  1.0000
  C   C733      1.0  0.14533  0.04848  0.69172  1.0000
  C   C734      1.0  0.16740  0.22307  0.72048  1.0000
  C   C735      1.0  0.16453  0.10686  0.71190  1.0000
  H   H583      1.0  0.40208  0.02729  0.59780  1.0000
  H   H584      1.0  0.39720  0.99332  0.62652  1.0000
  C   C736      1.0  0.25352  0.07145  0.63161  1.0000
  C   C737      1.0  0.47419  0.06621  0.49194  1.0000
  S   S101      1.0  0.29054  0.01100  0.62801  1.0000
  C   C738      1.0  0.29199  0.17180  0.57931  1.0000
  H   H585      1.0  0.35420  0.15159  0.52306  1.0000
  C   C739      1.0  0.18013  0.01817  0.66647  1.0000
  Fe  Fe49      1.0  0.25003  0.17617  0.69718  1.0000
  C   C740      1.0  0.15542  0.17157  0.68570  1.0000
  C   C741      1.0  0.27012  0.07324  0.69338  1.0000
  H   H586      1.0  0.26236  0.07723  0.70204  1.0000
  H   H587      1.0  0.43360  0.99397  0.53383  1.0000
  C   C742      1.0  0.24733  0.03555  0.67990  1.0000
  C   C743      1.0  0.34935  0.01367  0.53058  1.0000
  C   C744      1.0  0.34436  0.14727  0.54337  1.0000
  H   H588      1.0  0.10281  0.21598  0.65293  1.0000
  H   H589      1.0  0.22158  0.21694  0.68614  1.0000
  H   H590      1.0  0.37020  0.05503  0.52344  1.0000
  C   C745      1.0  0.25229  0.05379  0.63661  1.0000
  C   C746      1.0  0.34633  0.18740  0.51904  1.0000
  C   C747      1.0  0.27406  0.05743  0.67696  1.0000
  H   H591      1.0  0.37621  0.15195  0.54443  1.0000
  H   H592      1.0  0.20030  0.15482  0.69289  1.0000
  C   C748      1.0  0.32453  0.20651  0.50710  1.0000
  C   C749      1.0  0.15676  0.16444  0.69827  1.0000
  H   H593      1.0  0.30402  0.19130  0.53721  1.0000
  C   C750      1.0  0.48326  0.05587  0.56277  1.0000
  H   H594      1.0  0.29804  0.09743  0.56053  1.0000
  H   H595      1.0  0.47184  0.03515  0.56130  1.0000
  H   H596      1.0  0.25459  0.03179  0.65232  1.0000
  P   P25       1.0  0.33842  0.17029  0.54428  1.0000
  S   S102      1.0  0.22573  0.16402  0.70247  1.0000
  C   C751      1.0  0.21381  0.13130  0.68570  1.0000
  C   C752      1.0  0.28342  0.09699  0.57958  1.0000
  H   H597      1.0  0.30759  0.99345  0.65141  1.0000
  H   H598      1.0  0.32522  0.23168  0.70554  1.0000
  C   C753      1.0  0.37426  0.16546  0.54528  1.0000
  H   H599      1.0  0.15122  0.15296  0.70341  1.0000
  C   C754      1.0  0.37479  0.01038  0.49484  1.0000
  H   H600      1.0  0.39434  0.00680  0.54021  1.0000
  C   C755      1.0  0.39845  0.10856  0.49352  1.0000
  H   H601      1.0  0.17396  0.99323  0.60519  1.0000
  H   H602      1.0  0.27894  0.01814  0.60378  1.0000
  C   C756      1.0  0.36649  0.02312  0.62221  1.0000
  C   C757      1.0  0.19458  0.07891  0.71236  1.0000
  C   C758      1.0  0.03001  0.22810  0.62141  1.0000
  H   H603      1.0  0.06037  0.17569  0.59932  1.0000
  H   H604      1.0  0.49551  0.12217  0.54391  1.0000
  H   H605      1.0  0.04864  0.13413  0.66883  1.0000
  C   C759      1.0  0.39883  0.01915  0.63776  1.0000
  S   S103      1.0  0.42701  0.00563  0.50844  1.0000
  P   P26       1.0  0.14041  0.08437  0.71868  1.0000
  H   H606      1.0  0.45711  0.03687  0.48443  1.0000
  H   H607      1.0  0.36348  0.02279  0.57122  1.0000
  H   H608      1.0  0.00754  0.19387  0.64964  1.0000
  H   H609      1.0  0.00439  0.17932  0.68226  1.0000
  H   H610      1.0  0.39472  0.02629  0.56714  1.0000
  C   C760      1.0  0.35740  0.01617  0.63438  1.0000
  H   H611      1.0  0.46736  0.20526  0.49116  1.0000
  H   H612      1.0  0.06707  0.02974  0.58371  1.0000
  H   H613      1.0  0.05659  0.16077  0.65345  1.0000
  H   H614      1.0  0.39842  0.19282  0.54773  1.0000
  C   C761      1.0  0.35591  0.00388  0.61391  1.0000
  C   C762      1.0  0.04510  0.15623  0.65317  1.0000
  H   H615      1.0  0.28995  0.02215  0.68801  1.0000
  C   C763      1.0  0.43051  0.01692  0.63541  1.0000
  C   C764      1.0  0.18155  0.23850  0.64194  1.0000
  C   C765      1.0  0.21348  0.23026  0.68485  1.0000
  C   C766      1.0  0.31937  0.22588  0.72588  1.0000
  H   H616      1.0  0.32139  0.21503  0.49835  1.0000
  H   H617      1.0  0.24610  0.05361  0.57877  1.0000
  C   C767      1.0  0.22496  0.01300  0.65638  1.0000
  H   H618      1.0  0.34275  0.99471  0.54782  1.0000
  C   C768      1.0  0.06539  0.99139  0.60585  1.0000
  C   C769      1.0  0.38848  0.03580  0.48763  1.0000
  C   C770      1.0  0.50004  0.11765  0.53514  1.0000
  H   H619      1.0  0.07507  0.21663  0.61092  1.0000
  C   C771      1.0  0.19598  0.20224  0.71911  1.0000
  C   C772      1.0  0.04680  0.18239  0.60280  1.0000
  H   H620      1.0  0.05136  0.01849  0.60553  1.0000
  H   H621      1.0  0.34057  0.99819  0.64563  1.0000
  H   H622      1.0  0.44610  0.17588  0.48798  1.0000
  H   H623      1.0  0.37116  0.99091  0.55423  1.0000
  H   H624      1.0  0.01272  0.15528  0.61155  1.0000
  C   C773      1.0  0.31212  0.99229  0.66969  1.0000
  C   C774      1.0  0.47459  0.00369  0.49252  1.0000
  C   C775      1.0  0.30402  0.99982  0.65935  1.0000
  C   C776      1.0  0.40428  0.99969  0.57681  1.0000
  C   C777      1.0  0.48795  0.01358  0.48759  1.0000
  S   S104      1.0  0.33244  0.24027  0.72634  1.0000
  H   H625      1.0  0.34033  0.99123  0.49500  1.0000
  C   C778      1.0  0.22381  0.99723  0.63749  1.0000
  C   C779      1.0  0.36926  0.99556  0.58104  1.0000
  C   C780      1.0  0.30718  0.00052  0.67992  1.0000
  H   H626      1.0  0.19506  0.17474  0.72576  1.0000
  H   H627      1.0  0.14197  0.04605  0.72275  1.0000
  C   C781      1.0  0.15850  0.20912  0.72633  1.0000
  C   C782      1.0  0.49376  0.16490  0.48743  1.0000
  C   C783      1.0  0.22932  0.99457  0.65808  1.0000
  H   H628      1.0  0.10362  0.14126  0.72863  1.0000
  C   C784      1.0  0.16857  0.19164  0.72827  1.0000
  H   H629      1.0  0.35568  0.99388  0.58282  1.0000
  H   H630      1.0  0.31335  0.99466  0.68799  1.0000
  H   H631      1.0  0.12888  0.11528  0.73002  1.0000
  C   C785      1.0  0.00299  0.23705  0.70804  1.0000
  C   C786      1.0  0.45890  0.04923  0.48538  1.0000
  H   H632      1.0  0.49891  0.02067  0.57931  1.0000
  H   H633      1.0  0.09851  0.23552  0.73121  1.0000
  C   C787      1.0  0.48648  0.18316  0.48456  1.0000
  H   H634      1.0  0.17411  0.99482  0.66412  1.0000
  H   H635      1.0  0.39949  0.99296  0.60444  1.0000
  H   H636      1.0  0.22350  0.99087  0.63026  1.0000
  H   H637      1.0  0.10962  0.06961  0.73312  1.0000
  Fe  Fe50      1.0  0.46723  0.07981  0.92211  1.0000
  S   S105      1.0  0.44434  0.09905  0.93105  1.0000
  H   H638      1.0  0.45019  0.99483  0.85489  1.0000
  Fe  Fe51      1.0  0.44463  0.05287  0.92589  1.0000
  S   S106      1.0  0.42006  0.07001  0.93489  1.0000
  S   S107      1.0  0.44686  0.02477  0.92473  1.0000
  Fe  Fe52      1.0  0.42893  0.09239  0.91960  1.0000
  S   S108      1.0  0.40984  0.11414  0.90931  1.0000
  Fe  Fe53      1.0  0.43768  0.07496  0.94544  1.0000
  S   S109      1.0  0.43002  0.06946  0.96670  1.0000
  S   S110      1.0  0.45241  0.07480  0.90970  1.0000
  S   S111      1.0  0.46195  0.05619  0.93737  1.0000
  H   H639      1.0  0.49588  0.08717  0.86561  1.0000
  Fe  Fe54      1.0  0.43399  0.15579  0.84039  1.0000
  S   S112      1.0  0.45346  0.16070  0.82197  1.0000
  S   S113      1.0  0.43106  0.12787  0.84955  1.0000
  Fe  Fe55      1.0  0.42405  0.19441  0.84155  1.0000
  S   S114      1.0  0.44307  0.20267  0.82339  1.0000
  H   H640      1.0  0.34009  0.17103  0.81394  1.0000
  Fe  Fe56      1.0  0.43263  0.18472  0.81636  1.0000
  S   S115      1.0  0.42814  0.19204  0.79651  1.0000
  Fe  Fe57      1.0  0.46217  0.17798  0.83059  1.0000
  C   C788      1.0  0.10882  0.19349  0.74333  1.0000
  S   S116      1.0  0.41223  0.17814  0.83404  1.0000
  S   S117      1.0  0.44415  0.17135  0.84952  1.0000
  H   H641      1.0  0.43570  0.05214  0.90238  1.0000
  C   C789      1.0  0.47150  0.11747  0.87524  1.0000
  C   C790      1.0  0.11860  0.06726  0.73939  1.0000
  C   C791      1.0  0.42762  0.13428  0.81557  1.0000
  C   C792      1.0  0.22657  0.18106  0.74413  1.0000
  C   C793      1.0  0.40921  0.13517  0.81836  1.0000
  C   C794      1.0  0.37898  0.09290  0.82803  1.0000
  H   H642      1.0  0.10130  0.20050  0.73607  1.0000
  H   H643      1.0  0.29345  0.19700  0.74437  1.0000
  C   C795      1.0  0.48796  0.01966  0.90382  1.0000
  H   H644      1.0  0.47434  0.16476  0.77457  1.0000
  H   H645      1.0  0.42686  0.99061  0.82865  1.0000
  S   S118      1.0  0.40468  0.21182  0.85403  1.0000
  C   C796      1.0  0.36605  0.00738  0.95706  1.0000
  C   C797      1.0  0.37215  0.04897  0.94063  1.0000
  H   H646      1.0  0.42184  0.23611  0.83268  1.0000
  H   H647      1.0  0.45914  0.02026  0.85778  1.0000
  H   H648      1.0  0.22672  0.16707  0.74606  1.0000
  C   C798      1.0  0.40312  0.02769  0.96724  1.0000
  H   H649      1.0  0.42959  0.19672  0.87026  1.0000
  H   H650      1.0  0.35352  0.01646  0.95968  1.0000
  H   H651      1.0  0.41243  0.05615  0.87111  1.0000
  C   C799      1.0  0.49645  0.13789  0.89935  1.0000
  H   H652      1.0  0.38333  0.21396  0.77053  1.0000
  H   H653      1.0  0.10479  0.16327  0.77120  1.0000
  C   C800      1.0  0.12555  0.19676  0.74264  1.0000
  H   H654      1.0  0.37021  0.03687  0.93936  1.0000
  H   H655      1.0  0.36500  0.06390  0.92304  1.0000
  C   C801      1.0  0.40599  0.19962  0.79437  1.0000
  C   C802      1.0  0.40296  0.20444  0.78210  1.0000
  C   C803      1.0  0.38548  0.21045  0.78003  1.0000
  C   C804      1.0  0.37088  0.21134  0.79026  1.0000
  C   C805      1.0  0.37388  0.20645  0.80255  1.0000
  C   C806      1.0  0.39140  0.20072  0.80461  1.0000
  H   H656      1.0  0.41419  0.20337  0.77416  1.0000
  H   H657      1.0  0.34651  0.13661  0.83494  1.0000
  H   H658      1.0  0.36264  0.20724  0.81048  1.0000
  H   H659      1.0  0.39356  0.19708  0.81410  1.0000
  C   C807      1.0  0.43014  0.01634  0.92224  1.0000
  C   C808      1.0  0.41259  0.02607  0.92235  1.0000
  C   C809      1.0  0.39996  0.01866  0.92006  1.0000
  C   C810      1.0  0.40472  0.00134  0.91803  1.0000
  H   H660      1.0  0.46606  0.08591  0.95347  1.0000
  C   C811      1.0  0.43482  0.99920  0.92004  1.0000
  H   H661      1.0  0.40878  0.03921  0.92423  1.0000
  H   H662      1.0  0.38648  0.02624  0.91995  1.0000
  C   C812      1.0  0.42106  0.02330  0.98262  1.0000
  C   C813      1.0  0.34335  0.22986  0.85088  1.0000
  C   C814      1.0  0.42613  0.08529  0.97582  1.0000
  C   C815      1.0  0.48173  0.13103  0.92538  1.0000
  C   C816      1.0  0.11389  0.05850  0.75197  1.0000
  H   H663      1.0  0.49053  0.23170  0.83400  1.0000
  C   C817      1.0  0.43765  0.20402  0.87232  1.0000
  C   C818      1.0  0.42445  0.10338  0.97041  1.0000
  C   C819      1.0  0.44752  0.19606  0.88168  1.0000
  H   H664      1.0  0.46618  0.19583  0.76360  1.0000
  C   C820      1.0  0.44893  0.06883  0.85758  1.0000
  H   H665      1.0  0.42631  0.10790  0.96028  1.0000
  C   C821      1.0  0.41612  0.11816  0.89269  1.0000
  C   C822      1.0  0.42667  0.10466  0.88659  1.0000
  C   C823      1.0  0.43102  0.10773  0.87338  1.0000
  C   C824      1.0  0.42527  0.12447  0.86612  1.0000
  C   C825      1.0  0.41504  0.13818  0.87216  1.0000
  C   C826      1.0  0.41023  0.13494  0.88543  1.0000
  H   H666      1.0  0.43132  0.09177  0.89202  1.0000
  H   H667      1.0  0.43928  0.09723  0.86882  1.0000
  H   H668      1.0  0.41059  0.15120  0.86662  1.0000
  H   H669      1.0  0.40209  0.14549  0.89007  1.0000
  C   C827      1.0  0.45784  0.22306  0.87800  1.0000
  H   H670      1.0  0.42961  0.22768  0.85888  1.0000
  C   C828      1.0  0.47106  0.19288  0.77217  1.0000
  H   H671      1.0  0.38498  0.07550  0.88060  1.0000
  H   H672      1.0  0.38624  0.06551  0.96003  1.0000
  C   C829      1.0  0.42222  0.99167  0.91800  1.0000
  C   C830      1.0  0.45792  0.05255  0.86379  1.0000
  H   H673      1.0  0.44723  0.02491  0.95309  1.0000
  C   C831      1.0  0.42232  0.99951  0.88313  1.0000
  C   C832      1.0  0.35644  0.04774  0.98091  1.0000
  C   C833      1.0  0.44875  0.23107  0.73800  1.0000
  H   H674      1.0  0.49033  0.06902  0.93912  1.0000
  C   C834      1.0  0.21022  0.21155  0.74236  1.0000
  H   H675      1.0  0.13370  0.16993  0.77062  1.0000
  C   C835      1.0  0.14135  0.06125  0.75584  1.0000
  C   C836      1.0  0.12528  0.05545  0.76019  1.0000
  H   H676      1.0  0.46739  0.05562  0.96667  1.0000
  C   C837      1.0  0.48150  0.12276  0.88141  1.0000
  C   C838      1.0  0.36415  0.09249  0.83810  1.0000
  C   C839      1.0  0.46121  0.12714  0.98157  1.0000
  C   C840      1.0  0.47229  0.20652  0.77723  1.0000
  C   C841      1.0  0.43592  0.14276  0.80374  1.0000
  H   H677      1.0  0.23595  0.22815  0.77882  1.0000
  C   C842      1.0  0.14610  0.07002  0.74327  1.0000
  H   H678      1.0  0.47395  0.22750  0.74287  1.0000
  H   H679      1.0  0.39456  0.08845  0.96628  1.0000
  C   C843      1.0  0.47307  0.12337  0.86221  1.0000
  C   C844      1.0  0.44371  0.00029  0.86318  1.0000
  C   C845      1.0  0.13482  0.07291  0.73492  1.0000
  C   C846      1.0  0.42582  0.15219  0.79471  1.0000
  H   H680      1.0  0.41095  0.99973  0.95528  1.0000
  H   H681      1.0  0.48607  0.23929  0.85667  1.0000
  H   H682      1.0  0.44239  0.22030  0.79431  1.0000
  C   C847      1.0  0.36710  0.15055  0.79866  1.0000
  H   H683      1.0  0.44727  0.18254  0.88674  1.0000
  H   H684      1.0  0.15012  0.05899  0.76224  1.0000
  H   H685      1.0  0.12162  0.04866  0.76993  1.0000
  H   H686      1.0  0.25530  0.17710  0.73960  1.0000
  C   C848      1.0  0.49302  0.99669  0.96543  1.0000
  C   C849      1.0  0.37627  0.10744  0.97651  1.0000
  H   H687      1.0  0.36940  0.18137  0.84404  1.0000
  H   H688      1.0  0.36722  0.17835  0.79429  1.0000
  H   H689      1.0  0.32568  0.99331  0.82096  1.0000
  H   H690      1.0  0.48631  0.20300  0.85935  1.0000
  H   H691      1.0  0.48134  0.99441  0.90723  1.0000
  H   H692      1.0  0.38427  0.21105  0.83550  1.0000
  H   H693      1.0  0.36482  0.20874  0.85685  1.0000
  H   H694      1.0  0.36961  0.09216  0.92528  1.0000
  C   C850      1.0  0.38219  0.01020  0.95811  1.0000
  C   C851      1.0  0.47913  0.00801  0.90210  1.0000
  C   C852      1.0  0.36391  0.16324  0.82172  1.0000
  H   H695      1.0  0.43536  0.12738  0.82272  1.0000
  C   C853      1.0  0.35832  0.17178  0.78022  1.0000
  C   C854      1.0  0.36911  0.06438  0.93131  1.0000
  H   H696      1.0  0.37976  0.09291  0.94396  1.0000
  S   S119      1.0  0.36394  0.23349  0.75057  1.0000
  C   C855      1.0  0.48495  0.13427  0.85529  1.0000
  H   H697      1.0  0.49347  0.01773  0.94875  1.0000
  H   H698      1.0  0.36169  0.07994  0.84406  1.0000
  C   C856      1.0  0.42653  0.05351  0.88566  1.0000
  C   C857      1.0  0.21034  0.19347  0.74523  1.0000
  H   H699      1.0  0.42100  0.01879  0.89340  1.0000
  C   C858      1.0  0.47058  0.13931  0.91683  1.0000
  H   H700      1.0  0.35627  0.18528  0.77473  1.0000
  C   C859      1.0  0.43528  0.02521  0.96054  1.0000
  C   C860      1.0  0.48519  0.05619  0.84799  1.0000
  C   C861      1.0  0.38487  0.09035  0.97492  1.0000
  H   H701      1.0  0.47715  0.20955  0.83002  1.0000
  H   H702      1.0  0.35469  0.13065  0.78027  1.0000
  H   H703      1.0  0.48495  0.15732  0.79455  1.0000
  C   C862      1.0  0.48420  0.03752  0.89787  1.0000
  H   H704      1.0  0.31110  0.21720  0.74597  1.0000
  C   C863      1.0  0.48712  0.07198  0.98286  1.0000
  C   C864      1.0  0.37727  0.08072  0.94316  1.0000
  H   H705      1.0  0.08863  0.17876  0.75392  1.0000
  H   H706      1.0  0.34101  0.10798  0.84834  1.0000
  C   C865      1.0  0.35742  0.14104  0.78340  1.0000
  C   C866      1.0  0.22638  0.21734  0.73840  1.0000
  H   H707      1.0  0.14658  0.19169  0.75279  1.0000
  C   C867      1.0  0.39615  0.07046  0.88526  1.0000
  H   H708      1.0  0.45469  0.23123  0.84170  1.0000
  S   S120      1.0  0.49198  0.17289  0.82832  1.0000
  C   C868      1.0  0.41177  0.05962  0.87987  1.0000
  H   H709      1.0  0.46908  0.14917  0.89734  1.0000
  C   C869      1.0  0.42731  0.01387  0.88484  1.0000
  H   H710      1.0  0.43532  0.14486  0.98282  1.0000
  H   H711      1.0  0.39377  0.10923  0.81262  1.0000
  C   C870      1.0  0.44227  0.23423  0.79232  1.0000
  P   P27       1.0  0.37506  0.14595  0.81306  1.0000
  C   C871      1.0  0.36599  0.99292  0.95250  1.0000
  C   C872      1.0  0.35478  0.15837  0.77623  1.0000
  C   C873      1.0  0.36305  0.17916  0.83741  1.0000
  C   C874      1.0  0.41862  0.02796  0.95762  1.0000
  H   H712      1.0  0.30443  0.22395  0.81290  1.0000
  H   H713      1.0  0.41790  0.02981  0.94787  1.0000
  C   C875      1.0  0.46653  0.01410  0.89451  1.0000
  H   H714      1.0  0.46250  0.10880  0.88062  1.0000
  H   H715      1.0  0.48331  0.08046  0.83379  1.0000
  C   C876      1.0  0.44845  0.23096  0.86823  1.0000
  S   S121      1.0  0.34884  0.21762  0.78787  1.0000
  H   H716      1.0  0.46883  0.05760  0.88566  1.0000
  C   C877      1.0  0.13423  0.18854  0.75272  1.0000
  C   C878      1.0  0.39823  0.99813  0.95467  1.0000
  C   C879      1.0  0.45959  0.22973  0.74627  1.0000
  C   C880      1.0  0.24267  0.18670  0.74046  1.0000
  S   S122      1.0  0.49391  0.08669  0.91281  1.0000
  C   C881      1.0  0.42249  0.23463  0.75483  1.0000
  C   C882      1.0  0.41975  0.11567  0.97821  1.0000
  C   C883      1.0  0.37063  0.12505  0.82281  1.0000
  H   H717      1.0  0.32434  0.23171  0.82289  1.0000
  H   H718      1.0  0.36548  0.12362  0.79995  1.0000
  C   C884      1.0  0.35250  0.10829  0.84051  1.0000
  H   H719      1.0  0.10138  0.05410  0.75534  1.0000
  H   H720      1.0  0.45009  0.14251  0.80170  1.0000
  H   H721      1.0  0.45952  0.23837  0.81854  1.0000
  H   H722      1.0  0.44837  0.99178  0.91978  1.0000
  H   H723      1.0  0.37462  0.23760  0.86231  1.0000
  C   C885      1.0  0.34613  0.18924  0.83586  1.0000
  H   H724      1.0  0.41810  0.12966  0.97403  1.0000
  H   H725      1.0  0.35001  0.16144  0.76757  1.0000
  C   C886      1.0  0.39863  0.23464  0.84784  1.0000
  C   C887      1.0  0.45185  0.23133  0.75880  1.0000
  H   H726      1.0  0.48333  0.03371  0.86344  1.0000
  C   C888      1.0  0.39894  0.14451  0.80928  1.0000
  H   H727      1.0  0.47893  0.10707  0.95855  1.0000
  C   C889      1.0  0.11056  0.17262  0.76327  1.0000
  H   H728      1.0  0.48626  0.13878  0.84517  1.0000
  C   C890      1.0  0.36448  0.16786  0.79135  1.0000
  C   C891      1.0  0.10149  0.18129  0.75352  1.0000
  H   H729      1.0  0.49043  0.04667  0.89968  1.0000
  C   C892      1.0  0.37113  0.21969  0.83692  1.0000
  Fe  Fe58      1.0  0.34637  0.23707  0.76943  1.0000
  C   C893      1.0  0.23172  0.23333  0.75993  1.0000
  H   H730      1.0  0.38804  0.08066  0.82617  1.0000
  H   H731      1.0  0.33939  0.19940  0.84120  1.0000
  C   C894      1.0  0.36356  0.13711  0.79458  1.0000
  C   C895      1.0  0.37193  0.16624  0.83037  1.0000
  H   H732      1.0  0.45117  0.09172  0.84240  1.0000
  C   C896      1.0  0.47217  0.08201  0.96158  1.0000
  H   H733      1.0  0.47879  0.21243  0.79286  1.0000
  S   S123      1.0  0.38896  0.99205  0.91515  1.0000
  H   H734      1.0  0.40833  0.07158  0.91159  1.0000
  C   C897      1.0  0.45745  0.20565  0.88463  1.0000
  C   C898      1.0  0.45810  0.07886  0.84685  1.0000
  P   P28       1.0  0.44684  0.03999  0.87832  1.0000
  H   H735      1.0  0.38501  0.15863  0.83175  1.0000
  C   C899      1.0  0.49247  0.00406  0.95274  1.0000
  P   P29       1.0  0.38193  0.02957  0.96345  1.0000
  C   C900      1.0  0.48162  0.17099  0.78962  1.0000
  C   C901      1.0  0.39500  0.07492  0.89662  1.0000
  C   C902      1.0  0.23195  0.23821  0.77088  1.0000
  H   H736      1.0  0.38309  0.08361  0.90071  1.0000
  C   C903      1.0  0.43324  0.23340  0.76309  1.0000
  H   H737      1.0  0.45947  0.00486  0.89375  1.0000
  H   H738      1.0  0.43502  0.07423  0.86114  1.0000
  H   H739      1.0  0.39986  0.16117  0.79045  1.0000
  C   C904      1.0  0.30916  0.23611  0.80886  1.0000
  H   H740      1.0  0.40300  0.12880  0.82769  1.0000
  C   C905      1.0  0.33798  0.18627  0.82735  1.0000
  H   H741      1.0  0.43213  0.15942  0.78574  1.0000
  C   C906      1.0  0.47791  0.14293  0.90387  1.0000
  C   C907      1.0  0.44049  0.02164  0.87570  1.0000
  C   C908      1.0  0.40928  0.06819  0.90274  1.0000
  H   H742      1.0  0.32494  0.19417  0.82604  1.0000
  C   C909      1.0  0.34675  0.17322  0.82038  1.0000
  C   C910      1.0  0.38222  0.10911  0.82039  1.0000
  C   C911      1.0  0.35568  0.12453  0.83289  1.0000
  C   C912      1.0  0.42496  0.05742  0.89734  1.0000
  H   H743      1.0  0.42167  0.23501  0.73586  1.0000
  C   C913      1.0  0.37163  0.08027  0.93259  1.0000
  C   C914      1.0  0.37803  0.04927  0.95123  1.0000
  C   C915      1.0  0.49058  0.20590  0.83163  1.0000
  C   C916      1.0  0.12687  0.17633  0.76291  1.0000
  H   H744      1.0  0.14693  0.23583  0.74130  1.0000
  C   C917      1.0  0.47610  0.04623  0.85881  1.0000
  C   C918      1.0  0.46273  0.03199  0.88845  1.0000
  H   H745      1.0  0.23566  0.21947  0.75955  1.0000
  H   H746      1.0  0.48037  0.11759  0.89147  1.0000
  C   C919      1.0  0.47176  0.04367  0.89010  1.0000
  C   C920      1.0  0.38084  0.06521  0.95229  1.0000
  H   H747      1.0  0.45621  0.14256  0.92023  1.0000
  C   C921      1.0  0.40738  0.15324  0.79748  1.0000
  C   C922      1.0  0.44877  0.01469  0.86487  1.0000
  C   C923      1.0  0.49476  0.19430  0.86562  1.0000
  C   C924      1.0  0.36010  0.21838  0.84897  1.0000
  H   H748      1.0  0.38905  0.06256  0.98363  1.0000
  C   C925      1.0  0.47928  0.09401  0.96458  1.0000
  C   C926      1.0  0.47819  0.20216  0.78858  1.0000
  H   H749      1.0  0.46496  0.19953  0.89199  1.0000
  C   C927      1.0  0.49810  0.21835  0.83387  1.0000
  H   H750      1.0  0.46514  0.11945  0.85745  1.0000
  C   C928      1.0  0.36561  0.23258  0.82679  1.0000
  H   H751      1.0  0.36044  0.05971  0.97522  1.0000
  C   C929      1.0  0.48658  0.08921  0.97537  1.0000
  C   C930      1.0  0.47622  0.07257  0.84205  1.0000
  C   C931      1.0  0.36434  0.03135  0.97746  1.0000
  H   H752      1.0  0.19785  0.18909  0.74812  1.0000
  C   C932      1.0  0.49497  0.13962  0.86144  1.0000
  H   H753      1.0  0.40809  0.23659  0.75811  1.0000
  H   H754      1.0  0.49925  0.05130  0.84429  1.0000
  C   C933      1.0  0.43019  0.23364  0.74227  1.0000
  H   H755      1.0  0.47603  0.12781  0.93540  1.0000
  C   C934      1.0  0.48507  0.23891  0.76142  1.0000
  C   C935      1.0  0.47284  0.06492  0.96905  1.0000
  H   H756      1.0  0.37464  0.23342  0.81764  1.0000
  C   C936      1.0  0.48292  0.18448  0.79469  1.0000
  H   H757      1.0  0.15849  0.07459  0.74017  1.0000
  P   P30       1.0  0.49540  0.10497  0.97937  1.0000
  C   C937      1.0  0.24259  0.20475  0.73772  1.0000
  C   C938      1.0  0.49410  0.17642  0.86973  1.0000
  C   C939      1.0  0.47568  0.17519  0.77837  1.0000
  H   H758      1.0  0.49441  0.00459  0.97136  1.0000
  H   H759      1.0  0.37938  0.11870  0.96912  1.0000
  C   C940      1.0  0.48031  0.05991  0.97968  1.0000
  H   H760      1.0  0.44938  0.02124  0.97524  1.0000
  C   C941      1.0  0.31025  0.21613  0.73682  1.0000
  H   H761      1.0  0.25524  0.20884  0.73500  1.0000
  H   H762      1.0  0.19748  0.22086  0.74315  1.0000
  H   H763      1.0  0.48946  0.99961  0.93548  1.0000
  H   H764      1.0  0.42692  0.23402  0.77281  1.0000
  H   H765      1.0  0.48481  0.17175  0.86668  1.0000
  H   H766      1.0  0.45868  0.12091  0.97509  1.0000
  C   C942      1.0  0.49278  0.13447  0.87463  1.0000
  H   H767      1.0  0.36511  0.00320  0.98315  1.0000
  H   H768      1.0  0.33493  0.22899  0.86026  1.0000
  C   C943      1.0  0.43651  0.02296  0.97303  1.0000
  C   C944      1.0  0.12404  0.23396  0.73519  1.0000
  C   C945      1.0  0.40445  0.02551  0.97977  1.0000
  P   P31       1.0  0.46575  0.22945  0.76955  1.0000
  C   C946      1.0  0.49024  0.99389  0.94526  1.0000
  H   H769      1.0  0.49621  0.08396  0.88802  1.0000
  C   C947      1.0  0.43043  0.99278  0.87229  1.0000
  C   C948      1.0  0.30024  0.20470  0.73588  1.0000
  H   H770      1.0  0.42262  0.23816  0.80930  1.0000
  H   H771      1.0  0.49713  0.01493  0.91017  1.0000
  C   C949      1.0  0.43786  0.22149  0.86578  1.0000
  H   H772      1.0  0.48727  0.18121  0.80350  1.0000
  H   H773      1.0  0.41223  0.99351  0.89031  1.0000
  H   H774      1.0  0.46538  0.23026  0.88064  1.0000
  H   H775      1.0  0.35356  0.99085  0.95161  1.0000
  H   H776      1.0  0.45028  0.40210  0.08467  1.0000
  C   C950      1.0  0.33498  0.41297  0.15912  1.0000
  H   H777      1.0  0.49673  0.27839  0.04862  1.0000
  S   S124      1.0  0.08148  0.46083  0.01626  1.0000
  H   H778      1.0  0.48949  0.24692  0.09866  1.0000
  Fe  Fe59      1.0  0.09227  0.46816  0.03007  1.0000
  S   S125      1.0  0.09645  0.44941  0.04855  1.0000
  C   C951      1.0  0.30882  0.28374  0.22341  1.0000
  H   H779      1.0  0.48042  0.29482  0.13953  1.0000
  Fe  Fe60      1.0  0.10108  0.47464  0.00131  1.0000
  H   H780      1.0  0.34580  0.26850  0.11443  1.0000
  H   H781      1.0  0.07920  0.46213  0.99128  1.0000
  S   S126      1.0  0.43187  0.27013  0.08427  1.0000
  H   H782      1.0  0.48314  0.33113  0.08634  1.0000
  S   S127      1.0  0.45857  0.38917  0.12427  1.0000
  H   H783      1.0  0.49640  0.31040  0.11922  1.0000
  S   S128      1.0  0.16495  0.46365  0.13332  1.0000
  S   S129      1.0  0.18149  0.45155  0.09944  1.0000
  H   H784      1.0  0.42860  0.34561  0.16722  1.0000
  Fe  Fe61      1.0  0.34478  0.26801  0.18448  1.0000
  S   S130      1.0  0.36528  0.25379  0.19612  1.0000
  S   S131      1.0  0.32755  0.29373  0.18903  1.0000
  C   C952      1.0  0.33921  0.26705  0.22335  1.0000
  S   S132      1.0  0.41192  0.25424  0.17182  1.0000
  S   S133      1.0  0.36413  0.26596  0.16607  1.0000
  C   C953      1.0  0.36007  0.39766  0.19081  1.0000
  Fe  Fe62      1.0  0.33864  0.46294  0.10495  1.0000
  S   S134      1.0  0.36882  0.45491  0.10174  1.0000
  Fe  Fe63      1.0  0.30549  0.44825  0.11768  1.0000
  S   S135      1.0  0.29853  0.42167  0.12432  1.0000
  S   S136      1.0  0.32140  0.45183  0.09786  1.0000
  Fe  Fe64      1.0  0.45085  0.33011  0.11773  1.0000
  S   S137      1.0  0.45195  0.33853  0.13492  1.0000
  S   S138      1.0  0.46677  0.30371  0.11365  1.0000
  Fe  Fe65      1.0  0.42137  0.36155  0.11088  1.0000
  S   S139      1.0  0.41972  0.37203  0.12758  1.0000
  S   S140      1.0  0.40205  0.37484  0.09808  1.0000
  Fe  Fe66      1.0  0.44968  0.36580  0.12253  1.0000
  Fe  Fe67      1.0  0.42215  0.34415  0.13838  1.0000
  S   S141      1.0  0.40464  0.33704  0.15744  1.0000
  S   S142      1.0  0.45125  0.35695  0.10489  1.0000
  S   S143      1.0  0.42114  0.33397  0.12216  1.0000
  Fe  Fe68      1.0  0.20244  0.37316  0.17026  1.0000
  S   S144      1.0  0.20148  0.38656  0.18551  1.0000
  S   S145      1.0  0.18264  0.38154  0.15763  1.0000
  Fe  Fe69      1.0  0.23757  0.34716  0.17414  1.0000
  S   S146      1.0  0.23938  0.35870  0.18957  1.0000
  S   S147      1.0  0.25735  0.32386  0.16721  1.0000
  Fe  Fe70      1.0  0.21015  0.35902  0.19647  1.0000
  Fe  Fe71      1.0  0.23075  0.38498  0.17723  1.0000
  S   S148      1.0  0.24343  0.40743  0.17595  1.0000
  S   S149      1.0  0.20883  0.34553  0.18191  1.0000
  S   S150      1.0  0.23102  0.37349  0.16112  1.0000
  C   C954      1.0  0.40984  0.38735  0.15748  1.0000
  C   C955      1.0  0.18043  0.34268  0.22202  1.0000
  C   C956      1.0  0.16190  0.38522  0.22587  1.0000
  H   H785      1.0  0.17920  0.39672  0.20922  1.0000
  C   C957      1.0  0.25393  0.31921  0.22912  1.0000
  C   C958      1.0  0.41561  0.24467  0.12239  1.0000
  C   C959      1.0  0.17167  0.34177  0.21311  1.0000
  C   C960      1.0  0.15519  0.33657  0.21708  1.0000
  H   H786      1.0  0.39345  0.37350  0.17347  1.0000
  C   C961      1.0  0.26029  0.46632  0.06914  1.0000
  H   H787      1.0  0.17754  0.34519  0.20319  1.0000
  H   H788      1.0  0.14844  0.33580  0.21019  1.0000
  C   C962      1.0  0.28369  0.41800  0.13883  1.0000
  C   C963      1.0  0.27601  0.40334  0.14207  1.0000
  C   C964      1.0  0.26380  0.40015  0.15348  1.0000
  C   C965      1.0  0.25929  0.41139  0.16183  1.0000
  C   C966      1.0  0.26736  0.42587  0.15878  1.0000
  C   C967      1.0  0.27955  0.42923  0.14720  1.0000
  H   H789      1.0  0.27944  0.39444  0.13576  1.0000
  H   H790      1.0  0.25829  0.38866  0.15591  1.0000
  H   H791      1.0  0.26398  0.43454  0.16529  1.0000
  H   H792      1.0  0.28563  0.44054  0.14464  1.0000
  C   C968      1.0  0.37841  0.43300  0.09990  1.0000
  C   C969      1.0  0.36958  0.42372  0.09562  1.0000
  C   C970      1.0  0.37703  0.40595  0.09490  1.0000
  C   C971      1.0  0.39329  0.39734  0.09853  1.0000
  C   C972      1.0  0.40235  0.40674  0.10252  1.0000
  C   C973      1.0  0.39497  0.42456  0.10313  1.0000
  H   H793      1.0  0.35695  0.43017  0.09294  1.0000
  H   H794      1.0  0.37000  0.39878  0.09175  1.0000
  H   H795      1.0  0.41508  0.40032  0.10509  1.0000
  H   H796      1.0  0.40187  0.43166  0.10641  1.0000
  C   C974      1.0  0.30801  0.30166  0.18307  1.0000
  C   C975      1.0  0.29621  0.31708  0.18609  1.0000
  C   C976      1.0  0.28053  0.32379  0.18141  1.0000
  C   C977      1.0  0.27658  0.31519  0.17363  1.0000
  C   C978      1.0  0.28835  0.29965  0.17067  1.0000
  C   C979      1.0  0.30407  0.29287  0.17539  1.0000
  H   H797      1.0  0.29922  0.32390  0.19204  1.0000
  H   H798      1.0  0.27172  0.33580  0.18366  1.0000
  H   H799      1.0  0.28538  0.29292  0.16465  1.0000
  H   H800      1.0  0.31316  0.28092  0.17308  1.0000
  C   C980      1.0  0.40763  0.31393  0.16206  1.0000
  C   C981      1.0  0.39584  0.30630  0.17250  1.0000
  C   C982      1.0  0.39727  0.28792  0.17560  1.0000
  C   C983      1.0  0.41086  0.27707  0.16853  1.0000
  C   C984      1.0  0.42308  0.28464  0.15839  1.0000
  C   C985      1.0  0.42134  0.30307  0.15507  1.0000
  H   H801      1.0  0.38530  0.31458  0.17800  1.0000
  H   H802      1.0  0.38779  0.28214  0.18344  1.0000
  H   H803      1.0  0.43347  0.27635  0.15279  1.0000
  H   H804      1.0  0.43051  0.30884  0.14700  1.0000
  C   C986      1.0  0.17040  0.44077  0.13976  1.0000
  C   C987      1.0  0.17633  0.43486  0.15112  1.0000
  C   C988      1.0  0.18059  0.41669  0.15648  1.0000
  C   C989      1.0  0.17817  0.40435  0.15079  1.0000
  C   C990      1.0  0.17164  0.41030  0.13966  1.0000
  C   C991      1.0  0.16811  0.42844  0.13400  1.0000
  H   H805      1.0  0.17796  0.44434  0.15568  1.0000
  H   H806      1.0  0.18547  0.41227  0.16511  1.0000
  H   H807      1.0  0.16958  0.40082  0.13530  1.0000
  H   H808      1.0  0.16328  0.43290  0.12533  1.0000
  C   C992      1.0  0.44050  0.27891  0.09348  1.0000
  C   C993      1.0  0.43627  0.29726  0.09248  1.0000
  C   C994      1.0  0.44356  0.30486  0.09919  1.0000
  C   C995      1.0  0.45559  0.29416  0.10665  1.0000
  C   C996      1.0  0.45970  0.27578  0.10779  1.0000
  C   C997      1.0  0.45193  0.26814  0.10139  1.0000
  H   H809      1.0  0.42753  0.30565  0.08633  1.0000
  H   H810      1.0  0.44049  0.31908  0.09812  1.0000
  H   H811      1.0  0.46890  0.26744  0.11363  1.0000
  H   H812      1.0  0.45500  0.25398  0.10243  1.0000
  H   H813      1.0  0.37127  0.42609  0.20340  1.0000
  H   H814      1.0  0.25788  0.46111  0.14443  1.0000
  C   C998      1.0  0.49112  0.37546  0.08740  1.0000
  Fe  Fe72      1.0  0.38389  0.24977  0.17783  1.0000
  C   C999      1.0  0.32869  0.42561  0.17744  1.0000
  H   H815      1.0  0.42178  0.37697  0.15808  1.0000
  C   C1000     1.0  0.25974  0.48001  0.08952  1.0000
  H   H816      1.0  0.11005  0.35860  0.21740  1.0000
  H   H817      1.0  0.34268  0.40314  0.15371  1.0000
  C   C1001     1.0  0.49244  0.32408  0.07941  1.0000
  C   C1002     1.0  0.11104  0.45092  0.05745  1.0000
  C   C1003     1.0  0.11165  0.43888  0.06900  1.0000
  C   C1004     1.0  0.12247  0.43951  0.07671  1.0000
  C   C1005     1.0  0.13296  0.45218  0.07308  1.0000
  C   C1006     1.0  0.26369  0.30179  0.23175  1.0000
  C   C1007     1.0  0.12160  0.46366  0.05360  1.0000
  H   H818      1.0  0.10358  0.42902  0.07207  1.0000
  H   H819      1.0  0.12264  0.43009  0.08563  1.0000
  C   C1008     1.0  0.39520  0.41595  0.14695  1.0000
  C   C1009     1.0  0.43894  0.34020  0.17262  1.0000
  H   H820      1.0  0.17046  0.38450  0.23207  1.0000
  H   H821      1.0  0.14091  0.47390  0.05835  1.0000
  H   H822      1.0  0.48075  0.36084  0.06516  1.0000
  C   C1010     1.0  0.27066  0.24140  0.22022  1.0000
  C   C1011     1.0  0.47108  0.25104  0.15695  1.0000
  C   C1012     1.0  0.10331  0.48524  0.10817  1.0000
  S   S151      1.0  0.32383  0.45747  0.12510  1.0000
  C   C1013     1.0  0.11391  0.48074  0.12734  1.0000
  C   C1014     1.0  0.41698  0.24833  0.13345  1.0000
  H   H823      1.0  0.45727  0.25026  0.16136  1.0000
  C   C1015     1.0  0.48682  0.30917  0.15074  1.0000
  C   C1016     1.0  0.33461  0.37201  0.18508  1.0000
  H   H824      1.0  0.37798  0.45760  0.12544  1.0000
  C   C1017     1.0  0.26081  0.29751  0.21202  1.0000
  C   C1018     1.0  0.30300  0.26800  0.22548  1.0000
  H   H825      1.0  0.33657  0.33153  0.18013  1.0000
  H   H826      1.0  0.47426  0.24866  0.08170  1.0000
  H   H827      1.0  0.09492  0.40056  0.02903  1.0000
  C   C1019     1.0  0.13264  0.46423  0.06140  1.0000
  H   H828      1.0  0.35889  0.26852  0.13616  1.0000
  H   H829      1.0  0.12950  0.45473  0.13355  1.0000
  C   C1020     1.0  0.24743  0.32569  0.21803  1.0000
  H   H830      1.0  0.30675  0.44839  0.17822  1.0000
  C   C1021     1.0  0.38187  0.27129  0.08986  1.0000
  S   S152      1.0  0.22788  0.45761  0.07879  1.0000
  C   C1022     1.0  0.32947  0.35627  0.18615  1.0000
  H   H831      1.0  0.47914  0.30279  0.15946  1.0000
  C   C1023     1.0  0.03760  0.48699  0.02855  1.0000
  C   C1024     1.0  0.33906  0.41286  0.17047  1.0000
  C   C1025     1.0  0.30136  0.37628  0.16608  1.0000
  C   C1026     1.0  0.28787  0.36770  0.16703  1.0000
  C   C1027     1.0  0.28927  0.35823  0.15798  1.0000
  C   C1028     1.0  0.30439  0.35698  0.14816  1.0000
  C   C1029     1.0  0.31811  0.36540  0.14722  1.0000
  C   C1030     1.0  0.31655  0.37495  0.15631  1.0000
  P   P32       1.0  0.33856  0.36182  0.13547  1.0000
  C   C1031     1.0  0.35186  0.34017  0.14079  1.0000
  C   C1032     1.0  0.33334  0.36412  0.12040  1.0000
  C   C1033     1.0  0.34539  0.35532  0.11125  1.0000
  C   C1034     1.0  0.34187  0.35839  0.09925  1.0000
  C   C1035     1.0  0.32649  0.37047  0.09621  1.0000
  C   C1036     1.0  0.31455  0.37941  0.10520  1.0000
  C   C1037     1.0  0.31786  0.37614  0.11727  1.0000
  C   C1038     1.0  0.36997  0.33539  0.13494  1.0000
  C   C1039     1.0  0.38053  0.31928  0.13984  1.0000
  C   C1040     1.0  0.37318  0.30786  0.15051  1.0000
  C   C1041     1.0  0.35517  0.31232  0.15622  1.0000
  C   C1042     1.0  0.34451  0.32833  0.15140  1.0000
  C   C1043     1.0  0.35022  0.37910  0.13336  1.0000
  C   C1044     1.0  0.36536  0.37584  0.13844  1.0000
  C   C1045     1.0  0.37402  0.38948  0.13683  1.0000
  C   C1046     1.0  0.36761  0.40648  0.13024  1.0000
  C   C1047     1.0  0.35235  0.40991  0.12542  1.0000
  C   C1048     1.0  0.34377  0.39628  0.12689  1.0000
  H   H832      1.0  0.29997  0.38407  0.17288  1.0000
  H   H833      1.0  0.27601  0.36891  0.17454  1.0000
  H   H834      1.0  0.27859  0.35192  0.15857  1.0000
  H   H835      1.0  0.30563  0.34903  0.14152  1.0000
  H   H836      1.0  0.32711  0.38117  0.15596  1.0000
  H   H837      1.0  0.35769  0.34640  0.11318  1.0000
  H   H838      1.0  0.35135  0.35179  0.09218  1.0000
  H   H839      1.0  0.32404  0.37322  0.08680  1.0000
  H   H840      1.0  0.30303  0.38935  0.10272  1.0000
  H   H841      1.0  0.30872  0.38365  0.12396  1.0000
  H   H842      1.0  0.37613  0.34437  0.12691  1.0000
  H   H843      1.0  0.39456  0.31566  0.13562  1.0000
  H   H844      1.0  0.38158  0.29561  0.15440  1.0000
  H   H845      1.0  0.34949  0.30354  0.16459  1.0000
  H   H846      1.0  0.33073  0.33142  0.15631  1.0000
  H   H847      1.0  0.37065  0.36283  0.14359  1.0000
  H   H848      1.0  0.38578  0.38678  0.14064  1.0000
  H   H849      1.0  0.37454  0.41697  0.12869  1.0000
  H   H850      1.0  0.34740  0.42303  0.12020  1.0000
  H   H851      1.0  0.33222  0.39925  0.12283  1.0000
  H   H852      1.0  0.30010  0.44859  0.15794  1.0000
  H   H853      1.0  0.12727  0.44310  0.11593  1.0000
  H   H854      1.0  0.00182  0.46303  0.99777  1.0000
  C   C1049     1.0  0.36759  0.41433  0.20290  1.0000
  C   C1050     1.0  0.06934  0.46572  0.08844  1.0000
  C   C1051     1.0  0.24515  0.47335  0.08947  1.0000
  C   C1052     1.0  0.28805  0.25988  0.20340  1.0000
  C   C1053     1.0  0.31564  0.25186  0.22599  1.0000
  C   C1054     1.0  0.35665  0.34704  0.17137  1.0000
  C   C1055     1.0  0.31470  0.43849  0.17289  1.0000
  H   H855      1.0  0.06273  0.45506  0.09383  1.0000
  C   C1056     1.0  0.32094  0.42571  0.15466  1.0000
  H   H856      1.0  0.39409  0.27620  0.08665  1.0000
  H   H857      1.0  0.12975  0.37231  0.99320  1.0000
  Fe  Fe73      1.0  0.16163  0.46870  0.08782  1.0000
  C   C1057     1.0  0.42796  0.45188  0.10336  1.0000
  C   C1058     1.0  0.41398  0.45911  0.12744  1.0000
  C   C1059     1.0  0.37141  0.48320  0.13039  1.0000
  H   H858      1.0  0.47680  0.30446  0.08333  1.0000
  C   C1060     1.0  0.08221  0.37057  0.22252  1.0000
  H   H859      1.0  0.44421  0.32171  0.20267  1.0000
  C   C1061     1.0  0.36494  0.41280  0.19152  1.0000
  C   C1062     1.0  0.37803  0.39847  0.16491  1.0000
  H   H860      1.0  0.39573  0.42769  0.13945  1.0000
  C   C1063     1.0  0.36560  0.40068  0.21361  1.0000
  H   H861      1.0  0.47240  0.41805  0.12382  1.0000
  H   H862      1.0  0.24560  0.31976  0.20097  1.0000
  H   H863      1.0  0.43167  0.43446  0.13383  1.0000
  H   H864      1.0  0.31784  0.42552  0.14591  1.0000
  H   H865      1.0  0.37427  0.36490  0.16397  1.0000
  C   C1064     1.0  0.35101  0.37523  0.17730  1.0000
  C   C1065     1.0  0.31087  0.43857  0.16149  1.0000
  H   H866      1.0  0.32577  0.38170  0.19031  1.0000
  C   C1066     1.0  0.48885  0.30884  0.07785  1.0000
  S   S153      1.0  0.14592  0.45179  0.08378  1.0000
  H   H867      1.0  0.33119  0.42562  0.18639  1.0000
  H   H868      1.0  0.44382  0.42795  0.11253  1.0000
  C   C1067     1.0  0.17453  0.25232  0.22832  1.0000
  H   H869      1.0  0.49821  0.28696  0.06857  1.0000
  H   H870      1.0  0.35324  0.26667  0.22235  1.0000
  H   H871      1.0  0.39684  0.30792  0.11458  1.0000
  H   H872      1.0  0.38694  0.26017  0.07359  1.0000
  Fe  Fe74      1.0  0.17111  0.47089  0.11198  1.0000
  H   H873      1.0  0.32877  0.46815  0.15231  1.0000
  H   H874      1.0  0.07513  0.34621  0.02024  1.0000
  H   H875      1.0  0.11111  0.46236  0.09971  1.0000
  H   H876      1.0  0.31683  0.35380  0.19216  1.0000
  C   C1068     1.0  0.24551  0.46639  0.07929  1.0000
  C   C1069     1.0  0.14634  0.37865  0.23068  1.0000
  H   H877      1.0  0.06683  0.46312  0.07047  1.0000
  C   C1070     1.0  0.35076  0.25794  0.09801  1.0000
  C   C1071     1.0  0.34053  0.34375  0.17932  1.0000
  C   C1072     1.0  0.32687  0.28323  0.22234  1.0000
  C   C1073     1.0  0.37030  0.27391  0.10139  1.0000
  H   H878      1.0  0.46016  0.34415  0.15638  1.0000
  C   C1074     1.0  0.49321  0.36528  0.07854  1.0000
  C   C1075     1.0  0.44776  0.32668  0.19257  1.0000
  C   C1076     1.0  0.43436  0.33382  0.18563  1.0000
  C   C1077     1.0  0.27929  0.25564  0.21610  1.0000
  H   H879      1.0  0.23961  0.33910  0.21610  1.0000
  C   C1078     1.0  0.33360  0.25139  0.22517  1.0000
  C   C1079     1.0  0.21254  0.27862  0.20941  1.0000
  H   H880      1.0  0.16962  0.29676  0.22481  1.0000
  H   H881      1.0  0.18774  0.29423  0.20399  1.0000
  H   H882      1.0  0.10703  0.41609  0.03979  1.0000
  C   C1080     1.0  0.37782  0.26222  0.08242  1.0000
  H   H883      1.0  0.43302  0.44884  0.09408  1.0000
  C   C1081     1.0  0.20209  0.29046  0.20110  1.0000
  C   C1082     1.0  0.21020  0.29780  0.18883  1.0000
  C   C1083     1.0  0.22875  0.29344  0.18474  1.0000
  C   C1084     1.0  0.23928  0.28186  0.19296  1.0000
  C   C1085     1.0  0.23124  0.27455  0.20527  1.0000
  H   H884      1.0  0.33137  0.29542  0.22038  1.0000
  H   H885      1.0  0.26648  0.46524  0.16292  1.0000
  C   C1086     1.0  0.11128  0.46752  0.10759  1.0000
  C   C1087     1.0  0.47955  0.36856  0.07196  1.0000
  C   C1088     1.0  0.35477  0.26703  0.10546  1.0000
  C   C1089     1.0  0.36221  0.25563  0.08646  1.0000
  H   H886      1.0  0.13875  0.29611  0.22501  1.0000
  C   C1090     1.0  0.48841  0.24858  0.07948  1.0000
  H   H887      1.0  0.35523  0.37178  0.20120  1.0000
  H   H888      1.0  0.20211  0.30706  0.18250  1.0000
  H   H889      1.0  0.23498  0.29919  0.17523  1.0000
  H   H890      1.0  0.25370  0.27876  0.18976  1.0000
  C   C1091     1.0  0.05338  0.41803  0.98925  1.0000
  C   C1092     1.0  0.46235  0.39205  0.08280  1.0000
  H   H891      1.0  0.49094  0.30896  0.03644  1.0000
  C   C1093     1.0  0.07094  0.40994  0.99047  1.0000
  C   C1094     1.0  0.40626  0.26357  0.13740  1.0000
  C   C1095     1.0  0.39402  0.27500  0.13038  1.0000
  C   C1096     1.0  0.39232  0.27134  0.11936  1.0000
  C   C1097     1.0  0.40347  0.25620  0.11529  1.0000
  P   P33       1.0  0.37559  0.28583  0.11087  1.0000
  C   C1098     1.0  0.49722  0.24567  0.14026  1.0000
  C   C1099     1.0  0.35559  0.29300  0.12213  1.0000
  C   C1100     1.0  0.35078  0.28169  0.13381  1.0000
  C   C1101     1.0  0.33544  0.28728  0.14259  1.0000
  C   C1102     1.0  0.32473  0.30420  0.13976  1.0000
  C   C1103     1.0  0.32926  0.31545  0.12806  1.0000
  C   C1104     1.0  0.34458  0.30985  0.11926  1.0000
  C   C1105     1.0  0.38330  0.30538  0.10112  1.0000
  C   C1106     1.0  0.39283  0.31371  0.10566  1.0000
  C   C1107     1.0  0.39734  0.32973  0.09865  1.0000
  C   C1108     1.0  0.39264  0.33744  0.08700  1.0000
  C   C1109     1.0  0.38328  0.32918  0.08235  1.0000
  C   C1110     1.0  0.37837  0.31337  0.08945  1.0000
  C   C1111     1.0  0.27426  0.48044  0.07913  1.0000
  C   C1112     1.0  0.14878  0.28392  0.22587  1.0000
  H   H892      1.0  0.40726  0.26638  0.14599  1.0000
  H   H893      1.0  0.38557  0.28651  0.13370  1.0000
  H   H894      1.0  0.40273  0.25303  0.10677  1.0000
  H   H895      1.0  0.26338  0.28955  0.20517  1.0000
  H   H896      1.0  0.33192  0.27843  0.15159  1.0000
  H   H897      1.0  0.31292  0.30856  0.14662  1.0000
  H   H898      1.0  0.32089  0.32850  0.12580  1.0000
  H   H899      1.0  0.34778  0.31866  0.11022  1.0000
  C   C1113     1.0  0.14750  0.33224  0.22996  1.0000
  H   H900      1.0  0.12661  0.43673  0.02740  1.0000
  H   H901      1.0  0.40467  0.33618  0.10214  1.0000
  H   H902      1.0  0.39628  0.34984  0.08164  1.0000
  H   H903      1.0  0.37967  0.33515  0.07328  1.0000
  H   H904      1.0  0.37059  0.30754  0.08586  1.0000
  C   C1114     1.0  0.12973  0.43666  0.17951  1.0000
  C   C1115     1.0  0.13234  0.43566  0.16694  1.0000
  C   C1116     1.0  0.13271  0.41975  0.16405  1.0000
  C   C1117     1.0  0.13080  0.40472  0.17368  1.0000
  C   C1118     1.0  0.12853  0.40550  0.18634  1.0000
  C   C1119     1.0  0.12772  0.42168  0.18919  1.0000
  P   P34       1.0  0.12708  0.38591  0.19885  1.0000
  C   C1120     1.0  0.10422  0.38599  0.20738  1.0000
  C   C1121     1.0  0.13628  0.36686  0.19169  1.0000
  C   C1122     1.0  0.12516  0.35665  0.19068  1.0000
  C   C1123     1.0  0.13238  0.34236  0.18471  1.0000
  C   C1124     1.0  0.15063  0.33848  0.17934  1.0000
  C   C1125     1.0  0.16165  0.34892  0.17991  1.0000
  C   C1126     1.0  0.15456  0.36303  0.18607  1.0000
  C   C1127     1.0  0.09983  0.37062  0.21591  1.0000
  H   H905      1.0  0.13401  0.44215  0.00398  1.0000
  H   H906      1.0  0.49138  0.24904  0.05997  1.0000
  C   C1128     1.0  0.07303  0.40120  0.21228  1.0000
  C   C1129     1.0  0.09065  0.40129  0.20560  1.0000
  C   C1130     1.0  0.14074  0.38539  0.20951  1.0000
  C   C1131     1.0  0.15644  0.39200  0.20478  1.0000
  C   C1132     1.0  0.16690  0.39197  0.21294  1.0000
  C   C1133     1.0  0.27443  0.47364  0.06894  1.0000
  C   C1134     1.0  0.48039  0.25868  0.16213  1.0000
  C   C1135     1.0  0.13579  0.37871  0.22258  1.0000
  H   H907      1.0  0.12965  0.44897  0.18170  1.0000
  H   H908      1.0  0.13446  0.44709  0.15938  1.0000
  H   H909      1.0  0.13508  0.41890  0.15428  1.0000
  H   H910      1.0  0.13161  0.39247  0.17112  1.0000
  H   H911      1.0  0.12597  0.42259  0.19888  1.0000
  H   H912      1.0  0.11088  0.35976  0.19426  1.0000
  H   H913      1.0  0.12376  0.33446  0.18407  1.0000
  H   H914      1.0  0.15621  0.32762  0.17451  1.0000
  H   H915      1.0  0.17566  0.34638  0.17530  1.0000
  H   H916      1.0  0.16333  0.37114  0.18615  1.0000
  Fe  Fe75      1.0  0.30387  0.47900  0.09554  1.0000
  H   H917      1.0  0.28562  0.47387  0.06093  1.0000
  C   C1136     1.0  0.14403  0.26787  0.22747  1.0000
  H   H918      1.0  0.06261  0.41302  0.21084  1.0000
  H   H919      1.0  0.09357  0.41327  0.19903  1.0000
  H   H920      1.0  0.16075  0.39705  0.19475  1.0000
  C   C1137     1.0  0.48746  0.30465  0.13947  1.0000
  H   H921      1.0  0.12415  0.37306  0.22661  1.0000
  C   C1138     1.0  0.15685  0.25206  0.22884  1.0000
  Fe  Fe76      1.0  0.06034  0.48789  0.01501  1.0000
  C   C1139     1.0  0.46419  0.38186  0.07412  1.0000
  C   C1140     1.0  0.04798  0.47521  0.00763  1.0000
  C   C1141     1.0  0.04269  0.47176  0.02192  1.0000
  C   C1142     1.0  0.21071  0.29700  0.23152  1.0000
  H   H922      1.0  0.12124  0.47307  0.04469  1.0000
  H   H923      1.0  0.26062  0.46089  0.06128  1.0000
  Fe  Fe77      1.0  0.35622  0.24050  0.16835  1.0000
  C   C1143     1.0  0.45686  0.33922  0.16648  1.0000
  C   C1144     1.0  0.47951  0.24451  0.14603  1.0000
  C   C1145     1.0  0.43397  0.44007  0.11376  1.0000
  C   C1146     1.0  0.49631  0.31351  0.12799  1.0000
  H   H924      1.0  0.07523  0.37635  0.00737  1.0000
  H   H925      1.0  0.03911  0.43629  0.01507  1.0000
  C   C1147     1.0  0.41055  0.40252  0.14785  1.0000
  H   H926      1.0  0.05515  0.38578  0.22586  1.0000
  S   S154      1.0  0.33478  0.24395  0.18584  1.0000
  H   H927      1.0  0.36738  0.42461  0.15462  1.0000
  H   H928      1.0  0.29535  0.27042  0.20018  1.0000
  H   H929      1.0  0.02840  0.43386  0.99707  1.0000
  C   C1148     1.0  0.25438  0.47395  0.14674  1.0000
  S   S155      1.0  0.20059  0.34998  0.21740  1.0000
  C   C1149     1.0  0.41504  0.46737  0.10495  1.0000
  C   C1150     1.0  0.48361  0.40695  0.12278  1.0000
  H   H930      1.0  0.08229  0.48715  0.05810  1.0000
  H   H931      1.0  0.05062  0.46456  0.00285  1.0000
  H   H932      1.0  0.04209  0.45851  0.02735  1.0000
  C   C1151     1.0  0.17950  0.26846  0.22650  1.0000
  H   H933      1.0  0.23963  0.26584  0.21158  1.0000
  S   S156      1.0  0.28657  0.47466  0.11493  1.0000
  C   C1152     1.0  0.37904  0.41402  0.15551  1.0000
  H   H934      1.0  0.12380  0.37522  0.01798  1.0000
  C   C1153     1.0  0.49538  0.37638  0.12115  1.0000
  H   H935      1.0  0.42043  0.33430  0.19027  1.0000
  H   H936      1.0  0.07898  0.35859  0.22899  1.0000
  C   C1154     1.0  0.25076  0.31480  0.20953  1.0000
  H   H937      1.0  0.12340  0.34507  0.03088  1.0000
  H   H938      1.0  0.09910  0.33047  0.03207  1.0000
  H   H939      1.0  0.13028  0.26767  0.22801  1.0000
  H   H940      1.0  0.07021  0.42244  0.01720  1.0000
  C   C1155     1.0  0.36879  0.46627  0.13135  1.0000
  C   C1156     1.0  0.24124  0.35846  0.13383  1.0000
  C   C1157     1.0  0.25937  0.35240  0.13410  1.0000
  C   C1158     1.0  0.27131  0.36341  0.12769  1.0000
  C   C1159     1.0  0.26514  0.38049  0.12108  1.0000
  C   C1160     1.0  0.24700  0.38662  0.12050  1.0000
  C   C1161     1.0  0.23505  0.37550  0.12713  1.0000
  P   P35       1.0  0.23923  0.40904  0.11219  1.0000
  C   C1162     1.0  0.22914  0.42342  0.12316  1.0000
  C   C1163     1.0  0.25850  0.41665  0.10148  1.0000
  C   C1164     1.0  0.26478  0.43008  0.10357  1.0000
  C   C1165     1.0  0.28014  0.43531  0.09562  1.0000
  C   C1166     1.0  0.28937  0.42725  0.08552  1.0000
  C   C1167     1.0  0.28351  0.41359  0.08352  1.0000
  C   C1168     1.0  0.26832  0.40809  0.09160  1.0000
  C   C1169     1.0  0.22024  0.44081  0.11884  1.0000
  C   C1170     1.0  0.21340  0.45252  0.12700  1.0000
  C   C1171     1.0  0.21529  0.44693  0.13953  1.0000
  C   C1172     1.0  0.22391  0.42955  0.14393  1.0000
  C   C1173     1.0  0.23088  0.41782  0.13577  1.0000
  C   C1174     1.0  0.22221  0.40982  0.10402  1.0000
  C   C1175     1.0  0.20533  0.40700  0.11104  1.0000
  C   C1176     1.0  0.19203  0.40731  0.10500  1.0000
  C   C1177     1.0  0.19520  0.41120  0.09183  1.0000
  C   C1178     1.0  0.21165  0.41482  0.08474  1.0000
  C   C1179     1.0  0.22510  0.41416  0.09078  1.0000
  H   H941      1.0  0.23188  0.35011  0.13911  1.0000
  H   H942      1.0  0.26406  0.33929  0.13949  1.0000
  H   H943      1.0  0.28532  0.35883  0.12797  1.0000
  H   H944      1.0  0.27452  0.38900  0.11664  1.0000
  H   H945      1.0  0.22090  0.37989  0.12745  1.0000
  H   H946      1.0  0.25807  0.43653  0.11137  1.0000
  H   H947      1.0  0.28480  0.44574  0.09729  1.0000
  H   H948      1.0  0.30106  0.43167  0.07927  1.0000
  H   H949      1.0  0.29071  0.40732  0.07569  1.0000
  H   H950      1.0  0.26411  0.39727  0.09011  1.0000
  H   H951      1.0  0.21884  0.44537  0.10909  1.0000
  H   H952      1.0  0.20648  0.46587  0.12364  1.0000
  H   H953      1.0  0.20980  0.45598  0.14587  1.0000
  H   H954      1.0  0.22520  0.42513  0.15369  1.0000
  H   H955      1.0  0.23771  0.40451  0.13930  1.0000
  H   H956      1.0  0.20225  0.40509  0.12121  1.0000
  H   H957      1.0  0.17900  0.40533  0.11051  1.0000
  H   H958      1.0  0.18461  0.41228  0.08714  1.0000
  H   H959      1.0  0.21380  0.41882  0.07455  1.0000
  H   H960      1.0  0.23728  0.41790  0.08500  1.0000
  C   C1180     1.0  0.08569  0.35262  0.01978  1.0000
  C   C1181     1.0  0.09920  0.34375  0.02643  1.0000
  C   C1182     1.0  0.11287  0.35197  0.02576  1.0000
  C   C1183     1.0  0.11300  0.36910  0.01850  1.0000
  C   C1184     1.0  0.09931  0.37823  0.01194  1.0000
  C   C1185     1.0  0.08577  0.36977  0.01250  1.0000
  P   P36       1.0  0.09981  0.40020  0.00233  1.0000
  C   C1186     1.0  0.48077  0.39067  0.12256  1.0000
  C   C1187     1.0  0.07731  0.41144  0.00050  1.0000
  H   H961      1.0  0.49315  0.36391  0.12082  1.0000
  C   C1188     1.0  0.11437  0.39867  0.98705  1.0000
  C   C1189     1.0  0.04192  0.42745  0.99813  1.0000
  C   C1190     1.0  0.04803  0.42887  0.00823  1.0000
  C   C1191     1.0  0.06571  0.42101  0.00939  1.0000
  C   C1192     1.0  0.12178  0.46310  0.12669  1.0000
  C   C1193     1.0  0.07153  0.47030  0.07531  1.0000
  H   H962      1.0  0.36521  0.33745  0.16596  1.0000
  H   H963      1.0  0.45353  0.38410  0.06922  1.0000
  C   C1194     1.0  0.16633  0.28422  0.22568  1.0000
  C   C1195     1.0  0.10803  0.41212  0.01020  1.0000
  C   C1196     1.0  0.11904  0.42400  0.00324  1.0000
  C   C1197     1.0  0.12580  0.43274  0.00943  1.0000
  C   C1198     1.0  0.12162  0.42973  0.02259  1.0000
  C   C1199     1.0  0.11053  0.41808  0.02958  1.0000
  C   C1200     1.0  0.10367  0.40937  0.02344  1.0000
  C   C1201     1.0  0.47044  0.33174  0.17331  1.0000
  C   C1202     1.0  0.46575  0.32565  0.18646  1.0000
  H   H964      1.0  0.42298  0.40373  0.14101  1.0000
  H   H965      1.0  0.36668  0.42342  0.18326  1.0000
  C   C1203     1.0  0.42703  0.44372  0.12579  1.0000
  C   C1204     1.0  0.28732  0.25064  0.19478  1.0000
  P   P37       1.0  0.27975  0.26828  0.22690  1.0000
  H   H966      1.0  0.35971  0.37476  0.22118  1.0000
  H   H967      1.0  0.29970  0.29649  0.22224  1.0000
  H   H968      1.0  0.47587  0.31989  0.19202  1.0000
  C   C1205     1.0  0.36186  0.36270  0.17033  1.0000
  C   C1206     1.0  0.35839  0.38386  0.20155  1.0000
  C   C1207     1.0  0.25904  0.47632  0.15715  1.0000
  H   H969      1.0  0.21715  0.30076  0.22171  1.0000
  P   P38       1.0  0.35711  0.39586  0.17594  1.0000
  C   C1208     1.0  0.39372  0.38539  0.16609  1.0000
  H   H970      1.0  0.35159  0.44780  0.13990  1.0000
  C   C1209     1.0  0.47581  0.38884  0.08944  1.0000
  H   H971      1.0  0.29395  0.25414  0.18497  1.0000
  C   C1210     1.0  0.07602  0.47467  0.09455  1.0000
  C   C1211     1.0  0.36106  0.38544  0.21292  1.0000
  Fe  Fe78      1.0  0.19985  0.46944  0.08789  1.0000
  C   C1212     1.0  0.08032  0.48385  0.06830  1.0000
  H   H972      1.0  0.47375  0.26379  0.17057  1.0000
  P   P39       1.0  0.20242  0.26911  0.22541  1.0000
  C   C1213     1.0  0.35374  0.46067  0.13951  1.0000
  C   C1214     1.0  0.06881  0.38586  0.22074  1.0000
  H   H973      1.0  0.35909  0.24861  0.08068  1.0000
  S   S157      1.0  0.11392  0.47921  0.01527  1.0000
  C   C1215     1.0  0.21536  0.24689  0.22970  1.0000
  H   H974      1.0  0.40833  0.46150  0.13687  1.0000
  C   C1216     1.0  0.26733  0.29083  0.22316  1.0000
  H   H975      1.0  0.33880  0.25260  0.10123  1.0000
  H   H976      1.0  0.07420  0.47103  0.10472  1.0000
  H   H977      1.0  0.36770  0.40186  0.22241  1.0000
  H   H978      1.0  0.47418  0.39647  0.09640  1.0000
  H   H979      1.0  0.01053  0.46723  0.03719  1.0000
  C   C1217     1.0  0.49693  0.24775  0.08899  1.0000
  C   C1218     1.0  0.12048  0.45652  0.11680  1.0000
  C   C1219     1.0  0.40808  0.47121  0.11700  1.0000
  C   C1220     1.0  0.34092  0.47207  0.14652  1.0000
  C   C1221     1.0  0.24508  0.48823  0.13917  1.0000
  H   H980      1.0  0.42099  0.48796  0.13076  1.0000
  H   H981      1.0  0.25958  0.48507  0.09749  1.0000
  H   H982      1.0  0.03335  0.48417  0.03866  1.0000
  Fe  Fe79      1.0  0.30680  0.48463  0.12020  1.0000
  H   H983      1.0  0.47449  0.36652  0.15911  1.0000
  H   H984      1.0  0.23385  0.47329  0.09739  1.0000
  H   H985      1.0  0.11551  0.48593  0.13476  1.0000
  H   H986      1.0  0.12232  0.42677  0.99304  1.0000
  H   H987      1.0  0.41024  0.47603  0.09679  1.0000
  P   P40       1.0  0.49359  0.32910  0.16503  1.0000
  C   C1222     1.0  0.08524  0.48803  0.08753  1.0000
  C   C1223     1.0  0.12778  0.38344  0.98539  1.0000
  H   H988      1.0  0.12413  0.48667  0.07735  1.0000
  S   S158      1.0  0.18084  0.48550  0.07538  1.0000
  S   S159      1.0  0.29201  0.49000  0.07836  1.0000
  S   S160      1.0  0.14986  0.48698  0.10138  1.0000
  H   H989      1.0  0.24177  0.48612  0.13106  1.0000
  H   H990      1.0  0.36239  0.48947  0.10730  1.0000
  S   S161      1.0  0.19141  0.48745  0.10146  1.0000
  C   C1224     1.0  0.48848  0.36604  0.15815  1.0000
  C   C1225     1.0  0.49548  0.32230  0.15062  1.0000
  C   C1226     1.0  0.49810  0.25991  0.15636  1.0000
  H   H991      1.0  0.48515  0.39428  0.15129  1.0000
  C   C1227     1.0  0.49447  0.38188  0.15370  1.0000
  C   C1228     1.0  0.49820  0.24885  0.06712  1.0000
  H   H992      1.0  0.00380  0.48985  0.07082  1.0000
  H   H993      1.0  0.15263  0.48934  0.99365  1.0000
  Fe  Fe80      1.0  0.43869  0.24068  0.08534  1.0000
  C   C1229     1.0  0.34334  0.48895  0.14558  1.0000
  Fe  Fe81      1.0  0.04255  0.44955  0.44418  1.0000
  H   H994      1.0  0.13015  0.24723  0.35923  1.0000
  S   S162      1.0  0.03125  0.44513  0.46506  1.0000
  Fe  Fe82      1.0  0.06066  0.43479  0.42057  1.0000
  S   S163      1.0  0.05641  0.46164  0.40752  1.0000
  S   S164      1.0  0.07238  0.40787  0.41553  1.0000
  H   H995      1.0  0.10426  0.24699  0.28470  1.0000
  C   C1230     1.0  0.01019  0.29107  0.41984  1.0000
  Fe  Fe83      1.0  0.02893  0.46560  0.41984  1.0000
  C   C1231     1.0  0.27995  0.24650  0.25107  1.0000
  S   S165      1.0  0.07114  0.44399  0.43386  1.0000
  S   S166      1.0  0.03252  0.43834  0.43200  1.0000
  Fe  Fe84      1.0  0.05194  0.34894  0.34423  1.0000
  S   S167      1.0  0.07291  0.34324  0.35550  1.0000
  S   S168      1.0  0.05665  0.35274  0.32315  1.0000
  Fe  Fe85      1.0  0.05464  0.36421  0.36560  1.0000
  S   S169      1.0  0.06371  0.38797  0.36697  1.0000
  C   C1232     1.0  0.02414  0.37025  0.40332  1.0000
  C   C1233     1.0  0.10556  0.45855  0.43852  1.0000
  H   H996      1.0  0.17951  0.33897  0.24177  1.0000
  H   H997      1.0  0.02978  0.47826  0.38667  1.0000
  C   C1234     1.0  0.01652  0.38644  0.39636  1.0000
  Fe  Fe86      1.0  0.12680  0.29919  0.28090  1.0000
  S   S170      1.0  0.10399  0.31183  0.27107  1.0000
  S   S171      1.0  0.12982  0.30884  0.29700  1.0000
  Fe  Fe87      1.0  0.14067  0.26971  0.26622  1.0000
  C   C1235     1.0  0.07935  0.37180  0.27409  1.0000
  Fe  Fe88      1.0  0.10097  0.28408  0.27397  1.0000
  S   S172      1.0  0.07444  0.27629  0.28163  1.0000
  S   S173      1.0  0.14768  0.29588  0.26317  1.0000
  S   S174      1.0  0.12245  0.27174  0.28501  1.0000
  H   H998      1.0  0.11519  0.35389  0.31803  1.0000
  H   H999      1.0  0.18586  0.26841  0.25182  1.0000
  C   C1236     1.0  0.20210  0.28272  0.23582  1.0000
  H   H1000     1.0  0.06974  0.43287  0.46338  1.0000
  C   C1237     1.0  0.04471  0.32981  0.29384  1.0000
  H   H1001     1.0  0.15026  0.33020  0.24876  1.0000
  H   H1002     1.0  0.12861  0.48791  0.44548  1.0000
  C   C1238     1.0  0.07681  0.33990  0.31627  1.0000
  C   C1239     1.0  0.08069  0.34101  0.30327  1.0000
  C   C1240     1.0  0.09683  0.33142  0.29737  1.0000
  C   C1241     1.0  0.10938  0.32073  0.30441  1.0000
  C   C1242     1.0  0.10566  0.31976  0.31743  1.0000
  C   C1243     1.0  0.08926  0.32913  0.32339  1.0000
  H   H1003     1.0  0.07125  0.34947  0.29773  1.0000
  H   H1004     1.0  0.09974  0.33287  0.28731  1.0000
  H   H1005     1.0  0.11536  0.31163  0.32292  1.0000
  H   H1006     1.0  0.08636  0.32815  0.33344  1.0000
  Fe  Fe89      1.0  0.05629  0.32469  0.36926  1.0000
  H   H1007     1.0  0.06595  0.26672  0.39862  1.0000
  H   H1008     1.0  0.21681  0.31834  0.23647  1.0000
  C   C1244     1.0  0.05596  0.27621  0.36973  1.0000
  C   C1245     1.0  0.07741  0.25741  0.29378  1.0000
  C   C1246     1.0  0.08521  0.39009  0.30697  1.0000
  C   C1247     1.0  0.12361  0.26111  0.35778  1.0000
  C   C1248     1.0  0.10537  0.46501  0.45838  1.0000
  S   S175      1.0  0.15904  0.24462  0.26145  1.0000
  H   H1009     1.0  0.20078  0.24573  0.28601  1.0000
  C   C1249     1.0  0.13878  0.34649  0.27242  1.0000
  Fe  Fe90      1.0  0.06391  0.47136  0.42195  1.0000
  H   H1010     1.0  0.01133  0.27939  0.42739  1.0000
  C   C1250     1.0  0.10369  0.35990  0.25832  1.0000
  H   H1011     1.0  0.04594  0.30360  0.29188  1.0000
  C   C1251     1.0  0.06817  0.40264  0.40248  1.0000
  C   C1252     1.0  0.06373  0.41580  0.39209  1.0000
  C   C1253     1.0  0.06224  0.41108  0.38134  1.0000
  C   C1254     1.0  0.06447  0.39324  0.38104  1.0000
  C   C1255     1.0  0.06840  0.38011  0.39156  1.0000
  C   C1256     1.0  0.07042  0.38480  0.40217  1.0000
  H   H1012     1.0  0.06218  0.42956  0.39216  1.0000
  H   H1013     1.0  0.05963  0.42130  0.37314  1.0000
  H   H1014     1.0  0.07050  0.36633  0.39134  1.0000
  H   H1015     1.0  0.07402  0.37454  0.41011  1.0000
  H   H1016     1.0  0.10600  0.28271  0.31730  1.0000
  C   C1257     1.0  0.04476  0.44085  0.47597  1.0000
  C   C1258     1.0  0.06331  0.43474  0.47284  1.0000
  C   C1259     1.0  0.01432  0.35706  0.40872  1.0000
  C   C1260     1.0  0.10584  0.37776  0.28961  1.0000
  S   S176      1.0  0.00440  0.47928  0.41202  1.0000
  S   S177      1.0  0.03674  0.32885  0.35716  1.0000
  H   H1017     1.0  0.09704  0.48455  0.44240  1.0000
  H   H1018     1.0  0.14771  0.25528  0.33614  1.0000
  C   C1261     1.0  0.16751  0.36344  0.26326  1.0000
  H   H1019     1.0  0.01694  0.44248  0.41069  1.0000
  H   H1020     1.0  0.18688  0.28542  0.26673  1.0000
  S   S178      1.0  0.03975  0.34524  0.38041  1.0000
  C   C1262     1.0  0.01818  0.30497  0.39777  1.0000
  H   H1021     1.0  0.00135  0.42069  0.40909  1.0000
  H   H1022     1.0  0.00940  0.40109  0.31283  1.0000
  C   C1263     1.0  0.05070  0.26041  0.37059  1.0000
  C   C1264     1.0  0.11290  0.47191  0.48060  1.0000
  C   C1265     1.0  0.01091  0.32781  0.30960  1.0000
  C   C1266     1.0  0.09383  0.24527  0.29305  1.0000
  C   C1267     1.0  0.00293  0.44646  0.41034  1.0000
  C   C1268     1.0  0.11670  0.28929  0.36380  1.0000
  Fe  Fe91      1.0  0.12445  0.30671  0.25360  1.0000
  C   C1269     1.0  0.02509  0.40385  0.48380  1.0000
  H   H1023     1.0  0.08418  0.40084  0.28750  1.0000
  H   H1024     1.0  0.24256  0.27215  0.24082  1.0000
  H   H1025     1.0  0.06448  0.35136  0.25749  1.0000
  C   C1270     1.0  0.07421  0.26124  0.33733  1.0000
  C   C1271     1.0  0.09095  0.26569  0.33231  1.0000
  C   C1272     1.0  0.00269  0.48804  0.36076  1.0000
  H   H1026     1.0  0.01046  0.35385  0.31184  1.0000
  H   H1027     1.0  0.02335  0.46767  0.35305  1.0000
  S   S179      1.0  0.03598  0.47729  0.43315  1.0000
  H   H1028     1.0  0.03774  0.36785  0.40443  1.0000
  H   H1029     1.0  0.14285  0.37281  0.24064  1.0000
  C   C1273     1.0  0.00195  0.39558  0.33309  1.0000
  C   C1274     1.0  0.19313  0.27894  0.24848  1.0000
  C   C1275     1.0  0.14997  0.37346  0.26503  1.0000
  H   H1030     1.0  0.04686  0.25842  0.36271  1.0000
  H   H1031     1.0  0.11376  0.43110  0.43743  1.0000
  H   H1032     1.0  0.00519  0.25931  0.38335  1.0000
  C   C1276     1.0  0.11298  0.26852  0.34872  1.0000
  C   C1277     1.0  0.06745  0.36556  0.27018  1.0000
  H   H1033     1.0  0.21727  0.24893  0.24806  1.0000
  C   C1278     1.0  0.11165  0.44053  0.44323  1.0000
  C   C1279     1.0  0.03793  0.31472  0.29602  1.0000
  C   C1280     1.0  0.10419  0.28641  0.34733  1.0000
  C   C1281     1.0  0.11543  0.41298  0.26863  1.0000
  C   C1282     1.0  0.01362  0.30792  0.33786  1.0000
  C   C1283     1.0  0.20249  0.30257  0.25263  1.0000
  H   H1034     1.0  0.10301  0.46308  0.42906  1.0000
  H   H1035     1.0  0.03701  0.47933  0.47339  1.0000
  S   S180      1.0  0.03487  0.37132  0.35314  1.0000
  H   H1036     1.0  0.04832  0.36349  0.46838  1.0000
  C   C1284     1.0  0.14605  0.25080  0.32842  1.0000
  C   C1285     1.0  0.07859  0.28844  0.31584  1.0000
  C   C1286     1.0  0.25329  0.24398  0.26751  1.0000
  H   H1037     1.0  0.02556  0.30414  0.38824  1.0000
  H   H1038     1.0  0.07417  0.37870  0.28173  1.0000
  C   C1287     1.0  0.07363  0.35649  0.26038  1.0000
  C   C1288     1.0  0.09765  0.36876  0.26835  1.0000
  C   C1289     1.0  0.01874  0.47528  0.36035  1.0000
  C   C1290     1.0  0.09390  0.37691  0.31561  1.0000
  C   C1291     1.0  0.25090  0.26312  0.24706  1.0000
  H   H1039     1.0  0.05343  0.36764  0.27484  1.0000
  C   C1292     1.0  0.06457  0.48017  0.47100  1.0000
  C   C1293     1.0  0.01301  0.27906  0.35160  1.0000
  C   C1294     1.0  0.09122  0.39063  0.29402  1.0000
  C   C1295     1.0  0.11051  0.42152  0.24386  1.0000
  H   H1040     1.0  0.08890  0.37615  0.32567  1.0000
  C   C1296     1.0  0.11144  0.44686  0.46308  1.0000
  C   C1297     1.0  0.05579  0.24976  0.39181  1.0000
  H   H1041     1.0  0.09644  0.34672  0.24684  1.0000
  C   C1298     1.0  0.02243  0.48124  0.37926  1.0000
  H   H1042     1.0  0.11760  0.29725  0.36985  1.0000
  C   C1299     1.0  0.00837  0.42043  0.36188  1.0000
  H   H1043     1.0  0.04688  0.26689  0.33546  1.0000
  C   C1300     1.0  0.11339  0.43429  0.24890  1.0000
  H   H1044     1.0  0.01850  0.26807  0.35846  1.0000
  C   C1301     1.0  0.10870  0.36434  0.31130  1.0000
  H   H1045     1.0  0.01115  0.41487  0.45198  1.0000
  H   H1046     1.0  0.20267  0.31020  0.25911  1.0000
  C   C1302     1.0  0.05145  0.38144  0.47830  1.0000
  H   H1047     1.0  0.02600  0.43412  0.38093  1.0000
  C   C1303     1.0  0.04175  0.37459  0.47286  1.0000
  C   C1304     1.0  0.06366  0.25467  0.30441  1.0000
  C   C1305     1.0  0.06186  0.28419  0.32106  1.0000
  H   H1048     1.0  0.17868  0.36997  0.25965  1.0000
  C   C1306     1.0  0.17281  0.33817  0.23488  1.0000
  C   C1307     1.0  0.01773  0.34301  0.30726  1.0000
  H   H1049     1.0  0.12570  0.35433  0.29544  1.0000
  C   C1308     1.0  0.09312  0.27920  0.32142  1.0000
  C   C1309     1.0  0.22070  0.24067  0.24131  1.0000
  C   C1310     1.0  0.01953  0.28995  0.40754  1.0000
  C   C1311     1.0  0.15633  0.33652  0.27090  1.0000
  H   H1050     1.0  0.02786  0.27747  0.40555  1.0000
  C   C1312     1.0  0.26959  0.25874  0.24287  1.0000
  H   H1051     1.0  0.12785  0.33969  0.27609  1.0000
  C   C1313     1.0  0.13545  0.36504  0.26968  1.0000
  C   C1314     1.0  0.12545  0.27148  0.36529  1.0000
  H   H1052     1.0  0.05061  0.29127  0.31675  1.0000
  H   H1053     1.0  0.15873  0.32219  0.27341  1.0000
  H   H1054     1.0  0.07355  0.39962  0.31040  1.0000
  C   C1315     1.0  0.09168  0.35384  0.25438  1.0000
  C   C1316     1.0  0.05038  0.24725  0.38174  1.0000
  H   H1055     1.0  0.14789  0.38773  0.26288  1.0000
  C   C1317     1.0  0.17069  0.34498  0.26633  1.0000
  H   H1056     1.0  0.13442  0.48575  0.47136  1.0000
  H   H1057     1.0  0.08033  0.29888  0.30747  1.0000
  H   H1058     1.0  0.06875  0.47414  0.46289  1.0000
  C   C1318     1.0  0.11462  0.36467  0.29838  1.0000
  H   H1059     1.0  0.07231  0.25059  0.34551  1.0000
  H   H1060     1.0  0.01658  0.30142  0.30617  1.0000
  H   H1061     1.0  0.00626  0.33254  0.39258  1.0000
  H   H1062     1.0  0.11778  0.40977  0.27810  1.0000
  H   H1063     1.0  0.04092  0.46184  0.36942  1.0000
  H   H1064     1.0  0.02052  0.34453  0.41401  1.0000
  H   H1065     1.0  0.11346  0.44197  0.47262  1.0000
  C   C1319     1.0  0.02061  0.29389  0.34687  1.0000
  H   H1066     1.0  0.03207  0.29443  0.35005  1.0000
  C   C1320     1.0  0.02368  0.38232  0.47294  1.0000
  H   H1067     1.0  0.00857  0.38169  0.33413  1.0000
  C   C1321     1.0  0.21075  0.30695  0.23991  1.0000
  C   C1322     1.0  0.00247  0.40655  0.32108  1.0000
  C   C1323     1.0  0.11232  0.40013  0.26369  1.0000
  C   C1324     1.0  0.19363  0.28861  0.25691  1.0000
  C   C1325     1.0  0.12911  0.24966  0.32763  1.0000
  C   C1326     1.0  0.11455  0.43469  0.45551  1.0000
  H   H1068     1.0  0.09905  0.31040  0.35389  1.0000
  H   H1069     1.0  0.11889  0.42068  0.45926  1.0000
  H   H1070     1.0  0.10797  0.39474  0.24708  1.0000
  C   C1327     1.0  0.05972  0.27050  0.33170  1.0000
  C   C1328     1.0  0.02864  0.47194  0.36958  1.0000
  C   C1329     1.0  0.06136  0.27858  0.37990  1.0000
  C   C1330     1.0  0.06159  0.26511  0.39079  1.0000
  H   H1071     1.0  0.03463  0.41465  0.36563  1.0000
  H   H1072     1.0  0.08769  0.42541  0.47981  1.0000
  H   H1073     1.0  0.18427  0.33725  0.26516  1.0000
  S   S181      1.0  0.11879  0.28023  0.25541  1.0000
  C   C1331     1.0  0.10620  0.29674  0.35477  1.0000
  H   H1074     1.0  0.05799  0.33030  0.28807  1.0000
  C   C1332     1.0  0.15635  0.33303  0.23885  1.0000
  H   H1075     1.0  0.11384  0.44747  0.24318  1.0000
  S   S182      1.0  0.06868  0.29762  0.37943  1.0000
  H   H1076     1.0  0.06552  0.37570  0.47803  1.0000
  C   C1333     1.0  0.12743  0.24415  0.31731  1.0000
  H   H1077     1.0  0.13330  0.26563  0.37246  1.0000
  P   P41       1.0  0.10051  0.48086  0.46818  1.0000
  H   H1078     1.0  0.22844  0.25937  0.26265  1.0000
  P   P42       1.0  0.11280  0.37785  0.27288  1.0000
  C   C1334     1.0  0.11585  0.43002  0.26127  1.0000
  C   C1335     1.0  0.10221  0.47070  0.44610  1.0000
  C   C1336     1.0  0.10999  0.40449  0.25121  1.0000
  H   H1079     1.0  0.11826  0.43987  0.26515  1.0000
  H   H1080     1.0  0.09540  0.29240  0.34079  1.0000
  C   C1337     1.0  0.01622  0.43314  0.37622  1.0000
  H   H1081     1.0  0.05630  0.28634  0.36113  1.0000
  H   H1082     1.0  0.17414  0.24716  0.31969  1.0000
  C   C1338     1.0  0.02123  0.31359  0.30403  1.0000
  C   C1339     1.0  0.18187  0.24539  0.27558  1.0000
  H   H1083     1.0  0.04004  0.35538  0.29821  1.0000
  H   H1084     1.0  0.01641  0.37692  0.46862  1.0000
  Fe  Fe92      1.0  0.02135  0.35077  0.36715  1.0000
  P   P43       1.0  0.10957  0.25462  0.33982  1.0000
  H   H1085     1.0  0.08935  0.24743  0.36588  1.0000
  H   H1086     1.0  0.11765  0.35751  0.25356  1.0000
  C   C1340     1.0  0.00738  0.32107  0.40027  1.0000
  C   C1341     1.0  0.03459  0.34394  0.29946  1.0000
  H   H1087     1.0  0.02424  0.39658  0.39211  1.0000
  C   C1342     1.0  0.01523  0.39711  0.47835  1.0000
  H   H1088     1.0  0.05085  0.26392  0.30500  1.0000
  H   H1089     1.0  0.29428  0.24248  0.24812  1.0000
  H   H1090     1.0  0.17375  0.25828  0.27673  1.0000
  C   C1343     1.0  0.04647  0.48304  0.47698  1.0000
  C   C1344     1.0  0.02104  0.42207  0.36771  1.0000
  S   S183      1.0  0.12665  0.32626  0.23486  1.0000
  C   C1345     1.0  0.24283  0.25589  0.25938  1.0000
  H   H1091     1.0  0.01263  0.41171  0.35536  1.0000
  H   H1092     1.0  0.02013  0.31902  0.33400  1.0000
  H   H1093     1.0  0.00580  0.41244  0.43206  1.0000
  C   C1346     1.0  0.16109  0.24621  0.31911  1.0000
  C   C1347     1.0  0.07692  0.48505  0.47549  1.0000
  H   H1094     1.0  0.03476  0.24367  0.29864  1.0000
  C   C1348     1.0  0.07345  0.43060  0.48211  1.0000
  C   C1349     1.0  0.12914  0.47646  0.47955  1.0000
  H   H1095     1.0  0.26852  0.29687  0.24044  1.0000
  H   H1096     1.0  0.11447  0.24318  0.31653  1.0000
  C   C1350     1.0  0.15930  0.24055  0.30896  1.0000
  H   H1097     1.0  0.00169  0.32177  0.36939  1.0000
  H   H1098     1.0  0.25122  0.32766  0.23572  1.0000
  H   H1099     1.0  0.10880  0.42476  0.23422  1.0000
  Fe  Fe93      1.0  0.07248  0.43915  0.54800  1.0000
  S   S184      1.0  0.04662  0.45787  0.55367  1.0000
  S   S185      1.0  0.09399  0.42776  0.55915  1.0000
  Fe  Fe94      1.0  0.06455  0.43949  0.52302  1.0000
  S   S186      1.0  0.03786  0.45819  0.52655  1.0000
  C   C1351     1.0  0.02742  0.41042  0.65306  1.0000
  C   C1352     1.0  0.36702  0.31121  0.73148  1.0000
  H   H1100     1.0  0.30618  0.33370  0.69056  1.0000
  Fe  Fe95      1.0  0.03481  0.44155  0.54625  1.0000
  C   C1353     1.0  0.02101  0.45098  0.58304  1.0000
  S   S187      1.0  0.07902  0.45548  0.52852  1.0000
  S   S188      1.0  0.06031  0.42163  0.54217  1.0000
  Fe  Fe96      1.0  0.06930  0.35284  0.61065  1.0000
  S   S189      1.0  0.05383  0.37934  0.61434  1.0000
  S   S190      1.0  0.08967  0.35141  0.59260  1.0000
  Fe  Fe97      1.0  0.05352  0.33329  0.63653  1.0000
  S   S191      1.0  0.03664  0.35818  0.64224  1.0000
  S   S192      1.0  0.05316  0.30978  0.65258  1.0000
  Fe  Fe98      1.0  0.03093  0.36556  0.62290  1.0000
  Fe  Fe99      1.0  0.06115  0.36909  0.63329  1.0000
  S   S193      1.0  0.07123  0.38493  0.64234  1.0000
  S   S194      1.0  0.04593  0.33959  0.61775  1.0000
  S   S195      1.0  0.07850  0.34371  0.62888  1.0000
  Fe  Fe100     1.0  0.13109  0.31860  0.68460  1.0000
  S   S196      1.0  0.13510  0.34288  0.66952  1.0000
  Fe  Fe101     1.0  0.14413  0.27916  0.69327  1.0000
  H   H1101     1.0  0.05570  0.28078  0.68828  1.0000
  S   S197      1.0  0.12476  0.29518  0.68111  1.0000
  S   S198      1.0  0.15269  0.30253  0.69510  1.0000
  H   H1102     1.0  0.12048  0.39905  0.56871  1.0000
  C   C1354     1.0  0.16542  0.29472  0.62154  1.0000
  S   S199      1.0  0.01098  0.43077  0.55806  1.0000
  H   H1103     1.0  0.19422  0.28942  0.61720  1.0000
  H   H1104     1.0  0.29112  0.25039  0.69938  1.0000
  C   C1355     1.0  0.05064  0.36503  0.68052  1.0000
  H   H1105     1.0  0.15148  0.25571  0.66576  1.0000
  C   C1356     1.0  0.02596  0.30745  0.68457  1.0000
  C   C1357     1.0  0.03419  0.39649  0.52878  1.0000
  H   H1106     1.0  0.15133  0.47240  0.48826  1.0000
  H   H1107     1.0  0.11123  0.44247  0.50889  1.0000
  H   H1108     1.0  0.02774  0.30276  0.67613  1.0000
  H   H1109     1.0  0.37023  0.29934  0.72781  1.0000
  H   H1110     1.0  0.05061  0.40154  0.48788  1.0000
  S   S200      1.0  0.10937  0.32088  0.70192  1.0000
  H   H1111     1.0  0.07430  0.31574  0.52630  1.0000
  H   H1112     1.0  0.07087  0.46754  0.56411  1.0000
  C   C1358     1.0  0.00432  0.35362  0.66798  1.0000
  C   C1359     1.0  0.27828  0.36111  0.71870  1.0000
  C   C1360     1.0  0.31836  0.39118  0.72902  1.0000
  C   C1361     1.0  0.02359  0.40480  0.51987  1.0000
  H   H1113     1.0  0.04914  0.31900  0.67693  1.0000
  C   C1362     1.0  0.02751  0.37132  0.69871  1.0000
  H   H1114     1.0  0.00381  0.37768  0.59328  1.0000
  H   H1115     1.0  0.01914  0.41545  0.48777  1.0000
  C   C1363     1.0  0.27495  0.25385  0.71762  1.0000
  C   C1364     1.0  0.01155  0.28041  0.65983  1.0000
  C   C1365     1.0  0.11342  0.26593  0.65865  1.0000
  C   C1366     1.0  0.03810  0.37196  0.67286  1.0000
  C   C1367     1.0  0.35403  0.30557  0.70636  1.0000
  C   C1368     1.0  0.01640  0.30849  0.61503  1.0000
  C   C1369     1.0  0.06949  0.30799  0.54660  1.0000
  H   H1116     1.0  0.31173  0.39020  0.72210  1.0000
  C   C1370     1.0  0.15012  0.28926  0.62151  1.0000
  S   S201      1.0  0.17370  0.36469  0.73072  1.0000
  C   C1371     1.0  0.09258  0.42673  0.59507  1.0000
  H   H1117     1.0  0.05992  0.42789  0.59175  1.0000
  H   H1118     1.0  0.04018  0.44122  0.50682  1.0000
  C   C1372     1.0  0.13881  0.46887  0.48910  1.0000
  C   C1373     1.0  0.26575  0.43117  0.72946  1.0000
  C   C1374     1.0  0.02337  0.24596  0.71628  1.0000
  H   H1119     1.0  0.00357  0.41706  0.58523  1.0000
  S   S202      1.0  0.13425  0.30548  0.73102  1.0000
  C   C1375     1.0  0.30121  0.33161  0.72994  1.0000
  C   C1376     1.0  0.20612  0.26003  0.71709  1.0000
  C   C1377     1.0  0.22154  0.24479  0.68122  1.0000
  H   H1120     1.0  0.26345  0.41484  0.71799  1.0000
  H   H1121     1.0  0.22875  0.32690  0.72257  1.0000
  C   C1378     1.0  0.28431  0.31481  0.67757  1.0000
  H   H1122     1.0  0.16061  0.35781  0.71177  1.0000
  H   H1123     1.0  0.18403  0.27791  0.68057  1.0000
  C   C1379     1.0  0.18447  0.26988  0.61277  1.0000
  C   C1380     1.0  0.07712  0.38329  0.53017  1.0000
  H   H1124     1.0  0.17369  0.26438  0.64636  1.0000
  H   H1125     1.0  0.28130  0.31552  0.66861  1.0000
  H   H1126     1.0  0.29849  0.33600  0.67027  1.0000
  H   H1127     1.0  0.14577  0.33469  0.71138  1.0000
  H   H1128     1.0  0.09521  0.42816  0.58493  1.0000
  H   H1129     1.0  0.09276  0.47632  0.54482  1.0000
  C   C1381     1.0  0.08855  0.37271  0.65019  1.0000
  C   C1382     1.0  0.10043  0.38162  0.65161  1.0000
  C   C1383     1.0  0.11450  0.37234  0.65770  1.0000
  C   C1384     1.0  0.11644  0.35417  0.66281  1.0000
  C   C1385     1.0  0.10432  0.34522  0.66167  1.0000
  C   C1386     1.0  0.09055  0.35445  0.65515  1.0000
  H   H1130     1.0  0.09894  0.39571  0.64784  1.0000
  H   H1131     1.0  0.12388  0.37927  0.65849  1.0000
  H   H1132     1.0  0.10586  0.33114  0.66549  1.0000
  H   H1133     1.0  0.08129  0.34751  0.65420  1.0000
  C   C1387     1.0  0.05645  0.28904  0.64927  1.0000
  C   C1388     1.0  0.05475  0.28730  0.63769  1.0000
  C   C1389     1.0  0.05655  0.27041  0.63561  1.0000
  H   H1134     1.0  0.00569  0.26488  0.59344  1.0000
  C   C1390     1.0  0.06140  0.25723  0.65678  1.0000
  C   C1391     1.0  0.06004  0.27401  0.65872  1.0000
  H   H1135     1.0  0.05144  0.29901  0.63058  1.0000
  H   H1136     1.0  0.05511  0.26894  0.62673  1.0000
  H   H1137     1.0  0.24044  0.24848  0.64069  1.0000
  H   H1138     1.0  0.06148  0.27536  0.66763  1.0000
  C   C1392     1.0  0.00494  0.28348  0.61499  1.0000
  C   C1393     1.0  0.01428  0.39514  0.51641  1.0000
  C   C1394     1.0  0.04186  0.25383  0.60917  1.0000
  H   H1139     1.0  0.10740  0.39974  0.59798  1.0000
  C   C1395     1.0  0.00920  0.36499  0.57769  1.0000
  H   H1140     1.0  0.37490  0.28328  0.70171  1.0000
  H   H1141     1.0  0.01877  0.40838  0.62138  1.0000
  H   H1142     1.0  0.00511  0.32712  0.66680  1.0000
  C   C1396     1.0  0.06266  0.26949  0.69413  1.0000
  C   C1397     1.0  0.09233  0.40682  0.56877  1.0000
  C   C1398     1.0  0.07586  0.40174  0.57321  1.0000
  C   C1399     1.0  0.07490  0.38489  0.58092  1.0000
  C   C1400     1.0  0.09048  0.37296  0.58384  1.0000
  C   C1401     1.0  0.10690  0.37809  0.57945  1.0000
  C   C1402     1.0  0.10777  0.39510  0.57209  1.0000
  H   H1143     1.0  0.06389  0.41082  0.57073  1.0000
  H   H1144     1.0  0.06222  0.38092  0.58436  1.0000
  H   H1145     1.0  0.11893  0.36891  0.58173  1.0000
  C   C1403     1.0  0.24658  0.24458  0.72360  1.0000
  H   H1146     1.0  0.08262  0.42021  0.63146  1.0000
  P   P44       1.0  0.00513  0.26012  0.62009  1.0000
  H   H1147     1.0  0.21707  0.27326  0.67645  1.0000
  H   H1148     1.0  0.08563  0.30285  0.66763  1.0000
  C   C1404     1.0  0.03314  0.41884  0.63023  1.0000
  H   H1149     1.0  0.12041  0.24378  0.68832  1.0000
  H   H1150     1.0  0.21809  0.25806  0.70986  1.0000
  C   C1405     1.0  0.08339  0.25720  0.70804  1.0000
  H   H1151     1.0  0.26885  0.37242  0.71478  1.0000
  H   H1152     1.0  0.08228  0.48872  0.51271  1.0000
  C   C1406     1.0  0.24150  0.30721  0.66994  1.0000
  C   C1407     1.0  0.24488  0.28930  0.67584  1.0000
  C   C1408     1.0  0.24003  0.28420  0.68896  1.0000
  C   C1409     1.0  0.23205  0.29696  0.69627  1.0000
  C   C1410     1.0  0.22851  0.31501  0.69041  1.0000
  C   C1411     1.0  0.23320  0.32001  0.67718  1.0000
  P   P45       1.0  0.21583  0.33158  0.69940  1.0000
  C   C1412     1.0  0.20858  0.32094  0.71569  1.0000
  C   C1413     1.0  0.22831  0.34769  0.69871  1.0000
  C   C1414     1.0  0.24461  0.34879  0.69001  1.0000
  C   C1415     1.0  0.25367  0.36179  0.68932  1.0000
  C   C1416     1.0  0.24667  0.37360  0.69742  1.0000
  C   C1417     1.0  0.23073  0.37229  0.70632  1.0000
  C   C1418     1.0  0.22154  0.35949  0.70692  1.0000
  C   C1419     1.0  0.01644  0.29043  0.61881  1.0000
  C   C1420     1.0  0.19013  0.26929  0.71332  1.0000
  C   C1421     1.0  0.01175  0.40050  0.64160  1.0000
  H   H1153     1.0  0.05145  0.25077  0.68988  1.0000
  C   C1422     1.0  0.19422  0.31242  0.71920  1.0000
  C   C1423     1.0  0.19637  0.34239  0.69260  1.0000
  C   C1424     1.0  0.18850  0.33255  0.68794  1.0000
  C   C1425     1.0  0.17386  0.34082  0.68230  1.0000
  C   C1426     1.0  0.16678  0.35892  0.68135  1.0000
  C   C1427     1.0  0.17450  0.36885  0.68591  1.0000
  C   C1428     1.0  0.18925  0.36066  0.69150  1.0000
  H   H1154     1.0  0.24488  0.31112  0.65974  1.0000
  H   H1155     1.0  0.25092  0.27926  0.67026  1.0000
  H   H1156     1.0  0.24227  0.27028  0.69338  1.0000
  H   H1157     1.0  0.22830  0.29260  0.70641  1.0000
  H   H1158     1.0  0.22997  0.33380  0.67246  1.0000
  H   H1159     1.0  0.25035  0.33977  0.68372  1.0000
  H   H1160     1.0  0.26612  0.36274  0.68250  1.0000
  H   H1161     1.0  0.25357  0.38376  0.69686  1.0000
  H   H1162     1.0  0.22541  0.38126  0.71277  1.0000
  H   H1163     1.0  0.20902  0.35887  0.71377  1.0000
  C   C1429     1.0  0.09608  0.47378  0.55393  1.0000
  P   P46       1.0  0.07111  0.46052  0.59103  1.0000
  H   H1164     1.0  0.01645  0.34956  0.67159  1.0000
  C   C1430     1.0  0.11282  0.47520  0.55474  1.0000
  H   H1165     1.0  0.18728  0.31201  0.71231  1.0000
  H   H1166     1.0  0.19359  0.31845  0.68866  1.0000
  H   H1167     1.0  0.16785  0.33320  0.67871  1.0000
  H   H1168     1.0  0.15519  0.36515  0.67717  1.0000
  H   H1169     1.0  0.16883  0.38284  0.68535  1.0000
  H   H1170     1.0  0.19467  0.36866  0.69514  1.0000
  H   H1171     1.0  0.19003  0.27447  0.70341  1.0000
  H   H1172     1.0  0.02213  0.44764  0.49076  1.0000
  C   C1431     1.0  0.09594  0.40828  0.61555  1.0000
  H   H1173     1.0  0.33089  0.32534  0.71151  1.0000
  C   C1432     1.0  0.09585  0.29474  0.66175  1.0000
  H   H1174     1.0  0.12247  0.47897  0.54621  1.0000
  H   H1175     1.0  0.22782  0.44086  0.72278  1.0000
  H   H1176     1.0  0.33194  0.36405  0.73165  1.0000
  C   C1433     1.0  0.10049  0.27648  0.66623  1.0000
  C   C1434     1.0  0.05710  0.33192  0.55776  1.0000
  H   H1177     1.0  0.07023  0.44878  0.61861  1.0000
  C   C1435     1.0  0.09339  0.38842  0.52763  1.0000
  C   C1436     1.0  0.02312  0.31911  0.70635  1.0000
  C   C1437     1.0  0.06343  0.31385  0.55793  1.0000
  C   C1438     1.0  0.01493  0.37834  0.69106  1.0000
  H   H1178     1.0  0.02382  0.27345  0.71121  1.0000
  H   H1179     1.0  0.06449  0.35987  0.67645  1.0000
  C   C1439     1.0  0.02020  0.37899  0.67802  1.0000
  C   C1440     1.0  0.05902  0.24305  0.60708  1.0000
  C   C1441     1.0  0.28591  0.36239  0.72808  1.0000
  C   C1442     1.0  0.01078  0.30990  0.70598  1.0000
  C   C1443     1.0  0.21728  0.32095  0.72498  1.0000
  H   H1180     1.0  0.13998  0.45054  0.50701  1.0000
  H   H1181     1.0  0.11503  0.38927  0.53533  1.0000
  H   H1182     1.0  0.04250  0.37205  0.66287  1.0000
  H   H1183     1.0  0.19771  0.26248  0.60932  1.0000
  C   C1444     1.0  0.15729  0.34815  0.72029  1.0000
  C   C1445     1.0  0.06328  0.47922  0.59861  1.0000
  C   C1446     1.0  0.17157  0.25098  0.64912  1.0000
  H   H1184     1.0  0.09398  0.27052  0.67558  1.0000
  H   H1185     1.0  0.00546  0.47386  0.54344  1.0000
  H   H1186     1.0  0.05290  0.33626  0.56661  1.0000
  C   C1447     1.0  0.04540  0.36483  0.69342  1.0000
  H   H1187     1.0  0.02194  0.41891  0.51604  1.0000
  C   C1448     1.0  0.28233  0.34520  0.71474  1.0000
  C   C1449     1.0  0.14868  0.33515  0.72009  1.0000
  Fe  Fe102     1.0  0.10453  0.29599  0.69930  1.0000
  H   H1188     1.0  0.07448  0.29400  0.54673  1.0000
  C   C1450     1.0  0.18819  0.30482  0.73185  1.0000
  C   C1451     1.0  0.08035  0.24029  0.70943  1.0000
  H   H1189     1.0  0.02319  0.27325  0.65427  1.0000
  C   C1452     1.0  0.36060  0.28848  0.70412  1.0000
  H   H1190     1.0  0.04632  0.42625  0.64168  1.0000
  C   C1453     1.0  0.07838  0.43835  0.61392  1.0000
  H   H1191     1.0  0.09247  0.25902  0.71290  1.0000
  H   H1192     1.0  0.30661  0.41899  0.72803  1.0000
  C   C1454     1.0  0.02297  0.46822  0.58157  1.0000
  C   C1455     1.0  0.01223  0.30380  0.69512  1.0000
  H   H1193     1.0  0.35372  0.26474  0.70334  1.0000
  C   C1456     1.0  0.00451  0.31985  0.60769  1.0000
  H   H1194     1.0  0.02241  0.32321  0.71488  1.0000
  H   H1195     1.0  0.32130  0.27639  0.70871  1.0000
  C   C1457     1.0  0.03602  0.37827  0.53398  1.0000
  C   C1458     1.0  0.01756  0.26358  0.71039  1.0000
  H   H1196     1.0  0.26229  0.31365  0.72816  1.0000
  H   H1197     1.0  0.28479  0.25866  0.71999  1.0000
  P   P47       1.0  0.29965  0.30979  0.71512  1.0000
  H   H1198     1.0  0.09392  0.45624  0.49232  1.0000
  H   H1199     1.0  0.12952  0.24190  0.70785  1.0000
  C   C1459     1.0  0.03439  0.43656  0.58676  1.0000
  H   H1200     1.0  0.03314  0.42322  0.58751  1.0000
  C   C1460     1.0  0.03629  0.41950  0.64167  1.0000
  C   C1461     1.0  0.25900  0.25168  0.72634  1.0000
  S   S203      1.0  0.12343  0.27827  0.71134  1.0000
  C   C1462     1.0  0.28277  0.30100  0.69971  1.0000
  C   C1463     1.0  0.03829  0.47104  0.58383  1.0000
  C   C1464     1.0  0.26026  0.41726  0.72741  1.0000
  H   H1201     1.0  0.10946  0.47347  0.52139  1.0000
  C   C1465     1.0  0.18250  0.28504  0.61721  1.0000
  H   H1202     1.0  0.09867  0.39538  0.51823  1.0000
  C   C1466     1.0  0.03817  0.31679  0.68494  1.0000
  Fe  Fe103     1.0  0.05203  0.47297  0.53364  1.0000
  C   C1467     1.0  0.29250  0.31250  0.70073  1.0000
  C   C1468     1.0  0.21091  0.26198  0.67944  1.0000
  H   H1203     1.0  0.07034  0.38608  0.52251  1.0000
  C   C1469     1.0  0.07432  0.27188  0.70055  1.0000
  C   C1470     1.0  0.27881  0.30211  0.68815  1.0000
  C   C1471     1.0  0.05170  0.45660  0.58772  1.0000
  C   C1472     1.0  0.03648  0.44299  0.48829  1.0000
  H   H1204     1.0  0.14064  0.26943  0.61700  1.0000
  C   C1473     1.0  0.10265  0.38492  0.53724  1.0000
  C   C1474     1.0  0.33559  0.31203  0.70992  1.0000
  C   C1475     1.0  0.08550  0.42219  0.62127  1.0000
  C   C1476     1.0  0.03690  0.32239  0.69587  1.0000
  C   C1477     1.0  0.04668  0.43940  0.49740  1.0000
  H   H1205     1.0  0.01756  0.35436  0.56098  1.0000
  H   H1206     1.0  0.01290  0.47939  0.57826  1.0000
  C   C1478     1.0  0.12369  0.35599  0.61623  1.0000
  C   C1479     1.0  0.13067  0.35910  0.62532  1.0000
  C   C1480     1.0  0.13676  0.34499  0.63464  1.0000
  C   C1481     1.0  0.13539  0.32786  0.63515  1.0000
  C   C1482     1.0  0.12867  0.32455  0.62593  1.0000
  C   C1483     1.0  0.12289  0.33879  0.61642  1.0000
  P   P48       1.0  0.12787  0.30215  0.62630  1.0000
  H   H1207     1.0  0.36327  0.31376  0.70545  1.0000
  C   C1484     1.0  0.11735  0.29206  0.64200  1.0000
  C   C1485     1.0  0.12185  0.27366  0.64657  1.0000
  H   H1208     1.0  0.00757  0.37000  0.51955  1.0000
  C   C1486     1.0  0.01243  0.37581  0.58424  1.0000
  C   C1487     1.0  0.10421  0.30253  0.64968  1.0000
  C   C1488     1.0  0.02031  0.36265  0.56601  1.0000
  S   S204      1.0  0.07697  0.29332  0.69940  1.0000
  C   C1489     1.0  0.29423  0.33047  0.72010  1.0000
  H   H1209     1.0  0.00544  0.40177  0.50995  1.0000
  P   P49       1.0  0.00423  0.38852  0.66793  1.0000
  C   C1490     1.0  0.11521  0.30268  0.61508  1.0000
  C   C1491     1.0  0.12320  0.30554  0.60214  1.0000
  C   C1492     1.0  0.11344  0.30677  0.59324  1.0000
  C   C1493     1.0  0.09565  0.30511  0.59717  1.0000
  C   C1494     1.0  0.08765  0.30213  0.61001  1.0000
  C   C1495     1.0  0.09733  0.30096  0.61898  1.0000
  H   H1210     1.0  0.11866  0.36691  0.60910  1.0000
  H   H1211     1.0  0.13115  0.37244  0.62528  1.0000
  H   H1212     1.0  0.14218  0.34740  0.64169  1.0000
  H   H1213     1.0  0.13959  0.31721  0.64274  1.0000
  H   H1214     1.0  0.11726  0.33689  0.60930  1.0000
  C   C1496     1.0  0.17420  0.27187  0.72230  1.0000
  H   H1215     1.0  0.27288  0.43952  0.72158  1.0000
  H   H1216     1.0  0.10026  0.31670  0.64636  1.0000
  H   H1217     1.0  0.06381  0.30442  0.56685  1.0000
  C   C1497     1.0  0.38048  0.31997  0.73030  1.0000
  H   H1218     1.0  0.02529  0.28189  0.62485  1.0000
  C   C1498     1.0  0.33027  0.28462  0.70828  1.0000
  H   H1219     1.0  0.16432  0.30654  0.62474  1.0000
  H   H1220     1.0  0.13680  0.30743  0.59891  1.0000
  H   H1221     1.0  0.11944  0.30968  0.58326  1.0000
  H   H1222     1.0  0.08790  0.30670  0.59025  1.0000
  H   H1223     1.0  0.07379  0.30121  0.61294  1.0000
  H   H1224     1.0  0.09069  0.29910  0.62887  1.0000
  H   H1225     1.0  0.27865  0.29084  0.70770  1.0000
  C   C1499     1.0  0.02659  0.38451  0.57903  1.0000
  C   C1500     1.0  0.34871  0.27806  0.70500  1.0000
  C   C1501     1.0  0.32356  0.30138  0.71127  1.0000
  P   P50       1.0  0.04913  0.36762  0.54587  1.0000
  C   C1502     1.0  0.03474  0.37115  0.56081  1.0000
  C   C1503     1.0  0.05655  0.34424  0.54625  1.0000
  C   C1504     1.0  0.03750  0.38249  0.56725  1.0000
  C   C1505     1.0  0.11624  0.45207  0.50078  1.0000
  H   H1226     1.0  0.27182  0.29283  0.68735  1.0000
  C   C1506     1.0  0.08176  0.44069  0.60074  1.0000
  H   H1227     1.0  0.39408  0.31482  0.72572  1.0000
  C   C1507     1.0  0.06980  0.37490  0.54246  1.0000
  C   C1508     1.0  0.07958  0.37079  0.55193  1.0000
  C   C1509     1.0  0.09587  0.37587  0.54932  1.0000
  S   S205      1.0  0.07803  0.42791  0.50582  1.0000
  H   H1228     1.0  0.02645  0.35500  0.53514  1.0000
  H   H1229     1.0  0.28246  0.37475  0.73116  1.0000
  H   H1230     1.0  0.13176  0.26520  0.64088  1.0000
  H   H1231     1.0  0.10097  0.39562  0.62132  1.0000
  H   H1232     1.0  0.06335  0.34769  0.52591  1.0000
  C   C1510     1.0  0.02081  0.40941  0.63023  1.0000
  H   H1233     1.0  0.04791  0.38993  0.56320  1.0000
  C   C1511     1.0  0.11709  0.47161  0.56654  1.0000
  H   H1234     1.0  0.02327  0.27363  0.67600  1.0000
  C   C1512     1.0  0.16179  0.34866  0.73136  1.0000
  H   H1235     1.0  0.10317  0.37294  0.55671  1.0000
  H   H1236     1.0  0.07460  0.36375  0.56137  1.0000
  C   C1513     1.0  0.00444  0.26805  0.70320  1.0000
  H   H1237     1.0  0.37097  0.38759  0.73341  1.0000
  C   C1514     1.0  0.10454  0.46681  0.57754  1.0000
  C   C1515     1.0  0.10644  0.45985  0.49135  1.0000
  S   S206      1.0  0.16084  0.25280  0.68953  1.0000
  C   C1516     1.0  0.06936  0.32022  0.53510  1.0000
  H   H1238     1.0  0.03056  0.41056  0.66178  1.0000
  C   C1517     1.0  0.01511  0.40076  0.65313  1.0000
  C   C1518     1.0  0.06305  0.33830  0.53490  1.0000
  H   H1239     1.0  0.04068  0.40438  0.53173  1.0000
  C   C1519     1.0  0.08355  0.46897  0.56492  1.0000
  C   C1520     1.0  0.06516  0.43312  0.49436  1.0000
  C   C1521     1.0  0.27860  0.24906  0.70604  1.0000
  H   H1240     1.0  0.04706  0.32864  0.69634  1.0000
  C   C1522     1.0  0.13243  0.45657  0.49967  1.0000
  H   H1241     1.0  0.02346  0.37102  0.70874  1.0000
  H   H1242     1.0  0.10796  0.46416  0.58664  1.0000
  H   H1243     1.0  0.04280  0.46773  0.61289  1.0000
  C   C1523     1.0  0.29820  0.32507  0.69003  1.0000
  C   C1524     1.0  0.02616  0.36878  0.53072  1.0000
  C   C1525     1.0  0.09954  0.41058  0.60244  1.0000
  H   H1244     1.0  0.04064  0.42515  0.62138  1.0000
  H   H1245     1.0  0.02902  0.39300  0.58406  1.0000
  H   H1246     1.0  0.05522  0.35947  0.69929  1.0000
  C   C1526     1.0  0.08757  0.46572  0.57678  1.0000
  C   C1527     1.0  0.04968  0.43932  0.58909  1.0000
  Fe  Fe104     1.0  0.13039  0.30309  0.71233  1.0000
  C   C1528     1.0  0.01544  0.37719  0.52189  1.0000
  C   C1529     1.0  0.19222  0.26463  0.68174  1.0000
  C   C1530     1.0  0.06033  0.25247  0.69498  1.0000
  H   H1247     1.0  0.00117  0.39867  0.55916  1.0000
  H   H1248     1.0  0.00947  0.44881  0.58084  1.0000
  H   H1249     1.0  0.27584  0.34438  0.70773  1.0000
  C   C1531     1.0  0.29396  0.32634  0.67852  1.0000
  C   C1532     1.0  0.01149  0.28062  0.67218  1.0000
  H   H1250     1.0  0.31116  0.27417  0.73091  1.0000
  C   C1533     1.0  0.15225  0.27387  0.61716  1.0000
  C   C1534     1.0  0.16934  0.26423  0.61282  1.0000
  H   H1251     1.0  0.02522  0.31379  0.61809  1.0000
  H   H1252     1.0  0.03980  0.48448  0.58233  1.0000
  C   C1535     1.0  0.04891  0.47910  0.60913  1.0000
  C   C1536     1.0  0.05929  0.25545  0.64534  1.0000
  H   H1253     1.0  0.07032  0.24885  0.60170  1.0000
  H   H1254     1.0  0.04014  0.26784  0.60508  1.0000
  H   H1255     1.0  0.16181  0.27900  0.71937  1.0000
  C   C1537     1.0  0.28794  0.29521  0.72788  1.0000
  C   C1538     1.0  0.10764  0.48735  0.51679  1.0000
  H   H1256     1.0  0.00739  0.34182  0.63226  1.0000
  C   C1539     1.0  0.18417  0.25008  0.68568  1.0000
  H   H1257     1.0  0.13011  0.47260  0.56717  1.0000
  H   H1258     1.0  0.39865  0.39657  0.73221  1.0000
  C   C1540     1.0  0.31553  0.40742  0.73228  1.0000
  S   S207      1.0  0.00333  0.37857  0.61929  1.0000
  H   H1259     1.0  0.00417  0.33394  0.60507  1.0000
  H   H1260     1.0  0.20382  0.42397  0.73041  1.0000
  H   H1261     1.0  0.00267  0.39294  0.64122  1.0000
  C   C1541     1.0  0.26653  0.24169  0.70333  1.0000
  C   C1542     1.0  0.00699  0.24663  0.64556  1.0000
  H   H1262     1.0  0.06393  0.24570  0.66423  1.0000
  C   C1543     1.0  0.20632  0.25344  0.72997  1.0000
  C   C1544     1.0  0.21755  0.44322  0.73106  1.0000
  H   H1263     1.0  0.03398  0.24247  0.72142  1.0000
  H   H1264     1.0  0.19161  0.24213  0.63366  1.0000
  C   C1545     1.0  0.26940  0.30063  0.73213  1.0000
  S   S208      1.0  0.24482  0.24159  0.67893  1.0000
  H   H1265     1.0  0.21453  0.24086  0.65749  1.0000
  H   H1266     1.0  0.11680  0.25176  0.66214  1.0000
  C   C1546     1.0  0.02730  0.24648  0.61664  1.0000
  H   H1267     1.0  0.17083  0.25243  0.60943  1.0000
  C   C1547     1.0  0.15903  0.24610  0.66005  1.0000
  C   C1548     1.0  0.14390  0.32283  0.73115  1.0000
  H   H1268     1.0  0.02096  0.24084  0.64247  1.0000
  H   H1269     1.0  0.00050  0.30702  0.71431  1.0000
  H   H1270     1.0  0.00121  0.38340  0.69536  1.0000
  H   H1271     1.0  0.13223  0.49022  0.51968  1.0000
  C   C1549     1.0  0.29687  0.27854  0.73357  1.0000
  S   S209      1.0  0.24219  0.39088  0.73369  1.0000
  C   C1550     1.0  0.29730  0.34763  0.73377  1.0000
  C   C1551     1.0  0.04308  0.39598  0.48384  1.0000
  Fe  Fe105     1.0  0.08160  0.45577  0.90974  1.0000
  S   S210      1.0  0.05772  0.47327  0.90262  1.0000
  S   S211      1.0  0.10725  0.44663  0.89627  1.0000
  Fe  Fe106     1.0  0.06316  0.45552  0.93685  1.0000
  S   S212      1.0  0.03767  0.47334  0.93200  1.0000
  S   S213      1.0  0.06381  0.44610  0.95755  1.0000
  Fe  Fe107     1.0  0.04119  0.45679  0.91808  1.0000
  H   H1272     1.0  0.32483  0.25178  0.84240  1.0000
  Fe  Fe108     1.0  0.05553  0.48867  0.91681  1.0000
  S   S214      1.0  0.06536  0.43735  0.92411  1.0000
  S   S215      1.0  0.08088  0.47259  0.92288  1.0000
  H   H1273     1.0  0.25130  0.41478  0.82758  1.0000
  C   C1552     1.0  0.26966  0.33946  0.80037  1.0000
  C   C1553     1.0  0.33794  0.40647  0.83057  1.0000
  C   C1554     1.0  0.46508  0.31033  0.78478  1.0000
  C   C1555     1.0  0.30495  0.30529  0.82597  1.0000
  C   C1556     1.0  0.24574  0.41048  0.74944  1.0000
  S   S216      1.0  0.17656  0.38272  0.78780  1.0000
  Fe  Fe109     1.0  0.42434  0.33120  0.80662  1.0000
  S   S217      1.0  0.39764  0.33513  0.81991  1.0000
  S   S218      1.0  0.44829  0.33229  0.81331  1.0000
  C   C1557     1.0  0.25993  0.28934  0.74169  1.0000
  S   S219      1.0  0.38141  0.32428  0.79977  1.0000
  Fe  Fe110     1.0  0.38641  0.34874  0.80276  1.0000
  S   S220      1.0  0.36291  0.37122  0.80588  1.0000
  Fe  Fe111     1.0  0.39439  0.31045  0.81624  1.0000
  S   S221      1.0  0.37950  0.29383  0.83309  1.0000
  C   C1558     1.0  0.25659  0.31355  0.80876  1.0000
  S   S222      1.0  0.42203  0.30512  0.80439  1.0000
  S   S223      1.0  0.30530  0.45808  0.78169  1.0000
  C   C1559     1.0  0.01897  0.44182  0.96429  1.0000
  S   S224      1.0  0.29084  0.43193  0.77067  1.0000
  Fe  Fe112     1.0  0.28055  0.44752  0.78586  1.0000
  S   S225      1.0  0.27099  0.43376  0.80581  1.0000
  Fe  Fe113     1.0  0.31413  0.44489  0.76524  1.0000
  H   H1274     1.0  0.14532  0.39589  0.95400  1.0000
  H   H1275     1.0  0.08400  0.26369  0.73798  1.0000
  Fe  Fe114     1.0  0.16890  0.46620  0.82196  1.0000
  H   H1276     1.0  0.43745  0.29294  0.75079  1.0000
  S   S226      1.0  0.18890  0.44555  0.83192  1.0000
  C   C1560     1.0  0.01922  0.44020  0.85873  1.0000
  H   H1277     1.0  0.04991  0.43457  0.82617  1.0000
  H   H1278     1.0  0.24574  0.29378  0.74520  1.0000
  Fe  Fe115     1.0  0.14825  0.47410  0.80158  1.0000
  S   S227      1.0  0.14477  0.46448  0.78558  1.0000
  S   S228      1.0  0.14381  0.45887  0.82162  1.0000
  C   C1561     1.0  0.28562  0.31144  0.79451  1.0000
  C   C1562     1.0  0.24814  0.43827  0.81288  1.0000
  C   C1563     1.0  0.23607  0.45326  0.80801  1.0000
  C   C1564     1.0  0.21775  0.45587  0.81385  1.0000
  C   C1565     1.0  0.21162  0.44349  0.82451  1.0000
  C   C1566     1.0  0.22383  0.42888  0.82952  1.0000
  C   C1567     1.0  0.24200  0.42629  0.82374  1.0000
  H   H1279     1.0  0.24076  0.46270  0.79971  1.0000
  H   H1280     1.0  0.20843  0.46732  0.81003  1.0000
  C   C1568     1.0  0.35724  0.38635  0.79240  1.0000
  C   C1569     1.0  0.34029  0.39755  0.79357  1.0000
  C   C1570     1.0  0.33545  0.41051  0.78325  1.0000
  H   H1281     1.0  0.24920  0.42607  0.76102  1.0000
  H   H1282     1.0  0.49702  0.42037  0.88250  1.0000
  C   C1571     1.0  0.36446  0.47634  0.80185  1.0000
  H   H1283     1.0  0.37125  0.47699  0.79205  1.0000
  H   H1284     1.0  0.21918  0.41940  0.83782  1.0000
  C   C1572     1.0  0.46263  0.27712  0.86666  1.0000
  S   S229      1.0  0.21975  0.36351  0.76715  1.0000
  C   C1573     1.0  0.16815  0.40555  0.78678  1.0000
  C   C1574     1.0  0.16151  0.41643  0.77634  1.0000
  C   C1575     1.0  0.15400  0.43447  0.77612  1.0000
  C   C1576     1.0  0.15350  0.44173  0.78621  1.0000
  C   C1577     1.0  0.16012  0.43080  0.79665  1.0000
  C   C1578     1.0  0.16731  0.41275  0.79696  1.0000
  H   H1285     1.0  0.16181  0.41086  0.76856  1.0000
  H   H1286     1.0  0.14878  0.44286  0.76806  1.0000
  H   H1287     1.0  0.15973  0.43621  0.80449  1.0000
  H   H1288     1.0  0.17212  0.40431  0.80516  1.0000
  H   H1289     1.0  0.30613  0.32125  0.83816  1.0000
  H   H1290     1.0  0.02522  0.44182  0.97169  1.0000
  C   C1579     1.0  0.25061  0.30899  0.76727  1.0000
  C   C1580     1.0  0.46718  0.34942  0.79084  1.0000
  C   C1581     1.0  0.22710  0.25604  0.77158  1.0000
  H   H1291     1.0  0.02914  0.47176  0.96110  1.0000
  H   H1292     1.0  0.10091  0.27815  0.74622  1.0000
  C   C1582     1.0  0.37708  0.26233  0.84924  1.0000
  C   C1583     1.0  0.38755  0.27113  0.83858  1.0000
  C   C1584     1.0  0.40391  0.26178  0.83275  1.0000
  H   H1293     1.0  0.33234  0.33595  0.74865  1.0000
  Fe  Fe116     1.0  0.18997  0.37353  0.76960  1.0000
  H   H1294     1.0  0.36456  0.26955  0.85392  1.0000
  H   H1295     1.0  0.41245  0.26879  0.82503  1.0000
  C   C1585     1.0  0.04127  0.43622  0.83523  1.0000
  H   H1296     1.0  0.34248  0.39543  0.75323  1.0000
  H   H1297     1.0  0.47779  0.30516  0.80027  1.0000
  C   C1586     1.0  0.21047  0.39337  0.81182  1.0000
  C   C1587     1.0  0.45413  0.24485  0.83674  1.0000
  H   H1298     1.0  0.30713  0.28735  0.81450  1.0000
  H   H1299     1.0  0.28339  0.33207  0.75948  1.0000
  H   H1300     1.0  0.14379  0.31445  0.75105  1.0000
  H   H1301     1.0  0.25088  0.33673  0.76120  1.0000
  H   H1302     1.0  0.38241  0.37901  0.77977  1.0000
  H   H1303     1.0  0.23141  0.48663  0.76531  1.0000
  C   C1588     1.0  0.07776  0.45372  0.96364  1.0000
  C   C1589     1.0  0.30441  0.24705  0.79777  1.0000
  H   H1304     1.0  0.42116  0.27026  0.80470  1.0000
  H   H1305     1.0  0.26158  0.26389  0.75456  1.0000
  C   C1590     1.0  0.10651  0.45977  0.96268  1.0000
  C   C1591     1.0  0.09492  0.45582  0.95685  1.0000
  H   H1306     1.0  0.24884  0.37325  0.82225  1.0000
  H   H1307     1.0  0.11990  0.46098  0.95755  1.0000
  H   H1308     1.0  0.09946  0.45378  0.94730  1.0000
  C   C1592     1.0  0.10845  0.46017  0.88102  1.0000
  C   C1593     1.0  0.09643  0.47645  0.87896  1.0000
  C   C1594     1.0  0.09770  0.25748  0.73878  1.0000
  C   C1595     1.0  0.10709  0.47954  0.85634  1.0000
  C   C1596     1.0  0.12015  0.46397  0.85835  1.0000
  C   C1597     1.0  0.12070  0.45416  0.87070  1.0000
  C   C1598     1.0  0.49850  0.27910  0.81859  1.0000
  C   C1599     1.0  0.29046  0.46566  0.81316  1.0000
  H   H1309     1.0  0.12946  0.45926  0.85039  1.0000
  H   H1310     1.0  0.13022  0.44169  0.87223  1.0000
  C   C1600     1.0  0.26876  0.36460  0.77308  1.0000
  C   C1601     1.0  0.17063  0.45964  0.86246  1.0000
  C   C1602     1.0  0.15849  0.46144  0.87385  1.0000
  C   C1603     1.0  0.36828  0.25428  0.79494  1.0000
  H   H1311     1.0  0.27078  0.39486  0.80459  1.0000
  C   C1604     1.0  0.23294  0.38019  0.79571  1.0000
  C   C1605     1.0  0.46572  0.26114  0.86284  1.0000
  H   H1312     1.0  0.17682  0.44664  0.86045  1.0000
  H   H1313     1.0  0.15515  0.44981  0.88073  1.0000
  C   C1606     1.0  0.08349  0.46051  0.98171  1.0000
  H   H1314     1.0  0.29168  0.31238  0.82460  1.0000
  H   H1315     1.0  0.48316  0.29503  0.75779  1.0000
  C   C1607     1.0  0.09283  0.39483  0.87220  1.0000
  C   C1608     1.0  0.07443  0.40056  0.87280  1.0000
  C   C1609     1.0  0.06807  0.40899  0.86179  1.0000
  C   C1610     1.0  0.08011  0.41175  0.85018  1.0000
  C   C1611     1.0  0.09862  0.40622  0.84950  1.0000
  C   C1612     1.0  0.10491  0.39754  0.86059  1.0000
  P   P51       1.0  0.11400  0.41023  0.83442  1.0000
  C   C1613     1.0  0.11465  0.39495  0.82503  1.0000
  C   C1614     1.0  0.10670  0.43295  0.82645  1.0000
  C   C1615     1.0  0.11034  0.43810  0.81320  1.0000
  C   C1616     1.0  0.10482  0.45575  0.80725  1.0000
  C   C1617     1.0  0.09561  0.46843  0.81441  1.0000
  C   C1618     1.0  0.09186  0.46346  0.82756  1.0000
  C   C1619     1.0  0.09760  0.44589  0.83355  1.0000
  C   C1620     1.0  0.12776  0.39376  0.81388  1.0000
  C   C1621     1.0  0.12836  0.38207  0.80655  1.0000
  C   C1622     1.0  0.00917  0.42511  0.91630  1.0000
  C   C1623     1.0  0.31103  0.26240  0.79227  1.0000
  C   C1624     1.0  0.10219  0.38406  0.82875  1.0000
  C   C1625     1.0  0.13584  0.40834  0.83722  1.0000
  C   C1626     1.0  0.15010  0.39409  0.83459  1.0000
  C   C1627     1.0  0.16697  0.39318  0.83656  1.0000
  C   C1628     1.0  0.16966  0.40630  0.84136  1.0000
  C   C1629     1.0  0.15537  0.42008  0.84448  1.0000
  C   C1630     1.0  0.13852  0.42105  0.84249  1.0000
  H   H1316     1.0  0.09775  0.38839  0.88076  1.0000
  H   H1317     1.0  0.06509  0.39862  0.88183  1.0000
  H   H1318     1.0  0.05380  0.41348  0.86230  1.0000
  H   H1319     1.0  0.07504  0.41828  0.84170  1.0000
  H   H1320     1.0  0.11911  0.39297  0.86034  1.0000
  H   H1321     1.0  0.11774  0.42879  0.80733  1.0000
  H   H1322     1.0  0.10814  0.45967  0.79703  1.0000
  H   H1323     1.0  0.43128  0.25892  0.88583  1.0000
  H   H1324     1.0  0.08498  0.47338  0.83310  1.0000
  H   H1325     1.0  0.09530  0.44251  0.84374  1.0000
  H   H1326     1.0  0.13767  0.40178  0.81088  1.0000
  C   C1631     1.0  0.49622  0.34651  0.80142  1.0000
  H   H1327     1.0  0.16199  0.26821  0.74204  1.0000
  H   H1328     1.0  0.02760  0.41584  0.83658  1.0000
  H   H1329     1.0  0.09202  0.38444  0.83734  1.0000
  H   H1330     1.0  0.14836  0.38366  0.83100  1.0000
  C   C1632     1.0  0.10605  0.24165  0.73477  1.0000
  H   H1331     1.0  0.18280  0.40592  0.84261  1.0000
  H   H1332     1.0  0.15747  0.43029  0.84817  1.0000
  H   H1333     1.0  0.12768  0.43192  0.84490  1.0000
  C   C1633     1.0  0.30753  0.35630  0.81715  1.0000
  C   C1634     1.0  0.30568  0.37332  0.81877  1.0000
  C   C1635     1.0  0.29231  0.38706  0.81433  1.0000
  H   H1334     1.0  0.31816  0.34580  0.82044  1.0000
  H   H1335     1.0  0.31486  0.37588  0.82327  1.0000
  H   H1336     1.0  0.29084  0.40026  0.81559  1.0000
  H   H1337     1.0  0.29424  0.25410  0.74701  1.0000
  Fe  Fe117     1.0  0.33867  0.24613  0.74319  1.0000
  H   H1338     1.0  0.30766  0.27073  0.78356  1.0000
  H   H1339     1.0  0.29827  0.33987  0.80942  1.0000
  C   C1636     1.0  0.25563  0.33144  0.80797  1.0000
  H   H1340     1.0  0.24034  0.45584  0.76493  1.0000
  C   C1637     1.0  0.41940  0.40625  0.80135  1.0000
  S   S230      1.0  0.34161  0.42898  0.75891  1.0000
  P   P52       1.0  0.36282  0.44186  0.80253  1.0000
  C   C1638     1.0  0.34649  0.47560  0.82696  1.0000
  C   C1639     1.0  0.13674  0.39664  0.96321  1.0000
  H   H1341     1.0  0.37334  0.29080  0.76073  1.0000
  C   C1640     1.0  0.33614  0.35492  0.78835  1.0000
  C   C1641     1.0  0.34002  0.36165  0.77534  1.0000
  H   H1342     1.0  0.47114  0.25957  0.74833  1.0000
  C   C1642     1.0  0.45696  0.26623  0.81680  1.0000
  C   C1643     1.0  0.27262  0.37157  0.76012  1.0000
  H   H1343     1.0  0.26082  0.35458  0.77662  1.0000
  H   H1344     1.0  0.37386  0.40215  0.76133  1.0000
  H   H1345     1.0  0.09319  0.36397  0.82431  1.0000
  H   H1346     1.0  0.44842  0.28646  0.84119  1.0000
  H   H1347     1.0  0.32788  0.27851  0.79318  1.0000
  H   H1348     1.0  0.21657  0.45846  0.84589  1.0000
  C   C1644     1.0  0.22979  0.45191  0.77267  1.0000
  H   H1349     1.0  0.18178  0.45006  0.76145  1.0000
  H   H1350     1.0  0.35275  0.47051  0.75220  1.0000
  H   H1351     1.0  0.28479  0.39077  0.74537  1.0000
  C   C1645     1.0  0.32251  0.26678  0.79776  1.0000
  S   S231      1.0  0.32072  0.24788  0.76232  1.0000
  Fe  Fe118     1.0  0.36695  0.26117  0.74866  1.0000
  H   H1352     1.0  0.45329  0.31899  0.78902  1.0000
  C   C1646     1.0  0.34605  0.35017  0.76693  1.0000
  C   C1647     1.0  0.19845  0.45271  0.78188  1.0000
  C   C1648     1.0  0.33044  0.43104  0.80873  1.0000
  C   C1649     1.0  0.45094  0.25834  0.84327  1.0000
  C   C1650     1.0  0.34686  0.42863  0.81197  1.0000
  C   C1651     1.0  0.47905  0.30243  0.79115  1.0000
  H   H1353     1.0  0.24827  0.43428  0.78385  1.0000
  C   C1652     1.0  0.31771  0.42153  0.81652  1.0000
  H   H1354     1.0  0.45941  0.26931  0.80659  1.0000
  Fe  Fe119     1.0  0.27794  0.45633  0.75849  1.0000
  C   C1653     1.0  0.12350  0.41186  0.96482  1.0000
  H   H1355     1.0  0.45364  0.29324  0.81807  1.0000
  P   P53       1.0  0.44773  0.25388  0.86026  1.0000
  C   C1654     1.0  0.40659  0.37527  0.74734  1.0000
  C   C1655     1.0  0.20513  0.45820  0.74854  1.0000
  C   C1656     1.0  0.15669  0.33656  0.74251  1.0000
  C   C1657     1.0  0.48364  0.25387  0.75146  1.0000
  C   C1658     1.0  0.42616  0.26605  0.86700  1.0000
  C   C1659     1.0  0.42174  0.26603  0.87994  1.0000
  C   C1660     1.0  0.40491  0.27509  0.88535  1.0000
  C   C1661     1.0  0.39236  0.28410  0.87790  1.0000
  C   C1662     1.0  0.39659  0.28398  0.86506  1.0000
  C   C1663     1.0  0.41337  0.27492  0.85963  1.0000
  H   H1356     1.0  0.34717  0.44839  0.82832  1.0000
  S   S232      1.0  0.21822  0.35338  0.74130  1.0000
  H   H1357     1.0  0.39566  0.28735  0.79475  1.0000
  H   H1358     1.0  0.45896  0.26728  0.76994  1.0000
  C   C1664     1.0  0.33837  0.37741  0.74365  1.0000
  H   H1359     1.0  0.15984  0.33697  0.75115  1.0000
  H   H1360     1.0  0.40155  0.27502  0.89534  1.0000
  H   H1361     1.0  0.37929  0.29106  0.88208  1.0000
  H   H1362     1.0  0.38682  0.29078  0.85926  1.0000
  H   H1363     1.0  0.41611  0.27475  0.84972  1.0000
  H   H1364     1.0  0.32234  0.41916  0.78431  1.0000
  H   H1365     1.0  0.34102  0.39668  0.83889  1.0000
  C   C1665     1.0  0.46659  0.34134  0.80359  1.0000
  H   H1366     1.0  0.26737  0.36717  0.75387  1.0000
  C   C1666     1.0  0.49751  0.25686  0.86180  1.0000
  C   C1667     1.0  0.29583  0.48287  0.82573  1.0000
  H   H1367     1.0  0.33348  0.48483  0.76956  1.0000
  C   C1668     1.0  0.27387  0.47706  0.81233  1.0000
  C   C1669     1.0  0.40931  0.24340  0.83722  1.0000
  C   C1670     1.0  0.45706  0.24882  0.82354  1.0000
  P   P54       1.0  0.03355  0.46705  0.86056  1.0000
  C   C1671     1.0  0.00335  0.44163  0.94499  1.0000
  C   C1672     1.0  0.04841  0.45427  0.87095  1.0000
  C   C1673     1.0  0.06700  0.45212  0.86660  1.0000
  C   C1674     1.0  0.07851  0.44191  0.87456  1.0000
  C   C1675     1.0  0.07159  0.43396  0.88696  1.0000
  C   C1676     1.0  0.05313  0.43560  0.89123  1.0000
  C   C1677     1.0  0.04158  0.44547  0.88319  1.0000
  H   H1368     1.0  0.37600  0.44339  0.75674  1.0000
  C   C1678     1.0  0.14755  0.32385  0.74243  1.0000
  H   H1369     1.0  0.38955  0.24634  0.77974  1.0000
  H   H1370     1.0  0.13861  0.38127  0.79797  1.0000
  C   C1679     1.0  0.19109  0.43628  0.74629  1.0000
  C   C1680     1.0  0.28729  0.26715  0.74294  1.0000
  Fe  Fe120     1.0  0.12981  0.48506  0.82651  1.0000
  C   C1681     1.0  0.01213  0.47696  0.86914  1.0000
  S   S233      1.0  0.26614  0.45438  0.74291  1.0000
  S   S234      1.0  0.01666  0.45846  0.91120  1.0000
  H   H1371     1.0  0.36085  0.24493  0.79485  1.0000
  H   H1372     1.0  0.25672  0.25504  0.73533  1.0000
  C   C1682     1.0  0.13328  0.24181  0.74037  1.0000
  S   S235      1.0  0.17435  0.47976  0.80157  1.0000
  C   C1683     1.0  0.49432  0.27262  0.86580  1.0000
  C   C1684     1.0  0.38275  0.24425  0.85398  1.0000
  H   H1373     1.0  0.07263  0.45848  0.85714  1.0000
  H   H1374     1.0  0.00026  0.48074  0.93232  1.0000
  H   H1375     1.0  0.08056  0.42664  0.89325  1.0000
  H   H1376     1.0  0.04769  0.42950  0.90085  1.0000
  H   H1377     1.0  0.02731  0.44647  0.88666  1.0000
  C   C1685     1.0  0.48330  0.25120  0.86023  1.0000
  H   H1378     1.0  0.34599  0.31098  0.78859  1.0000
  H   H1379     1.0  0.14026  0.47920  0.88490  1.0000
  C   C1686     1.0  0.20402  0.43368  0.73537  1.0000
  H   H1380     1.0  0.05295  0.45650  0.83658  1.0000
  P   P55       1.0  0.35431  0.35860  0.75030  1.0000
  C   C1687     1.0  0.28246  0.38478  0.75533  1.0000
  C   C1688     1.0  0.01997  0.43053  0.94624  1.0000
  C   C1689     1.0  0.34386  0.47312  0.77155  1.0000
  P   P56       1.0  0.22653  0.24056  0.73525  1.0000
  H   H1381     1.0  0.17214  0.48206  0.74865  1.0000
  S   S236      1.0  0.41344  0.34723  0.78958  1.0000
  H   H1382     1.0  0.40750  0.38577  0.80033  1.0000
  C   C1690     1.0  0.28838  0.39106  0.76348  1.0000
  P   P57       1.0  0.26798  0.36290  0.79818  1.0000
  H   H1383     1.0  0.30508  0.42344  0.81392  1.0000
  C   C1691     1.0  0.35059  0.41615  0.82291  1.0000
  H   H1384     1.0  0.20632  0.39423  0.79354  1.0000
  H   H1385     1.0  0.36327  0.41390  0.82554  1.0000
  H   H1386     1.0  0.38019  0.43045  0.77843  1.0000
  C   C1692     1.0  0.38497  0.42800  0.80230  1.0000
  S   S237      1.0  0.30196  0.46865  0.75212  1.0000
  C   C1693     1.0  0.36931  0.38775  0.78073  1.0000
  C   C1694     1.0  0.41144  0.30140  0.76208  1.0000
  C   C1695     1.0  0.28281  0.36683  0.80627  1.0000
  H   H1387     1.0  0.29702  0.30387  0.78901  1.0000
  H   H1388     1.0  0.33582  0.33143  0.80322  1.0000
  Fe  Fe121     1.0  0.40934  0.32126  0.78806  1.0000
  H   H1389     1.0  0.44932  0.28540  0.86826  1.0000
  S   S238      1.0  0.35128  0.26370  0.76791  1.0000
  H   H1390     1.0  0.24374  0.33907  0.81301  1.0000
  C   C1696     1.0  0.43105  0.24431  0.80086  1.0000
  S   S239      1.0  0.42009  0.31334  0.76917  1.0000
  C   C1697     1.0  0.22096  0.43359  0.79321  1.0000
  C   C1698     1.0  0.27452  0.37098  0.78138  1.0000
  C   C1699     1.0  0.10281  0.37235  0.82139  1.0000
  C   C1700     1.0  0.00381  0.44343  0.91209  1.0000
  C   C1701     1.0  0.28093  0.38390  0.80810  1.0000
  C   C1702     1.0  0.38806  0.27797  0.79494  1.0000
  C   C1703     1.0  0.39461  0.26664  0.78650  1.0000
  H   H1391     1.0  0.24551  0.30752  0.81436  1.0000
  H   H1392     1.0  0.08785  0.48176  0.88685  1.0000
  C   C1704     1.0  0.36177  0.26526  0.80368  1.0000
  C   C1705     1.0  0.37182  0.27715  0.80365  1.0000
  P   P58       1.0  0.34210  0.26189  0.81584  1.0000
  C   C1706     1.0  0.19601  0.30609  0.74113  1.0000
  H   H1393     1.0  0.12179  0.42290  0.95687  1.0000
  H   H1394     1.0  0.02689  0.42208  0.93962  1.0000
  C   C1707     1.0  0.27154  0.30358  0.80198  1.0000
  C   C1708     1.0  0.36449  0.40082  0.77033  1.0000
  C   C1709     1.0  0.28471  0.32930  0.79367  1.0000
  H   H1395     1.0  0.25470  0.28063  0.77309  1.0000
  C   C1710     1.0  0.37473  0.36524  0.74911  1.0000
  H   H1396     1.0  0.47449  0.29518  0.87103  1.0000
  H   H1397     1.0  0.48065  0.33393  0.81870  1.0000
  H   H1398     1.0  0.22730  0.25988  0.78003  1.0000
  H   H1399     1.0  0.09282  0.44034  0.87119  1.0000
  C   C1711     1.0  0.33091  0.28144  0.82216  1.0000
  C   C1712     1.0  0.31385  0.29101  0.82020  1.0000
  C   C1713     1.0  0.31304  0.31024  0.83364  1.0000
  C   C1714     1.0  0.33000  0.30084  0.83558  1.0000
  C   C1715     1.0  0.33875  0.28636  0.83002  1.0000
  C   C1716     1.0  0.48232  0.35598  0.78341  1.0000
  H   H1400     1.0  0.39725  0.44848  0.80304  1.0000
  H   H1401     1.0  0.04069  0.42207  0.95688  1.0000
  H   H1402     1.0  0.36740  0.28566  0.81033  1.0000
  H   H1403     1.0  0.48274  0.36222  0.77356  1.0000
  C   C1717     1.0  0.44057  0.27050  0.78724  1.0000
  C   C1718     1.0  0.21565  0.38963  0.79980  1.0000
  H   H1404     1.0  0.23655  0.37770  0.78630  1.0000
  C   C1719     1.0  0.40219  0.36038  0.75628  1.0000
  C   C1720     1.0  0.26887  0.27258  0.74706  1.0000
  P   P59       1.0  0.20598  0.47322  0.75757  1.0000
  H   H1405     1.0  0.35357  0.32237  0.76586  1.0000
  H   H1406     1.0  0.33644  0.30461  0.84147  1.0000
  H   H1407     1.0  0.35161  0.27883  0.83198  1.0000
  C   C1721     1.0  0.21967  0.47105  0.84519  1.0000
  S   S240      1.0  0.34365  0.27351  0.73942  1.0000
  H   H1408     1.0  0.21874  0.27436  0.74226  1.0000
  C   C1722     1.0  0.24975  0.40723  0.73727  1.0000
  C   C1723     1.0  0.02305  0.48126  0.96702  1.0000
  C   C1724     1.0  0.30151  0.46861  0.81976  1.0000
  C   C1725     1.0  0.22250  0.38741  0.81986  1.0000
  C   C1726     1.0  0.10078  0.46204  0.97518  1.0000
  H   H1409     1.0  0.28890  0.38963  0.78255  1.0000
  C   C1727     1.0  0.27962  0.28914  0.76825  1.0000
  H   H1410     1.0  0.19724  0.40116  0.81481  1.0000
  C   C1728     1.0  0.24525  0.37433  0.80365  1.0000
  H   H1411     1.0  0.40727  0.26717  0.77984  1.0000
  H   H1412     1.0  0.37737  0.40484  0.80085  1.0000
  H   H1413     1.0  0.09178  0.48217  0.80977  1.0000
  C   C1729     1.0  0.13891  0.38245  0.97350  1.0000
  C   C1730     1.0  0.35964  0.46062  0.80947  1.0000
  H   H1414     1.0  0.33086  0.39614  0.80251  1.0000
  H   H1415     1.0  0.31443  0.45985  0.82027  1.0000
  C   C1731     1.0  0.04242  0.48516  0.84957  1.0000
  C   C1732     1.0  0.45375  0.27971  0.82324  1.0000
  H   H1416     1.0  0.21851  0.39052  0.82913  1.0000
  H   H1417     1.0  0.49342  0.26844  0.81768  1.0000
  C   C1733     1.0  0.34892  0.24437  0.82865  1.0000
  H   H1418     1.0  0.45602  0.35064  0.78671  1.0000
  H   H1419     1.0  0.43267  0.39778  0.80105  1.0000
  S   S241      1.0  0.39320  0.26988  0.74135  1.0000
  H   H1420     1.0  0.30267  0.34844  0.74139  1.0000
  C   C1734     1.0  0.23975  0.37776  0.81587  1.0000
  C   C1735     1.0  0.38633  0.35537  0.75720  1.0000
  S   S242      1.0  0.18483  0.34944  0.76588  1.0000
  C   C1736     1.0  0.29624  0.35305  0.81086  1.0000
  C   C1737     1.0  0.32142  0.40929  0.82744  1.0000
  H   H1421     1.0  0.31158  0.40184  0.83339  1.0000
  C   C1738     1.0  0.10717  0.26559  0.74347  1.0000
  H   H1422     1.0  0.19056  0.30115  0.75101  1.0000
  S   S243      1.0  0.19111  0.38901  0.74957  1.0000
  C   C1739     1.0  0.34397  0.32515  0.78490  1.0000
  C   C1740     1.0  0.34761  0.41233  0.77167  1.0000
  H   H1423     1.0  0.23780  0.40266  0.75716  1.0000
  C   C1741     1.0  0.38813  0.41030  0.80132  1.0000
  C   C1742     1.0  0.21834  0.45517  0.73774  1.0000
  Fe  Fe122     1.0  0.18853  0.36390  0.74557  1.0000
  C   C1743     1.0  0.47690  0.28278  0.86817  1.0000
  C   C1744     1.0  0.21183  0.45874  0.77189  1.0000
  S   S244      1.0  0.26548  0.47117  0.77422  1.0000
  C   C1745     1.0  0.34572  0.33195  0.74322  1.0000
  Fe  Fe123     1.0  0.21474  0.34069  0.76185  1.0000
  C   C1746     1.0  0.25215  0.42386  0.75162  1.0000
  H   H1424     1.0  0.42747  0.42919  0.80232  1.0000
  C   C1747     1.0  0.01114  0.48304  0.87988  1.0000
  H   H1425     1.0  0.45580  0.31404  0.76783  1.0000
  C   C1748     1.0  0.28442  0.38425  0.77647  1.0000
  C   C1749     1.0  0.43024  0.26241  0.79831  1.0000
  H   H1426     1.0  0.13207  0.26411  0.74801  1.0000
  C   C1750     1.0  0.33553  0.39388  0.74673  1.0000
  S   S245      1.0  0.22763  0.31204  0.76825  1.0000
  C   C1751     1.0  0.27721  0.32082  0.76224  1.0000
  C   C1752     1.0  0.25875  0.32348  0.76340  1.0000
  C   C1753     1.0  0.17441  0.47469  0.85346  1.0000
  H   H1427     1.0  0.29555  0.33529  0.78753  1.0000
  C   C1754     1.0  0.38734  0.29110  0.75867  1.0000
  H   H1428     1.0  0.27206  0.28987  0.80230  1.0000
  H   H1429     1.0  0.26545  0.47440  0.80727  1.0000
  C   C1755     1.0  0.49690  0.35449  0.78867  1.0000
  C   C1756     1.0  0.33814  0.33670  0.79314  1.0000
  C   C1757     1.0  0.41644  0.42393  0.80210  1.0000
  C   C1758     1.0  0.20301  0.44031  0.79256  1.0000
  C   C1759     1.0  0.26099  0.29184  0.77002  1.0000
  C   C1760     1.0  0.28773  0.30366  0.76434  1.0000
  C   C1761     1.0  0.46654  0.30761  0.77280  1.0000
  C   C1762     1.0  0.15005  0.47829  0.87619  1.0000
  C   C1763     1.0  0.37016  0.44248  0.77669  1.0000
  C   C1764     1.0  0.22216  0.26903  0.76130  1.0000
  S   S246      1.0  0.31091  0.30088  0.76218  1.0000
  H   H1430     1.0  0.28763  0.27585  0.76987  1.0000
  H   H1431     1.0  0.21680  0.31488  0.74490  1.0000
  C   C1765     1.0  0.36798  0.44990  0.76431  1.0000
  C   C1766     1.0  0.40525  0.39946  0.80094  1.0000
  C   C1767     1.0  0.49612  0.28922  0.77340  1.0000
  H   H1432     1.0  0.22453  0.42414  0.80151  1.0000
  C   C1768     1.0  0.03145  0.45119  0.85274  1.0000
  C   C1769     1.0  0.26165  0.43469  0.74153  1.0000
  C   C1770     1.0  0.33773  0.24279  0.84075  1.0000
  H   H1433     1.0  0.30659  0.49008  0.78997  1.0000
  C   C1771     1.0  0.45166  0.26050  0.77862  1.0000
  H   H1434     1.0  0.43963  0.28464  0.78512  1.0000
  H   H1435     1.0  0.38390  0.30790  0.77168  1.0000
  H   H1436     1.0  0.29554  0.40163  0.75975  1.0000
  H   H1437     1.0  0.18450  0.45748  0.78140  1.0000
  H   H1438     1.0  0.41112  0.35263  0.76248  1.0000
  C   C1772     1.0  0.48201  0.29694  0.76714  1.0000
  H   H1439     1.0  0.21860  0.28286  0.76184  1.0000
  H   H1440     1.0  0.32742  0.44022  0.80021  1.0000
  C   C1773     1.0  0.21075  0.31388  0.73768  1.0000
  H   H1441     1.0  0.23314  0.47322  0.82576  1.0000
  C   C1774     1.0  0.39928  0.43482  0.80253  1.0000
  H   H1442     1.0  0.42709  0.27598  0.74003  1.0000
  C   C1775     1.0  0.22209  0.26421  0.75031  1.0000
  H   H1443     1.0  0.19264  0.43597  0.80037  1.0000
  C   C1776     1.0  0.23434  0.43944  0.78330  1.0000
  C   C1777     1.0  0.02875  0.42563  0.84111  1.0000
  C   C1778     1.0  0.02770  0.43051  0.95597  1.0000
  C   C1779     1.0  0.11242  0.41290  0.97669  1.0000
  C   C1780     1.0  0.37662  0.33474  0.73561  1.0000
  H   H1444     1.0  0.14925  0.48244  0.97439  1.0000
  Fe  Fe124     1.0  0.32759  0.27434  0.75896  1.0000
  C   C1781     1.0  0.39328  0.30089  0.76481  1.0000
  C   C1782     1.0  0.35929  0.45045  0.78661  1.0000
  H   H1445     1.0  0.33229  0.36388  0.79472  1.0000
  H   H1446     1.0  0.11643  0.36231  0.80458  1.0000
  C   C1783     1.0  0.21458  0.47873  0.85569  1.0000
  C   C1784     1.0  0.37945  0.37996  0.73994  1.0000
  H   H1447     1.0  0.33725  0.47199  0.79144  1.0000
  C   C1785     1.0  0.34599  0.46573  0.78395  1.0000
  H   H1448     1.0  0.38326  0.34371  0.76417  1.0000
  C   C1786     1.0  0.22887  0.47956  0.83372  1.0000
  C   C1787     1.0  0.35094  0.46028  0.82216  1.0000
  Fe  Fe125     1.0  0.22061  0.37720  0.74688  1.0000
  C   C1788     1.0  0.38464  0.25492  0.78642  1.0000
  H   H1449     1.0  0.01084  0.44132  0.86798  1.0000
  H   H1450     1.0  0.00177  0.39985  0.92033  1.0000
  C   C1789     1.0  0.34810  0.33180  0.77189  1.0000
  C   C1790     1.0  0.34964  0.31727  0.73786  1.0000
  H   H1451     1.0  0.05879  0.45487  0.98127  1.0000
  H   H1452     1.0  0.29460  0.45452  0.80868  1.0000
  H   H1453     1.0  0.18346  0.47337  0.84449  1.0000
  C   C1791     1.0  0.12488  0.25768  0.74437  1.0000
  H   H1454     1.0  0.49783  0.25656  0.78823  1.0000
  C   C1792     1.0  0.48110  0.34004  0.80883  1.0000
  C   C1793     1.0  0.41758  0.28285  0.74695  1.0000
  C   C1794     1.0  0.39957  0.28199  0.74973  1.0000
  C   C1795     1.0  0.35481  0.46516  0.76174  1.0000
  H   H1455     1.0  0.02185  0.41957  0.91911  1.0000
  H   H1456     1.0  0.20740  0.47212  0.86458  1.0000
  H   H1457     1.0  0.19002  0.25178  0.74894  1.0000
  H   H1458     1.0  0.33907  0.37573  0.77197  1.0000
  C   C1796     1.0  0.35918  0.34081  0.74216  1.0000
  H   H1459     1.0  0.17800  0.38237  0.83425  1.0000
  Fe  Fe126     1.0  0.29102  0.48102  0.76911  1.0000
  C   C1797     1.0  0.11588  0.37138  0.81029  1.0000
  C   C1798     1.0  0.45080  0.27579  0.83639  1.0000
  C   C1799     1.0  0.07206  0.45628  0.97602  1.0000
  C   C1800     1.0  0.42345  0.29247  0.75306  1.0000
  H   H1460     1.0  0.10229  0.42481  0.97780  1.0000
  C   C1801     1.0  0.32717  0.25598  0.80898  1.0000
  H   H1461     1.0  0.33931  0.31022  0.73909  1.0000
  C   C1802     1.0  0.22137  0.48750  0.74910  1.0000
  H   H1462     1.0  0.07952  0.40260  0.98350  1.0000
  C   C1803     1.0  0.04281  0.44880  0.84110  1.0000
  H   H1463     1.0  0.48697  0.27586  0.83840  1.0000
  H   H1464     1.0  0.41882  0.37918  0.74675  1.0000
  C   C1804     1.0  0.32423  0.40878  0.74105  1.0000
  C   C1805     1.0  0.17058  0.48963  0.75559  1.0000
  H   H1465     1.0  0.33948  0.47539  0.83668  1.0000
  C   C1806     1.0  0.19025  0.25652  0.73895  1.0000
  H   H1466     1.0  0.05640  0.48908  0.86228  1.0000
  C   C1807     1.0  0.01781  0.42755  0.85289  1.0000
  C   C1808     1.0  0.17428  0.26558  0.73511  1.0000
  C   C1809     1.0  0.22662  0.24634  0.74961  1.0000
  H   H1467     1.0  0.30442  0.48529  0.83076  1.0000
  H   H1468     1.0  0.18074  0.42872  0.74975  1.0000
  H   H1469     1.0  0.14923  0.37068  0.97226  1.0000
  C   C1810     1.0  0.19170  0.44840  0.75289  1.0000
  C   C1811     1.0  0.49495  0.28314  0.83042  1.0000
  H   H1470     1.0  0.38740  0.34095  0.73490  1.0000
  C   C1812     1.0  0.32974  0.37626  0.73463  1.0000
  C   C1813     1.0  0.32051  0.24054  0.81447  1.0000
  H   H1471     1.0  0.30952  0.32006  0.73472  1.0000
  H   H1472     1.0  0.02306  0.48156  0.88329  1.0000
  H   H1473     1.0  0.02859  0.48629  0.83518  1.0000
  H   H1474     1.0  0.04880  0.41727  0.98124  1.0000
  H   H1475     1.0  0.22959  0.46154  0.73465  1.0000
  H   H1476     1.0  0.32218  0.42144  0.74348  1.0000
  H   H1477     1.0  0.00826  0.41919  0.85755  1.0000
  C   C1814     1.0  0.45267  0.24222  0.78112  1.0000
  C   C1815     1.0  0.18465  0.48795  0.76142  1.0000
  C   C1816     1.0  0.39524  0.38503  0.73915  1.0000
  C   C1817     1.0  0.00526  0.48263  0.97381  1.0000
  C   C1818     1.0  0.00262  0.45351  0.96275  1.0000
  H   H1478     1.0  0.17673  0.29883  0.73453  1.0000
  H   H1479     1.0  0.49584  0.40468  0.82112  1.0000
  H   H1480     1.0  0.29596  0.24342  0.79325  1.0000
  C   C1819     1.0  0.49467  0.29180  0.78550  1.0000
  C   C1820     1.0  0.09547  0.48594  0.86666  1.0000
  H   H1481     1.0  0.49918  0.29952  0.84113  1.0000
  C   C1821     1.0  0.49823  0.26188  0.74564  1.0000
  S   S247      1.0  0.11531  0.46617  0.98282  1.0000
  H   H1482     1.0  0.49700  0.27344  0.73799  1.0000
  Fe  Fe127     1.0  0.06106  0.62494  0.06175  1.0000
  S   S248      1.0  0.04294  0.60579  0.07103  1.0000
  S   S249      1.0  0.06926  0.63441  0.07620  1.0000
  Fe  Fe128     1.0  0.05973  0.62268  0.03530  1.0000
  S   S250      1.0  0.04217  0.60301  0.04269  1.0000
  Fe  Fe129     1.0  0.02690  0.62025  0.05636  1.0000
  Fe  Fe130     1.0  0.05976  0.59044  0.05658  1.0000
  S   S251      1.0  0.06745  0.56102  0.06249  1.0000
  S   S252      1.0  0.04330  0.64106  0.04817  1.0000
  S   S253      1.0  0.07903  0.60841  0.04813  1.0000
  S   S254      1.0  0.10131  0.52929  0.01383  1.0000
  Fe  Fe131     1.0  0.16846  0.64210  0.11444  1.0000
  S   S255      1.0  0.17941  0.64903  0.09355  1.0000
  S   S256      1.0  0.16078  0.66526  0.12419  1.0000
  Fe  Fe132     1.0  0.17061  0.60420  0.11355  1.0000
  S   S257      1.0  0.18201  0.60872  0.09286  1.0000
  S   S258      1.0  0.16734  0.57629  0.12306  1.0000
  Fe  Fe133     1.0  0.19931  0.62335  0.09676  1.0000
  S   S259      1.0  0.22785  0.62005  0.08564  1.0000
  Fe  Fe134     1.0  0.16097  0.63373  0.09154  1.0000
  S   S260      1.0  0.14771  0.64138  0.07469  1.0000
  S   S261      1.0  0.18956  0.61712  0.11774  1.0000
  S   S262      1.0  0.14838  0.62861  0.11221  1.0000
  C   C1822     1.0  0.31710  0.68358  0.22998  1.0000
  H   H1483     1.0  0.47479  0.63918  0.07969  1.0000
  C   C1823     1.0  0.49856  0.72646  0.11706  1.0000
  H   H1484     1.0  0.35449  0.69788  0.17284  1.0000
  Fe  Fe135     1.0  0.17084  0.50232  0.09001  1.0000
  S   S263      1.0  0.16514  0.53227  0.08476  1.0000
  H   H1485     1.0  0.18968  0.64375  0.19573  1.0000
  C   C1824     1.0  0.04005  0.62335  0.00972  1.0000
  C   C1825     1.0  0.31720  0.67073  0.18347  1.0000
  S   S264      1.0  0.21366  0.67668  0.19106  1.0000
  H   H1486     1.0  0.10099  0.63654  0.05572  1.0000
  Fe  Fe136     1.0  0.40098  0.69040  0.15526  1.0000
  S   S265      1.0  0.41567  0.69590  0.16784  1.0000
  S   S266      1.0  0.38728  0.66698  0.16149  1.0000
  Fe  Fe137     1.0  0.43652  0.70259  0.15035  1.0000
  S   S267      1.0  0.46682  0.69425  0.14806  1.0000
  S   S268      1.0  0.42322  0.69436  0.13827  1.0000
  Fe  Fe138     1.0  0.30454  0.60643  0.14713  1.0000
  S   S269      1.0  0.30487  0.63317  0.13438  1.0000
  S   S270      1.0  0.28637  0.60417  0.16633  1.0000
  Fe  Fe139     1.0  0.33089  0.58709  0.12831  1.0000
  S   S271      1.0  0.33409  0.61230  0.11397  1.0000
  S   S272      1.0  0.34543  0.56045  0.12357  1.0000
  Fe  Fe140     1.0  0.33470  0.62363  0.13001  1.0000
  S   S273      1.0  0.35194  0.64409  0.12561  1.0000
  Fe  Fe141     1.0  0.30415  0.62029  0.11930  1.0000
  S   S274      1.0  0.28982  0.63578  0.10351  1.0000
  S   S275      1.0  0.33446  0.59745  0.14395  1.0000
  S   S276      1.0  0.30090  0.59439  0.13249  1.0000
  Fe  Fe142     1.0  0.19999  0.70140  0.19818  1.0000
  H   H1487     1.0  0.14566  0.67232  0.18085  1.0000
  H   H1488     1.0  0.26304  0.68534  0.14565  1.0000
  C   C1826     1.0  0.35271  0.72477  0.12719  1.0000
  C   C1827     1.0  0.08717  0.49267  0.07436  1.0000
  S   S277      1.0  0.29830  0.50369  0.13332  1.0000
  H   H1489     1.0  0.48716  0.73189  0.12374  1.0000
  C   C1828     1.0  0.33180  0.54525  0.12595  1.0000
  C   C1829     1.0  0.31588  0.54564  0.13515  1.0000
  C   C1830     1.0  0.30563  0.53295  0.13726  1.0000
  C   C1831     1.0  0.31117  0.51980  0.13017  1.0000
  C   C1832     1.0  0.32706  0.51944  0.12096  1.0000
  C   C1833     1.0  0.33733  0.53209  0.11887  1.0000
  H   H1490     1.0  0.31162  0.55550  0.14083  1.0000
  H   H1491     1.0  0.29342  0.53330  0.14445  1.0000
  H   H1492     1.0  0.33162  0.50926  0.11558  1.0000
  H   H1493     1.0  0.34952  0.53174  0.11167  1.0000
  C   C1834     1.0  0.37744  0.66077  0.15144  1.0000
  C   C1835     1.0  0.36962  0.64591  0.15600  1.0000
  C   C1836     1.0  0.36128  0.64085  0.14839  1.0000
  C   C1837     1.0  0.36127  0.65026  0.13597  1.0000
  C   C1838     1.0  0.36924  0.66500  0.13140  1.0000
  C   C1839     1.0  0.37722  0.67030  0.13907  1.0000
  H   H1494     1.0  0.36989  0.63834  0.16552  1.0000
  H   H1495     1.0  0.35516  0.62950  0.15205  1.0000
  H   H1496     1.0  0.36919  0.67236  0.12185  1.0000
  H   H1497     1.0  0.38329  0.68168  0.13539  1.0000
  C   C1840     1.0  0.27049  0.66015  0.17297  1.0000
  C   C1841     1.0  0.25803  0.64934  0.17717  1.0000
  C   C1842     1.0  0.26325  0.63172  0.17585  1.0000
  C   C1843     1.0  0.28071  0.62514  0.16983  1.0000
  C   C1844     1.0  0.29332  0.63576  0.16595  1.0000
  C   C1845     1.0  0.28826  0.65315  0.16774  1.0000
  H   H1498     1.0  0.24436  0.65458  0.18124  1.0000
  H   H1499     1.0  0.25357  0.62346  0.17886  1.0000
  H   H1500     1.0  0.30692  0.63063  0.16144  1.0000
  C   C1846     1.0  0.28304  0.72812  0.19940  1.0000
  H   H1501     1.0  0.01344  0.55949  0.03397  1.0000
  C   C1847     1.0  0.32193  0.73339  0.17993  1.0000
  H   H1502     1.0  0.19894  0.68656  0.11391  1.0000
  C   C1848     1.0  0.05329  0.54296  0.01593  1.0000
  H   H1503     1.0  0.02688  0.58570  0.02788  1.0000
  H   H1504     1.0  0.05718  0.58472  0.01425  1.0000
  H   H1505     1.0  0.22890  0.73925  0.13237  1.0000
  C   C1849     1.0  0.23356  0.65745  0.14946  1.0000
  C   C1850     1.0  0.03766  0.50590  0.02095  1.0000
  C   C1851     1.0  0.24762  0.67600  0.11149  1.0000
  H   H1506     1.0  0.29321  0.73617  0.15242  1.0000
  C   C1852     1.0  0.47778  0.70209  0.15647  1.0000
  C   C1853     1.0  0.46810  0.71071  0.16625  1.0000
  H   H1507     1.0  0.31782  0.71165  0.11532  1.0000
  C   C1854     1.0  0.24277  0.67518  0.08794  1.0000
  H   H1508     1.0  0.13679  0.51822  0.99919  1.0000
  H   H1509     1.0  0.45369  0.71244  0.16891  1.0000
  C   C1855     1.0  0.30383  0.67468  0.11866  1.0000
  C   C1856     1.0  0.25277  0.68651  0.08872  1.0000
  C   C1857     1.0  0.05998  0.57421  0.98409  1.0000
  H   H1510     1.0  0.22633  0.59140  0.13767  1.0000
  C   C1858     1.0  0.23963  0.72620  0.23297  1.0000
  H   H1511     1.0  0.24017  0.52002  0.15530  1.0000
  H   H1512     1.0  0.22633  0.65176  0.06615  1.0000
  C   C1859     1.0  0.14472  0.69140  0.19131  1.0000
  C   C1860     1.0  0.02660  0.55895  0.02786  1.0000
  H   H1513     1.0  0.03578  0.72842  0.21780  1.0000
  H   H1514     1.0  0.24130  0.67444  0.07885  1.0000
  C   C1861     1.0  0.17037  0.66572  0.13649  1.0000
  C   C1862     1.0  0.18060  0.65048  0.14274  1.0000
  C   C1863     1.0  0.18673  0.65106  0.15318  1.0000
  H   H1515     1.0  0.18329  0.63812  0.13980  1.0000
  H   H1516     1.0  0.19411  0.63906  0.15822  1.0000
  C   C1864     1.0  0.24512  0.62305  0.09136  1.0000
  C   C1865     1.0  0.24577  0.61828  0.10421  1.0000
  C   C1866     1.0  0.26000  0.62112  0.10814  1.0000
  C   C1867     1.0  0.27319  0.62924  0.09927  1.0000
  C   C1868     1.0  0.27238  0.63390  0.08651  1.0000
  C   C1869     1.0  0.25868  0.63049  0.08256  1.0000
  H   H1517     1.0  0.23542  0.61234  0.11105  1.0000
  H   H1518     1.0  0.26048  0.61751  0.11802  1.0000
  H   H1519     1.0  0.28242  0.64024  0.07962  1.0000
  H   H1520     1.0  0.25838  0.63407  0.07264  1.0000
  C   C1870     1.0  0.16673  0.56402  0.11242  1.0000
  C   C1871     1.0  0.16198  0.57255  0.10083  1.0000
  C   C1872     1.0  0.16190  0.56264  0.09237  1.0000
  C   C1873     1.0  0.16621  0.54411  0.09550  1.0000
  C   C1874     1.0  0.17074  0.53552  0.10716  1.0000
  C   C1875     1.0  0.17094  0.54548  0.11560  1.0000
  H   H1521     1.0  0.15796  0.58679  0.09846  1.0000
  H   H1522     1.0  0.15831  0.56936  0.08340  1.0000
  H   H1523     1.0  0.17391  0.52124  0.10973  1.0000
  H   H1524     1.0  0.17441  0.53884  0.12458  1.0000
  C   C1876     1.0  0.07767  0.55206  0.04912  1.0000
  C   C1877     1.0  0.07906  0.53412  0.04989  1.0000
  C   C1878     1.0  0.08672  0.52689  0.03915  1.0000
  C   C1879     1.0  0.09307  0.53763  0.02764  1.0000
  C   C1880     1.0  0.09217  0.55547  0.02697  1.0000
  C   C1881     1.0  0.08423  0.56275  0.03766  1.0000
  H   H1525     1.0  0.07384  0.52598  0.05873  1.0000
  H   H1526     1.0  0.08782  0.51304  0.03979  1.0000
  H   H1527     1.0  0.09706  0.56383  0.01807  1.0000
  H   H1528     1.0  0.08316  0.57665  0.03698  1.0000
  C   C1882     1.0  0.09157  0.63497  0.07569  1.0000
  C   C1883     1.0  0.09619  0.63503  0.08684  1.0000
  C   C1884     1.0  0.11357  0.63615  0.08681  1.0000
  C   C1885     1.0  0.12628  0.63806  0.07546  1.0000
  C   C1886     1.0  0.12160  0.63825  0.06426  1.0000
  C   C1887     1.0  0.10444  0.63637  0.06439  1.0000
  H   H1529     1.0  0.08618  0.63441  0.09552  1.0000
  H   H1530     1.0  0.11693  0.63607  0.09549  1.0000
  H   H1531     1.0  0.13125  0.63989  0.05541  1.0000
  C   C1888     1.0  0.30616  0.67872  0.12931  1.0000
  C   C1889     1.0  0.20374  0.67294  0.07022  1.0000
  C   C1890     1.0  0.20051  0.62759  0.22460  1.0000
  C   C1891     1.0  0.23151  0.64157  0.15810  1.0000
  H   H1532     1.0  0.15416  0.71432  0.22980  1.0000
  H   H1533     1.0  0.26256  0.69610  0.10096  1.0000
  C   C1892     1.0  0.16690  0.68166  0.14048  1.0000
  C   C1893     1.0  0.21646  0.57184  0.10025  1.0000
  C   C1894     1.0  0.23340  0.57068  0.10215  1.0000
  C   C1895     1.0  0.24847  0.56813  0.09245  1.0000
  C   C1896     1.0  0.24655  0.56739  0.08067  1.0000
  C   C1897     1.0  0.22944  0.56971  0.07844  1.0000
  C   C1898     1.0  0.21448  0.57118  0.08845  1.0000
  P   P60       1.0  0.22673  0.56989  0.06304  1.0000
  C   C1899     1.0  0.24402  0.57886  0.05095  1.0000
  C   C1900     1.0  0.22719  0.54733  0.06307  1.0000
  C   C1901     1.0  0.24361  0.53566  0.05983  1.0000
  C   C1902     1.0  0.24417  0.51792  0.06047  1.0000
  C   C1903     1.0  0.22839  0.51164  0.06448  1.0000
  C   C1904     1.0  0.21209  0.52301  0.06808  1.0000
  C   C1905     1.0  0.21147  0.54073  0.06756  1.0000
  C   C1906     1.0  0.25035  0.57308  0.03954  1.0000
  C   C1907     1.0  0.26355  0.58029  0.03011  1.0000
  C   C1908     1.0  0.27027  0.59353  0.03192  1.0000
  C   C1909     1.0  0.26361  0.59974  0.04309  1.0000
  C   C1910     1.0  0.25041  0.59259  0.05252  1.0000
  C   C1911     1.0  0.20639  0.58540  0.05999  1.0000
  C   C1912     1.0  0.20223  0.60192  0.06324  1.0000
  C   C1913     1.0  0.18682  0.61436  0.06067  1.0000
  C   C1914     1.0  0.17538  0.61041  0.05490  1.0000
  C   C1915     1.0  0.17965  0.59418  0.05133  1.0000
  C   C1916     1.0  0.19527  0.58181  0.05367  1.0000
  H   H1534     1.0  0.20481  0.57351  0.10785  1.0000
  H   H1535     1.0  0.23491  0.57176  0.11112  1.0000
  H   H1536     1.0  0.26162  0.56692  0.09405  1.0000
  H   H1537     1.0  0.25840  0.56526  0.07330  1.0000
  H   H1538     1.0  0.20124  0.57214  0.08711  1.0000
  H   H1539     1.0  0.25606  0.54010  0.05710  1.0000
  H   H1540     1.0  0.25688  0.50891  0.05810  1.0000
  C   C1917     1.0  0.17834  0.72376  0.05316  1.0000
  H   H1541     1.0  0.19995  0.51797  0.07149  1.0000
  H   H1542     1.0  0.19877  0.54906  0.07097  1.0000
  H   H1543     1.0  0.24504  0.56309  0.03789  1.0000
  H   H1544     1.0  0.26854  0.57563  0.02139  1.0000
  H   H1545     1.0  0.28054  0.59906  0.02463  1.0000
  H   H1546     1.0  0.26867  0.61011  0.04449  1.0000
  H   H1547     1.0  0.24522  0.59778  0.06104  1.0000
  H   H1548     1.0  0.21078  0.60516  0.06791  1.0000
  H   H1549     1.0  0.18355  0.62695  0.06342  1.0000
  H   H1550     1.0  0.19858  0.56954  0.05051  1.0000
  C   C1918     1.0  0.11941  0.60059  0.12599  1.0000
  C   C1919     1.0  0.10681  0.61623  0.12754  1.0000
  C   C1920     1.0  0.09096  0.62013  0.12329  1.0000
  C   C1921     1.0  0.08763  0.60831  0.11758  1.0000
  C   C1922     1.0  0.10022  0.59254  0.11601  1.0000
  C   C1923     1.0  0.11628  0.58892  0.12008  1.0000
  P   P61       1.0  0.09619  0.57721  0.10856  1.0000
  C   C1924     1.0  0.07231  0.57945  0.11093  1.0000
  C   C1925     1.0  0.10542  0.58202  0.09180  1.0000
  C   C1926     1.0  0.09829  0.57705  0.08350  1.0000
  C   C1927     1.0  0.10543  0.58065  0.07053  1.0000
  C   C1928     1.0  0.11988  0.58898  0.06575  1.0000
  C   C1929     1.0  0.12726  0.59364  0.07396  1.0000
  C   C1930     1.0  0.12002  0.59026  0.08694  1.0000
  C   C1931     1.0  0.06313  0.56778  0.12050  1.0000
  C   C1932     1.0  0.04455  0.57027  0.12240  1.0000
  C   C1933     1.0  0.03505  0.58423  0.11463  1.0000
  C   C1934     1.0  0.04412  0.59576  0.10500  1.0000
  C   C1935     1.0  0.06263  0.59339  0.10315  1.0000
  C   C1936     1.0  0.10709  0.55533  0.11574  1.0000
  C   C1937     1.0  0.10421  0.54981  0.12895  1.0000
  C   C1938     1.0  0.11368  0.53343  0.13455  1.0000
  C   C1939     1.0  0.12624  0.52255  0.12700  1.0000
  C   C1940     1.0  0.12925  0.52806  0.11389  1.0000
  C   C1941     1.0  0.11987  0.54439  0.10828  1.0000
  H   H1551     1.0  0.13180  0.59762  0.12916  1.0000
  H   H1552     1.0  0.10951  0.62543  0.13186  1.0000
  H   H1553     1.0  0.08134  0.63241  0.12425  1.0000
  H   H1554     1.0  0.07535  0.61172  0.11426  1.0000
  H   H1555     1.0  0.12650  0.57712  0.11868  1.0000
  H   H1556     1.0  0.08719  0.57044  0.08699  1.0000
  H   H1557     1.0  0.09977  0.57687  0.06418  1.0000
  H   H1558     1.0  0.12528  0.59191  0.05567  1.0000
  H   H1559     1.0  0.13844  0.60014  0.07029  1.0000
  H   H1560     1.0  0.12584  0.59417  0.09309  1.0000
  H   H1561     1.0  0.07017  0.55676  0.12651  1.0000
  H   H1562     1.0  0.03754  0.56130  0.12985  1.0000
  H   H1563     1.0  0.02070  0.58611  0.11601  1.0000
  H   H1564     1.0  0.03689  0.60661  0.09890  1.0000
  H   H1565     1.0  0.06940  0.60256  0.09567  1.0000
  H   H1566     1.0  0.09503  0.55842  0.13490  1.0000
  H   H1567     1.0  0.11165  0.52938  0.14473  1.0000
  H   H1568     1.0  0.13402  0.51007  0.13124  1.0000
  H   H1569     1.0  0.13944  0.52004  0.10800  1.0000
  H   H1570     1.0  0.12326  0.54864  0.09813  1.0000
  C   C1942     1.0  0.38907  0.52382  0.08472  1.0000
  C   C1943     1.0  0.47257  0.61243  0.08906  1.0000
  S   S278      1.0  0.06891  0.63157  0.01415  1.0000
  H   H1571     1.0  0.15889  0.69348  0.13573  1.0000
  H   H1572     1.0  0.03401  0.62317  0.01954  1.0000
  Fe  Fe143     1.0  0.09305  0.50434  0.01499  1.0000
  C   C1944     1.0  0.19119  0.66608  0.05157  1.0000
  S   S279      1.0  0.22022  0.70155  0.16274  1.0000
  C   C1945     1.0  0.13553  0.51530  0.99068  1.0000
  C   C1946     1.0  0.20574  0.72040  0.08851  1.0000
  H   H1573     1.0  0.32776  0.68418  0.19864  1.0000
  C   C1947     1.0  0.38409  0.50246  0.10460  1.0000
  H   H1574     1.0  0.29492  0.71103  0.16992  1.0000
  C   C1948     1.0  0.01275  0.50583  0.05262  1.0000
  H   H1575     1.0  0.29802  0.66132  0.16469  1.0000
  C   C1949     1.0  0.04335  0.50908  0.00670  1.0000
  H   H1576     1.0  0.30776  0.73303  0.12908  1.0000
  C   C1950     1.0  0.23731  0.66489  0.11065  1.0000
  C   C1951     1.0  0.03702  0.51228  0.06378  1.0000
  Fe  Fe144     1.0  0.40830  0.72265  0.13493  1.0000
  C   C1952     1.0  0.27251  0.68000  0.20222  1.0000
  H   H1577     1.0  0.18614  0.66317  0.04453  1.0000
  H   H1578     1.0  0.29006  0.65568  0.19760  1.0000
  H   H1579     1.0  0.33802  0.65329  0.17317  1.0000
  H   H1580     1.0  0.22192  0.63287  0.18888  1.0000
  C   C1953     1.0  0.19561  0.71759  0.08115  1.0000
  C   C1954     1.0  0.49651  0.69993  0.15318  1.0000
  C   C1955     1.0  0.34449  0.71012  0.17149  1.0000
  S   S280      1.0  0.42321  0.73131  0.14556  1.0000
  C   C1956     1.0  0.25476  0.68777  0.20709  1.0000
  H   H1581     1.0  0.24091  0.61840  0.20455  1.0000
  C   C1957     1.0  0.34572  0.70777  0.11519  1.0000
  H   H1582     1.0  0.04846  0.58271  0.98875  1.0000
  C   C1958     1.0  0.10487  0.49185  0.11803  1.0000
  H   H1583     1.0  0.18335  0.49126  0.12967  1.0000
  H   H1584     1.0  0.20872  0.67497  0.07760  1.0000
  C   C1959     1.0  0.28671  0.67462  0.11762  1.0000
  H   H1585     1.0  0.31512  0.70242  0.15086  1.0000
  C   C1960     1.0  0.03069  0.62003  0.00204  1.0000
  C   C1961     1.0  0.17284  0.50580  0.14444  1.0000
  C   C1962     1.0  0.30422  0.69843  0.17089  1.0000
  H   H1586     1.0  0.22547  0.66973  0.15187  1.0000
  C   C1963     1.0  0.05696  0.62728  0.00461  1.0000
  H   H1587     1.0  0.23616  0.73930  0.22716  1.0000
  C   C1964     1.0  0.14514  0.68210  0.08323  1.0000
  C   C1965     1.0  0.27674  0.66203  0.20167  1.0000
  Fe  Fe145     1.0  0.23419  0.69174  0.17877  1.0000
  H   H1588     1.0  0.25201  0.71296  0.12772  1.0000
  H   H1589     1.0  0.35971  0.50781  0.13684  1.0000
  H   H1590     1.0  0.17084  0.59118  0.04677  1.0000
  C   C1966     1.0  0.03611  0.54343  0.02356  1.0000
  C   C1967     1.0  0.05249  0.54353  0.09611  1.0000
  C   C1968     1.0  0.04214  0.53989  0.10830  1.0000
  C   C1969     1.0  0.04766  0.52430  0.11683  1.0000
  C   C1970     1.0  0.06353  0.51232  0.11312  1.0000
  C   C1971     1.0  0.07412  0.51607  0.10093  1.0000
  C   C1972     1.0  0.06826  0.53154  0.09239  1.0000
  C   C1973     1.0  0.20689  0.70932  0.10035  1.0000
  P   P62       1.0  0.09336  0.49991  0.09546  1.0000
  C   C1974     1.0  0.19761  0.63759  0.20281  1.0000
  H   H1591     1.0  0.39640  0.53348  0.07839  1.0000
  H   H1592     1.0  0.19559  0.73324  0.21020  1.0000
  P   P63       1.0  0.02610  0.52441  0.02855  1.0000
  H   H1593     1.0  0.04321  0.52236  0.00108  1.0000
  H   H1594     1.0  0.22959  0.71368  0.22269  1.0000
  C   C1975     1.0  0.30064  0.68842  0.20983  1.0000
  H   H1595     1.0  0.21225  0.50018  0.12318  1.0000
  H   H1596     1.0  0.01772  0.61688  0.00606  1.0000
  H   H1597     1.0  0.43427  0.72761  0.20866  1.0000
  C   C1976     1.0  0.15729  0.66209  0.20939  1.0000
  C   C1977     1.0  0.11110  0.50998  0.08483  1.0000
  C   C1978     1.0  0.11225  0.52714  0.08465  1.0000
  C   C1979     1.0  0.12623  0.53446  0.07627  1.0000
  C   C1980     1.0  0.13917  0.52470  0.06815  1.0000
  C   C1981     1.0  0.13830  0.50750  0.06851  1.0000
  C   C1982     1.0  0.12446  0.50011  0.07693  1.0000
  H   H1598     1.0  0.04820  0.55552  0.08939  1.0000
  S   S281      1.0  0.18306  0.71203  0.18358  1.0000
  C   C1983     1.0  0.13703  0.62912  0.22148  1.0000
  C   C1984     1.0  0.35829  0.71259  0.11940  1.0000
  H   H1599     1.0  0.07581  0.53418  0.08276  1.0000
  H   H1600     1.0  0.22700  0.65585  0.09834  1.0000
  H   H1601     1.0  0.04664  0.52764  0.04560  1.0000
  C   C1985     1.0  0.17615  0.51690  0.15075  1.0000
  H   H1602     1.0  0.49471  0.69984  0.12487  1.0000
  C   C1986     1.0  0.15385  0.65969  0.19847  1.0000
  C   C1987     1.0  0.24431  0.50731  0.15269  1.0000
  H   H1603     1.0  0.02136  0.65860  0.02621  1.0000
  H   H1604     1.0  0.10256  0.53482  0.09099  1.0000
  H   H1605     1.0  0.12745  0.54754  0.07620  1.0000
  H   H1606     1.0  0.15015  0.53032  0.06186  1.0000
  H   H1607     1.0  0.14851  0.49977  0.06239  1.0000
  C   C1988     1.0  0.41256  0.50105  0.13039  1.0000
  C   C1989     1.0  0.29027  0.69010  0.22187  1.0000
  C   C1990     1.0  0.18311  0.66695  0.15725  1.0000
  H   H1608     1.0  0.14653  0.70723  0.20332  1.0000
  C   C1991     1.0  0.19243  0.52232  0.14698  1.0000
  C   C1992     1.0  0.20534  0.51710  0.13662  1.0000
  C   C1993     1.0  0.20216  0.50534  0.13069  1.0000
  P   P64       1.0  0.22699  0.52275  0.13250  1.0000
  C   C1994     1.0  0.23770  0.52296  0.11621  1.0000
  C   C1995     1.0  0.22650  0.54428  0.13468  1.0000
  C   C1996     1.0  0.24236  0.54839  0.13513  1.0000
  C   C1997     1.0  0.24225  0.56528  0.13631  1.0000
  C   C1998     1.0  0.22637  0.57824  0.13691  1.0000
  C   C1999     1.0  0.21065  0.57433  0.13621  1.0000
  C   C2000     1.0  0.21076  0.55753  0.13489  1.0000
  C   C2001     1.0  0.25646  0.51932  0.11258  1.0000
  C   C2002     1.0  0.26488  0.51907  0.10000  1.0000
  C   C2003     1.0  0.25465  0.52226  0.09101  1.0000
  C   C2004     1.0  0.23599  0.52603  0.09457  1.0000
  C   C2005     1.0  0.22751  0.52688  0.10703  1.0000
  C   C2006     1.0  0.24005  0.50502  0.14204  1.0000
  C   C2007     1.0  0.31937  0.68481  0.20790  1.0000
  H   H1609     1.0  0.16319  0.61996  0.05326  1.0000
  H   H1610     1.0  0.00361  0.50287  0.04830  1.0000
  H   H1611     1.0  0.05211  0.49614  0.98988  1.0000
  C   C2008     1.0  0.19210  0.71258  0.22691  1.0000
  H   H1612     1.0  0.19497  0.53049  0.15221  1.0000
  H   H1613     1.0  0.15781  0.68183  0.21904  1.0000
  H   H1614     1.0  0.25488  0.53862  0.13439  1.0000
  H   H1615     1.0  0.25456  0.56840  0.13655  1.0000
  C   C2009     1.0  0.13065  0.69372  0.10582  1.0000
  H   H1616     1.0  0.19864  0.55512  0.13373  1.0000
  H   H1617     1.0  0.26465  0.51648  0.11946  1.0000
  H   H1618     1.0  0.27936  0.51594  0.09724  1.0000
  H   H1619     1.0  0.26125  0.52145  0.08136  1.0000
  H   H1620     1.0  0.22804  0.52824  0.08770  1.0000
  H   H1621     1.0  0.21304  0.53048  0.10946  1.0000
  C   C2010     1.0  0.15351  0.69301  0.08643  1.0000
  C   C2011     1.0  0.36994  0.49904  0.10113  1.0000
  C   C2012     1.0  0.28892  0.64517  0.23310  1.0000
  C   C2013     1.0  0.01299  0.49826  0.06533  1.0000
  C   C2014     1.0  0.49571  0.71532  0.16920  1.0000
  H   H1622     1.0  0.14159  0.72857  0.07714  1.0000
  Fe  Fe146     1.0  0.40145  0.72426  0.16233  1.0000
  H   H1623     1.0  0.02976  0.54908  0.11106  1.0000
  H   H1624     1.0  0.29274  0.72365  0.20531  1.0000
  C   C2015     1.0  0.20183  0.71190  0.13466  1.0000
  H   H1625     1.0  0.26705  0.64069  0.12692  1.0000
  C   C2016     1.0  0.27425  0.68288  0.13786  1.0000
  H   H1626     1.0  0.06118  0.53110  0.01278  1.0000
  H   H1627     1.0  0.19838  0.58440  0.13644  1.0000
  P   P65       1.0  0.16579  0.64308  0.22080  1.0000
  C   C2017     1.0  0.06068  0.55792  0.01251  1.0000
  Fe  Fe147     1.0  0.20631  0.72440  0.17211  1.0000
  H   H1628     1.0  0.07398  0.55753  0.00664  1.0000
  C   C2018     1.0  0.24583  0.66009  0.21068  1.0000
  C   C2019     1.0  0.12980  0.67695  0.09129  1.0000
  C   C2020     1.0  0.12266  0.68260  0.10264  1.0000
  H   H1629     1.0  0.12366  0.66827  0.08882  1.0000
  H   H1630     1.0  0.11107  0.67817  0.10902  1.0000
  H   H1631     1.0  0.33675  0.67367  0.15231  1.0000
  H   H1632     1.0  0.26352  0.61282  0.14238  1.0000
  C   C2021     1.0  0.06431  0.62802  0.99168  1.0000
  C   C2022     1.0  0.02487  0.51647  0.04533  1.0000
  C   C2023     1.0  0.32867  0.66596  0.17254  1.0000
  C   C2024     1.0  0.19805  0.69531  0.10478  1.0000
  H   H1633     1.0  0.22182  0.64179  0.16691  1.0000
  H   H1634     1.0  0.12538  0.69776  0.11476  1.0000
  C   C2025     1.0  0.29133  0.68301  0.13883  1.0000
  C   C2026     1.0  0.21483  0.69667  0.13254  1.0000
  C   C2027     1.0  0.22503  0.72744  0.13218  1.0000
  H   H1635     1.0  0.15653  0.64657  0.19664  1.0000
  C   C2028     1.0  0.26345  0.65216  0.20587  1.0000
  C   C2029     1.0  0.47705  0.71720  0.17259  1.0000
  H   H1636     1.0  0.04647  0.51478  0.06807  1.0000
  H   H1637     1.0  0.26310  0.71408  0.18187  1.0000
  C   C2030     1.0  0.03697  0.51969  0.05103  1.0000
  H   H1638     1.0  0.25101  0.70162  0.20733  1.0000
  H   H1639     1.0  0.26671  0.63855  0.20486  1.0000
  P   P66       1.0  0.28954  0.69301  0.19692  1.0000
  C   C2031     1.0  0.26652  0.72290  0.18613  1.0000
  H   H1640     1.0  0.16995  0.69443  0.15411  1.0000
  H   H1641     1.0  0.47715  0.62162  0.14298  1.0000
  C   C2032     1.0  0.18119  0.67955  0.05790  1.0000
  C   C2033     1.0  0.19471  0.72945  0.22029  1.0000
  C   C2034     1.0  0.18588  0.49998  0.13447  1.0000
  H   H1642     1.0  0.22879  0.49788  0.06501  1.0000
  C   C2035     1.0  0.32754  0.68229  0.21796  1.0000
  H   H1643     1.0  0.12923  0.64259  0.22058  1.0000
  C   C2036     1.0  0.32935  0.73478  0.15737  1.0000
  C   C2037     1.0  0.39382  0.51470  0.09622  1.0000
  H   H1644     1.0  0.48290  0.60657  0.08195  1.0000
  C   C2038     1.0  0.18715  0.68280  0.06751  1.0000
  C   C2039     1.0  0.39717  0.50598  0.12532  1.0000
  C   C2040     1.0  0.33444  0.73216  0.13096  1.0000
  C   C2041     1.0  0.41734  0.51319  0.13499  1.0000
  C   C2042     1.0  0.40689  0.53037  0.13449  1.0000
  C   C2043     1.0  0.39176  0.53547  0.12927  1.0000
  C   C2044     1.0  0.38701  0.52341  0.12463  1.0000
  H   H1645     1.0  0.00222  0.51672  0.98734  1.0000
  H   H1646     1.0  0.23540  0.65267  0.21356  1.0000
  H   H1647     1.0  0.31808  0.66163  0.19244  1.0000
  C   C2045     1.0  0.27905  0.71636  0.19389  1.0000
  S   S282      1.0  0.38522  0.71835  0.15120  1.0000
  C   C2046     1.0  0.34169  0.71854  0.15937  1.0000
  S   S283      1.0  0.18956  0.69736  0.21927  1.0000
  S   S284      1.0  0.22201  0.71546  0.18732  1.0000
  H   H1648     1.0  0.15049  0.67713  0.07469  1.0000
  C   C2047     1.0  0.32755  0.71531  0.11866  1.0000
  H   H1649     1.0  0.33306  0.49806  0.15063  1.0000
  C   C2048     1.0  0.25402  0.49302  0.16012  1.0000
  H   H1650     1.0  0.46745  0.58738  0.10056  1.0000
  C   C2049     1.0  0.36536  0.50804  0.08956  1.0000
  H   H1651     1.0  0.37107  0.52755  0.07252  1.0000
  C   C2050     1.0  0.00204  0.53651  0.01242  1.0000
  H   H1652     1.0  0.27582  0.69361  0.22343  1.0000
  C   C2051     1.0  0.13868  0.59805  0.22325  1.0000
  H   H1653     1.0  0.41051  0.53975  0.13812  1.0000
  H   H1654     1.0  0.38355  0.54878  0.12883  1.0000
  H   H1655     1.0  0.37527  0.52775  0.12054  1.0000
  H   H1656     1.0  0.16027  0.50154  0.14731  1.0000
  H   H1657     1.0  0.22719  0.61493  0.22748  1.0000
  H   H1658     1.0  0.26407  0.66414  0.23320  1.0000
  H   H1659     1.0  0.11737  0.53995  0.98593  1.0000
  H   H1660     1.0  0.25896  0.69468  0.08020  1.0000
  H   H1661     1.0  0.29099  0.64493  0.22325  1.0000
  C   C2052     1.0  0.00702  0.65990  0.02786  1.0000
  C   C2053     1.0  0.16499  0.60779  0.22307  1.0000
  C   C2054     1.0  0.14755  0.67428  0.18950  1.0000
  Fe  Fe148     1.0  0.19855  0.68815  0.17547  1.0000
  H   H1662     1.0  0.22776  0.68417  0.21472  1.0000
  H   H1663     1.0  0.31542  0.67050  0.11157  1.0000
  C   C2055     1.0  0.37481  0.52050  0.08141  1.0000
  H   H1664     1.0  0.29305  0.68571  0.14726  1.0000
  H   H1665     1.0  0.18177  0.68114  0.10085  1.0000
  C   C2056     1.0  0.14819  0.69394  0.20211  1.0000
  H   H1666     1.0  0.35005  0.69814  0.10927  1.0000
  H   H1667     1.0  0.34202  0.67951  0.21638  1.0000
  C   C2057     1.0  0.25490  0.62523  0.14423  1.0000
  C   C2058     1.0  0.23307  0.69671  0.13025  1.0000
  C   C2059     1.0  0.14588  0.69905  0.09772  1.0000
  H   H1668     1.0  0.37240  0.70680  0.11679  1.0000
  S   S285      1.0  0.18912  0.66654  0.17131  1.0000
  H   H1669     1.0  0.07864  0.58879  0.98458  1.0000
  C   C2060     1.0  0.24609  0.65725  0.13799  1.0000
  H   H1670     1.0  0.19115  0.71499  0.05064  1.0000
  C   C2061     1.0  0.24214  0.62547  0.15550  1.0000
  C   C2062     1.0  0.25689  0.64105  0.13552  1.0000
  C   C2063     1.0  0.29846  0.68756  0.23192  1.0000
  H   H1671     1.0  0.25766  0.49489  0.16815  1.0000
  C   C2064     1.0  0.05120  0.57329  0.01678  1.0000
  C   C2065     1.0  0.18821  0.69229  0.09736  1.0000
  C   C2066     1.0  0.20745  0.65606  0.05455  1.0000
  C   C2067     1.0  0.03413  0.57381  0.02447  1.0000
  S   S286      1.0  0.08234  0.50101  0.99967  1.0000
  H   H1672     1.0  0.23113  0.65644  0.11902  1.0000
  C   C2068     1.0  0.24151  0.67788  0.21130  1.0000
  H   H1673     1.0  0.16612  0.52127  0.15858  1.0000
  C   C2069     1.0  0.17327  0.68228  0.15081  1.0000
  H   H1674     1.0  0.46945  0.72371  0.18015  1.0000
  S   S287      1.0  0.01571  0.49420  0.01326  1.0000
  C   C2070     1.0  0.15520  0.62537  0.22189  1.0000
  H   H1675     1.0  0.03952  0.52136  0.12623  1.0000
  H   H1676     1.0  0.21502  0.64536  0.04987  1.0000
  C   C2071     1.0  0.25497  0.68712  0.10047  1.0000
  P   P67       1.0  0.24975  0.67736  0.12670  1.0000
  H   H1677     1.0  0.21067  0.68482  0.13277  1.0000
  H   H1678     1.0  0.28540  0.67028  0.10971  1.0000
  C   C2072     1.0  0.30478  0.68702  0.18277  1.0000
  C   C2073     1.0  0.18973  0.63592  0.21571  1.0000
  C   C2074     1.0  0.18653  0.70364  0.08562  1.0000
  C   C2075     1.0  0.21598  0.63130  0.19886  1.0000
  H   H1679     1.0  0.18779  0.71180  0.13647  1.0000
  P   P68       1.0  0.17363  0.69954  0.07619  1.0000
  C   C2076     1.0  0.23808  0.71235  0.12980  1.0000
  H   H1680     1.0  0.16861  0.68715  0.05546  1.0000
  C   C2077     1.0  0.32794  0.67740  0.16079  1.0000
  C   C2078     1.0  0.27175  0.67897  0.12715  1.0000
  H   H1681     1.0  0.31954  0.67780  0.13039  1.0000
  H   H1682     1.0  0.40499  0.51732  0.09860  1.0000
  C   C2079     1.0  0.31570  0.69361  0.15997  1.0000
  C   C2080     1.0  0.21381  0.65966  0.06375  1.0000
  S   S288      1.0  0.26401  0.68244  0.17404  1.0000
  H   H1683     1.0  0.09967  0.50571  0.11828  1.0000
  C   C2081     1.0  0.23485  0.66457  0.09892  1.0000
  C   C2082     1.0  0.46385  0.60163  0.09953  1.0000
  C   C2083     1.0  0.16698  0.71963  0.06500  1.0000
  C   C2084     1.0  0.46798  0.63080  0.08778  1.0000
  C   C2085     1.0  0.45461  0.63840  0.09692  1.0000
  C   C2086     1.0  0.44561  0.62764  0.10737  1.0000
  C   C2087     1.0  0.45049  0.60917  0.10869  1.0000
  P   P69       1.0  0.42866  0.63718  0.11942  1.0000
  C   C2088     1.0  0.41161  0.62423  0.12498  1.0000
  C   C2089     1.0  0.43843  0.63710  0.13215  1.0000
  C   C2090     1.0  0.42860  0.64714  0.14117  1.0000
  C   C2091     1.0  0.43614  0.64789  0.15078  1.0000
  C   C2092     1.0  0.45366  0.63876  0.15140  1.0000
  C   C2093     1.0  0.46355  0.62864  0.14250  1.0000
  C   C2094     1.0  0.45597  0.62776  0.13291  1.0000
  C   C2095     1.0  0.40525  0.61930  0.11626  1.0000
  C   C2096     1.0  0.39233  0.60902  0.12044  1.0000
  C   C2097     1.0  0.38593  0.60322  0.13334  1.0000
  C   C2098     1.0  0.39248  0.60768  0.14208  1.0000
  C   C2099     1.0  0.40514  0.61828  0.13795  1.0000
  C   C2100     1.0  0.41946  0.65995  0.11262  1.0000
  C   C2101     1.0  0.40475  0.66441  0.10689  1.0000
  C   C2102     1.0  0.39823  0.68203  0.10133  1.0000
  C   C2103     1.0  0.40626  0.69535  0.10152  1.0000
  C   C2104     1.0  0.42089  0.69103  0.10717  1.0000
  C   C2105     1.0  0.42754  0.67344  0.11263  1.0000
  H   H1684     1.0  0.09411  0.50299  0.06870  1.0000
  H   H1685     1.0  0.18181  0.66303  0.23109  1.0000
  C   C2106     1.0  0.02518  0.50143  0.07089  1.0000
  H   H1686     1.0  0.45135  0.65264  0.09577  1.0000
  H   H1687     1.0  0.44395  0.60061  0.11681  1.0000
  H   H1688     1.0  0.41512  0.65458  0.14068  1.0000
  H   H1689     1.0  0.42842  0.65577  0.15767  1.0000
  H   H1690     1.0  0.45957  0.63968  0.15873  1.0000
  C   C2107     1.0  0.20691  0.72720  0.13465  1.0000
  H   H1691     1.0  0.46393  0.61999  0.12606  1.0000
  H   H1692     1.0  0.41010  0.62359  0.10621  1.0000
  H   H1693     1.0  0.38692  0.60585  0.11369  1.0000
  H   H1694     1.0  0.37562  0.59559  0.13655  1.0000
  H   H1695     1.0  0.38724  0.60347  0.15209  1.0000
  H   H1696     1.0  0.40960  0.62189  0.14494  1.0000
  H   H1697     1.0  0.39802  0.65446  0.10685  1.0000
  H   H1698     1.0  0.38674  0.68538  0.09707  1.0000
  H   H1699     1.0  0.40101  0.70908  0.09748  1.0000
  H   H1700     1.0  0.42691  0.70142  0.10749  1.0000
  H   H1701     1.0  0.43896  0.67045  0.11691  1.0000
  H   H1702     1.0  0.24089  0.61322  0.16235  1.0000
  H   H1703     1.0  0.14042  0.70269  0.18414  1.0000
  C   C2108     1.0  0.22665  0.62320  0.20772  1.0000
  C   C2109     1.0  0.00408  0.53298  0.02493  1.0000
  C   C2110     1.0  0.12882  0.61550  0.22214  1.0000
  C   C2111     1.0  0.35854  0.49448  0.13761  1.0000
  H   H1704     1.0  0.42916  0.50929  0.13895  1.0000
  C   C2112     1.0  0.15055  0.73137  0.06805  1.0000
  H   H1705     1.0  0.16441  0.58069  0.22450  1.0000
  H   H1706     1.0  0.35447  0.50530  0.08691  1.0000
  H   H1707     1.0  0.29116  0.73473  0.22737  1.0000
  H   H1708     1.0  0.01339  0.53399  0.00485  1.0000
  C   C2113     1.0  0.15463  0.67939  0.21105  1.0000
  C   C2114     1.0  0.21892  0.62132  0.22061  1.0000
  H   H1709     1.0  0.00867  0.65260  0.01063  1.0000
  H   H1710     1.0  0.17902  0.60451  0.22337  1.0000
  H   H1711     1.0  0.07737  0.63111  0.98765  1.0000
  H   H1712     1.0  0.37178  0.73322  0.20239  1.0000
  H   H1713     1.0  0.02549  0.49548  0.08070  1.0000
  H   H1714     1.0  0.34952  0.71236  0.15165  1.0000
  H   H1715     1.0  0.00938  0.59096  0.05866  1.0000
  H   H1716     1.0  0.21272  0.73117  0.08505  1.0000
  C   C2115     1.0  0.32189  0.72746  0.12651  1.0000
  H   H1717     1.0  0.15186  0.70758  0.10046  1.0000
  H   H1718     1.0  0.21476  0.71147  0.10603  1.0000
  C   C2116     1.0  0.33490  0.71779  0.18173  1.0000
  H   H1719     1.0  0.46591  0.73696  0.14430  1.0000
  H   H1720     1.0  0.06732  0.50003  0.11967  1.0000
  C   C2117     1.0  0.15674  0.59420  0.22373  1.0000
  C   C2118     1.0  0.04846  0.49376  0.00006  1.0000
  S   S289      1.0  0.07171  0.49349  0.03026  1.0000
  S   S290      1.0  0.32281  0.49091  0.10046  1.0000
  C   C2119     1.0  0.03797  0.62075  0.98917  1.0000
  C   C2120     1.0  0.14450  0.49905  0.98754  1.0000
  H   H1721     1.0  0.33776  0.71188  0.19101  1.0000
  H   H1722     1.0  0.13235  0.58752  0.22366  1.0000
  C   C2121     1.0  0.23596  0.71170  0.23044  1.0000
  H   H1723     1.0  0.36272  0.72828  0.13037  1.0000
  C   C2122     1.0  0.05486  0.62471  0.98397  1.0000
  C   C2123     1.0  0.02806  0.72747  0.22741  1.0000
  S   S291      1.0  0.40353  0.73425  0.11531  1.0000
  H   H1724     1.0  0.19489  0.72631  0.07202  1.0000
  H   H1725     1.0  0.11485  0.61849  0.22170  1.0000
  H   H1726     1.0  0.03129  0.69917  0.23114  1.0000
  H   H1727     1.0  0.19684  0.73879  0.13676  1.0000
  C   C2124     1.0  0.43385  0.73917  0.20098  1.0000
  H   H1728     1.0  0.46156  0.73957  0.19841  1.0000
  P   P70       1.0  0.39051  0.49059  0.11934  1.0000
  H   H1729     1.0  0.31460  0.73941  0.18783  1.0000
  H   H1730     1.0  0.00161  0.66652  0.04595  1.0000
  C   C2125     1.0  0.17323  0.73930  0.04445  1.0000
  C   C2126     1.0  0.11447  0.72847  0.28650  1.0000
  H   H1731     1.0  0.17267  0.65319  0.33389  1.0000
  Fe  Fe149     1.0  0.07813  0.60262  0.45113  1.0000
  S   S292      1.0  0.09237  0.58169  0.43986  1.0000
  S   S293      1.0  0.09487  0.61258  0.45973  1.0000
  Fe  Fe150     1.0  0.04401  0.60933  0.44184  1.0000
  S   S294      1.0  0.05573  0.58938  0.42981  1.0000
  S   S295      1.0  0.01594  0.62437  0.44126  1.0000
  Fe  Fe151     1.0  0.06648  0.57242  0.44649  1.0000
  H   H1732     1.0  0.17574  0.73063  0.35254  1.0000
  Fe  Fe152     1.0  0.08000  0.60081  0.42430  1.0000
  S   S296      1.0  0.09469  0.60735  0.40403  1.0000
  S   S297      1.0  0.05323  0.59185  0.45909  1.0000
  S   S298      1.0  0.06745  0.62227  0.43505  1.0000
  Fe  Fe153     1.0  0.06793  0.68640  0.35357  1.0000
  S   S299      1.0  0.07019  0.67300  0.33810  1.0000
  S   S300      1.0  0.05228  0.67639  0.37288  1.0000
  Fe  Fe154     1.0  0.08776  0.71423  0.33634  1.0000
  S   S301      1.0  0.09166  0.70321  0.31934  1.0000
  C   C2127     1.0  0.00737  0.59173  0.44809  1.0000
  Fe  Fe155     1.0  0.06331  0.70053  0.32670  1.0000
  S   S302      1.0  0.04490  0.70952  0.31315  1.0000
  Fe  Fe156     1.0  0.09835  0.67675  0.33204  1.0000
  S   S303      1.0  0.12029  0.65474  0.32558  1.0000
  S   S304      1.0  0.05859  0.71390  0.34270  1.0000
  S   S305      1.0  0.09690  0.68773  0.34855  1.0000
  Fe  Fe157     1.0  0.19329  0.70776  0.29013  1.0000
  H   H1733     1.0  0.07730  0.72772  0.36640  1.0000
  S   S306      1.0  0.19128  0.67939  0.29378  1.0000
  Fe  Fe158     1.0  0.22066  0.72925  0.28814  1.0000
  C   C2128     1.0  0.16625  0.72542  0.35010  1.0000
  S   S307      1.0  0.24887  0.72439  0.29100  1.0000
  H   H1734     1.0  0.32348  0.68166  0.23775  1.0000
  C   C2129     1.0  0.11808  0.53214  0.44406  1.0000
  C   C2130     1.0  0.12784  0.72689  0.30382  1.0000
  S   S308      1.0  0.19880  0.72000  0.30389  1.0000
  S   S309      1.0  0.21663  0.71493  0.27496  1.0000
  H   H1735     1.0  0.07862  0.54419  0.48061  1.0000
  H   H1736     1.0  0.31325  0.62594  0.23566  1.0000
  C   C2131     1.0  0.28657  0.72827  0.24772  1.0000
  C   C2132     1.0  0.19251  0.71975  0.24644  1.0000
  H   H1737     1.0  0.28536  0.72214  0.28994  1.0000
  H   H1738     1.0  0.08059  0.57718  0.40600  1.0000
  C   C2133     1.0  0.14001  0.66193  0.31716  1.0000
  C   C2134     1.0  0.14216  0.67879  0.31679  1.0000
  C   C2135     1.0  0.15797  0.68432  0.30970  1.0000
  C   C2136     1.0  0.17152  0.67300  0.30300  1.0000
  C   C2137     1.0  0.16947  0.65605  0.30362  1.0000
  C   C2138     1.0  0.15381  0.65051  0.31072  1.0000
  H   H1739     1.0  0.13170  0.68747  0.32204  1.0000
  H   H1740     1.0  0.15983  0.69722  0.30946  1.0000
  H   H1741     1.0  0.18004  0.64719  0.29857  1.0000
  H   H1742     1.0  0.15231  0.63739  0.31114  1.0000
  C   C2139     1.0  0.27371  0.65616  0.23879  1.0000
  H   H1743     1.0  0.00920  0.66353  0.35294  1.0000
  C   C2140     1.0  0.19505  0.73663  0.23987  1.0000
  H   H1744     1.0  0.08899  0.72794  0.25578  1.0000
  H   H1745     1.0  0.12651  0.63417  0.35736  1.0000
  H   H1746     1.0  0.09750  0.54531  0.45737  1.0000
  H   H1747     1.0  0.03396  0.67021  0.28664  1.0000
  H   H1748     1.0  0.01316  0.58947  0.38054  1.0000
  C   C2141     1.0  0.02375  0.66584  0.32377  1.0000
  C   C2142     1.0  0.03570  0.67697  0.32126  1.0000
  C   C2143     1.0  0.03072  0.69498  0.31590  1.0000
  C   C2144     1.0  0.00216  0.69057  0.31514  1.0000
  C   C2145     1.0  0.17068  0.65892  0.23830  1.0000
  H   H1749     1.0  0.02748  0.65199  0.32815  1.0000
  H   H1750     1.0  0.04872  0.67153  0.32341  1.0000
  H   H1751     1.0  0.13364  0.71925  0.31180  1.0000
  H   H1752     1.0  0.12577  0.70419  0.29847  1.0000
  C   C2146     1.0  0.27853  0.73455  0.25877  1.0000
  H   H1753     1.0  0.05703  0.49262  0.44189  1.0000
  C   C2147     1.0  0.12783  0.53514  0.47818  1.0000
  H   H1754     1.0  0.14517  0.55605  0.44850  1.0000
  H   H1755     1.0  0.02067  0.58631  0.44993  1.0000
  C   C2148     1.0  0.08265  0.62620  0.39526  1.0000
  C   C2149     1.0  0.09072  0.63360  0.38294  1.0000
  C   C2150     1.0  0.08138  0.64888  0.37593  1.0000
  C   C2151     1.0  0.06398  0.65686  0.38126  1.0000
  C   C2152     1.0  0.05580  0.64926  0.39347  1.0000
  C   C2153     1.0  0.06510  0.63394  0.40044  1.0000
  H   H1756     1.0  0.10426  0.62759  0.37891  1.0000
  H   H1757     1.0  0.08770  0.65457  0.36646  1.0000
  H   H1758     1.0  0.04232  0.65532  0.39761  1.0000
  H   H1759     1.0  0.05867  0.62816  0.40986  1.0000
  H   H1760     1.0  0.13278  0.70662  0.34088  1.0000
  C   C2154     1.0  0.13644  0.55402  0.45777  1.0000
  C   C2155     1.0  0.10556  0.62182  0.47726  1.0000
  C   C2156     1.0  0.09317  0.61397  0.47535  1.0000
  H   H1761     1.0  0.02989  0.51908  0.38609  1.0000
  C   C2157     1.0  0.14818  0.68087  0.40076  1.0000
  H   H1762     1.0  0.29031  0.68875  0.24118  1.0000
  H   H1763     1.0  0.11543  0.62679  0.46932  1.0000
  H   H1764     1.0  0.04972  0.51335  0.45616  1.0000
  H   H1765     1.0  0.15322  0.63159  0.33993  1.0000
  C   C2158     1.0  0.01407  0.70164  0.31267  1.0000
  S   S310      1.0  0.17339  0.73144  0.28262  1.0000
  H   H1766     1.0  0.24777  0.63486  0.25951  1.0000
  H   H1767     1.0  0.00572  0.50278  0.42661  1.0000
  H   H1768     1.0  0.07372  0.67205  0.30437  1.0000
  C   C2159     1.0  0.13096  0.65710  0.36135  1.0000
  C   C2160     1.0  0.10468  0.69566  0.28588  1.0000
  C   C2161     1.0  0.10208  0.66133  0.29968  1.0000
  H   H1769     1.0  0.12176  0.54428  0.43823  1.0000
  C   C2162     1.0  0.00375  0.67760  0.35177  1.0000
  C   C2163     1.0  0.15824  0.71223  0.35884  1.0000
  C   C2164     1.0  0.03400  0.64648  0.46186  1.0000
  C   C2165     1.0  0.07703  0.58264  0.37139  1.0000
  H   H1770     1.0  0.14882  0.66304  0.26815  1.0000
  H   H1771     1.0  0.16574  0.67710  0.34528  1.0000
  C   C2166     1.0  0.14628  0.72639  0.24588  1.0000
  H   H1772     1.0  0.06925  0.53191  0.39934  1.0000
  H   H1773     1.0  0.09028  0.52520  0.41438  1.0000
  C   C2167     1.0  0.07717  0.53443  0.43156  1.0000
  S   S311      1.0  0.06128  0.54487  0.45415  1.0000
  C   C2168     1.0  0.05853  0.51598  0.44701  1.0000
  C   C2169     1.0  0.11298  0.69402  0.37208  1.0000
  H   H1774     1.0  0.02277  0.57741  0.42517  1.0000
  H   H1775     1.0  0.12950  0.69874  0.38998  1.0000
  C   C2170     1.0  0.23224  0.66113  0.26136  1.0000
  C   C2171     1.0  0.24723  0.69244  0.24863  1.0000
  H   H1776     1.0  0.28137  0.64482  0.26859  1.0000
  H   H1777     1.0  0.11197  0.69616  0.25927  1.0000
  C   C2172     1.0  0.12012  0.68211  0.28645  1.0000
  H   H1778     1.0  0.14676  0.73018  0.32569  1.0000
  H   H1779     1.0  0.04719  0.55666  0.47899  1.0000
  H   H1780     1.0  0.13323  0.68492  0.28199  1.0000
  C   C2173     1.0  0.10606  0.55959  0.40703  1.0000
  H   H1781     1.0  0.02706  0.68336  0.35462  1.0000
  H   H1782     1.0  0.23085  0.67247  0.30421  1.0000
  H   H1783     1.0  0.11912  0.65793  0.36880  1.0000
  C   C2174     1.0  0.05747  0.55279  0.38519  1.0000
  C   C2175     1.0  0.04459  0.55757  0.37778  1.0000
  C   C2176     1.0  0.20236  0.64615  0.26655  1.0000
  C   C2177     1.0  0.16907  0.65782  0.39093  1.0000
  C   C2178     1.0  0.02915  0.58396  0.41594  1.0000
  H   H1784     1.0  0.07829  0.67832  0.39351  1.0000
  C   C2179     1.0  0.16143  0.66419  0.38031  1.0000
  H   H1785     1.0  0.02475  0.54918  0.37236  1.0000
  H   H1786     1.0  0.12033  0.58052  0.45474  1.0000
  H   H1787     1.0  0.02711  0.70004  0.27313  1.0000
  C   C2180     1.0  0.00665  0.66736  0.29219  1.0000
  C   C2181     1.0  0.12149  0.70468  0.25561  1.0000
  H   H1788     1.0  0.16677  0.65754  0.37250  1.0000
  C   C2182     1.0  0.01554  0.65299  0.46311  1.0000
  H   H1789     1.0  0.15608  0.73462  0.24216  1.0000
  Fe  Fe159     1.0  0.19723  0.73962  0.26848  1.0000
  H   H1790     1.0  0.00296  0.52575  0.34857  1.0000
  C   C2183     1.0  0.00717  0.70712  0.35025  1.0000
  H   H1791     1.0  0.10822  0.56532  0.41399  1.0000
  C   C2184     1.0  0.08532  0.68743  0.38615  1.0000
  P   P71       1.0  0.25126  0.67072  0.25891  1.0000
  H   H1792     1.0  0.19470  0.62575  0.23461  1.0000
  C   C2185     1.0  0.10330  0.71055  0.36674  1.0000
  C   C2186     1.0  0.07262  0.73785  0.28489  1.0000
  C   C2187     1.0  0.15203  0.65906  0.25922  1.0000
  C   C2188     1.0  0.24673  0.72396  0.24344  1.0000
  C   C2189     1.0  0.03481  0.54540  0.37798  1.0000
  S   S312      1.0  0.07950  0.49307  0.41656  1.0000
  H   H1793     1.0  0.13075  0.65472  0.29407  1.0000
  H   H1794     1.0  0.18007  0.64635  0.39126  1.0000
  C   C2190     1.0  0.10388  0.68275  0.38211  1.0000
  C   C2191     1.0  0.12314  0.71846  0.29629  1.0000
  H   H1795     1.0  0.22844  0.66661  0.28466  1.0000
  H   H1796     1.0  0.04323  0.65291  0.45417  1.0000
  H   H1797     1.0  0.05232  0.51065  0.39943  1.0000
  H   H1798     1.0  0.25751  0.68207  0.30508  1.0000
  H   H1799     1.0  0.29434  0.71484  0.24823  1.0000
  C   C2192     1.0  0.21961  0.63581  0.26379  1.0000
  C   C2193     1.0  0.11879  0.66499  0.29326  1.0000
  C   C2194     1.0  0.00727  0.73509  0.28389  1.0000
  C   C2195     1.0  0.00357  0.64428  0.47280  1.0000
  C   C2196     1.0  0.25678  0.67893  0.29650  1.0000
  C   C2197     1.0  0.19106  0.70778  0.23997  1.0000
  C   C2198     1.0  0.08473  0.71523  0.37087  1.0000
  C   C2199     1.0  0.14177  0.66956  0.35794  1.0000
  H   H1800     1.0  0.10118  0.64828  0.30546  1.0000
  C   C2200     1.0  0.01414  0.62641  0.36858  1.0000
  C   C2201     1.0  0.21488  0.67149  0.26391  1.0000
  H   H1801     1.0  0.01071  0.66468  0.45645  1.0000
  C   C2202     1.0  0.04063  0.63150  0.47039  1.0000
  C   C2203     1.0  0.14053  0.68729  0.39015  1.0000
  C   C2204     1.0  0.08739  0.55931  0.39331  1.0000
  C   C2205     1.0  0.10048  0.54553  0.38870  1.0000
  C   C2206     1.0  0.11612  0.53862  0.39341  1.0000
  C   C2207     1.0  0.11891  0.54567  0.40257  1.0000
  C   C2208     1.0  0.24174  0.67363  0.29600  1.0000
  C   C2209     1.0  0.09030  0.56631  0.40248  1.0000
  H   H1802     1.0  0.14977  0.52688  0.46341  1.0000
  C   C2210     1.0  0.08494  0.59628  0.37132  1.0000
  C   C2211     1.0  0.09246  0.60647  0.35993  1.0000
  C   C2212     1.0  0.09266  0.60279  0.34849  1.0000
  C   C2213     1.0  0.08531  0.58890  0.34845  1.0000
  H   H1803     1.0  0.02958  0.62514  0.39758  1.0000
  H   H1804     1.0  0.05216  0.60799  0.38332  1.0000
  H   H1805     1.0  0.09859  0.54012  0.38148  1.0000
  H   H1806     1.0  0.12603  0.52778  0.38998  1.0000
  H   H1807     1.0  0.22143  0.62194  0.26386  1.0000
  C   C2214     1.0  0.15030  0.64189  0.34514  1.0000
  H   H1808     1.0  0.08532  0.59905  0.38014  1.0000
  H   H1809     1.0  0.09827  0.61714  0.36000  1.0000
  H   H1810     1.0  0.09866  0.61065  0.33968  1.0000
  H   H1811     1.0  0.19082  0.64031  0.26885  1.0000
  C   C2215     1.0  0.13519  0.64340  0.35493  1.0000
  C   C2216     1.0  0.10738  0.50096  0.45876  1.0000
  C   C2217     1.0  0.12162  0.50036  0.44815  1.0000
  H   H1812     1.0  0.27992  0.72593  0.26786  1.0000
  C   C2218     1.0  0.01388  0.68882  0.35251  1.0000
  H   H1813     1.0  0.13101  0.54038  0.40621  1.0000
  H   H1814     1.0  0.01393  0.56344  0.39844  1.0000
  H   H1815     1.0  0.13081  0.64497  0.26442  1.0000
  C   C2219     1.0  0.20003  0.66397  0.26664  1.0000
  S   S313      1.0  0.10046  0.73725  0.33342  1.0000
  H   H1816     1.0  0.07602  0.73560  0.29398  1.0000
  H   H1817     1.0  0.01458  0.72166  0.28638  1.0000
  C   C2220     1.0  0.13489  0.72710  0.25770  1.0000
  C   C2221     1.0  0.16122  0.65410  0.34172  1.0000
  H   H1818     1.0  0.11104  0.67014  0.38666  1.0000
  C   C2222     1.0  0.16632  0.66415  0.24979  1.0000
  C   C2223     1.0  0.07571  0.70357  0.38044  1.0000
  H   H1819     1.0  0.16820  0.66103  0.40946  1.0000
  C   C2224     1.0  0.07764  0.57875  0.35985  1.0000
  H   H1820     1.0  0.18923  0.69475  0.24511  1.0000
  H   H1821     1.0  0.23567  0.68411  0.23651  1.0000
  C   C2225     1.0  0.03289  0.61086  0.40037  1.0000
  C   C2226     1.0  0.08126  0.52271  0.42341  1.0000
  H   H1822     1.0  0.17395  0.67231  0.25130  1.0000
  C   C2227     1.0  0.23453  0.64321  0.26128  1.0000
  C   C2228     1.0  0.00515  0.57603  0.39973  1.0000
  H   H1823     1.0  0.04663  0.55991  0.41153  1.0000
  C   C2229     1.0  0.04604  0.60101  0.39239  1.0000
  C   C2230     1.0  0.00480  0.59081  0.38968  1.0000
  H   H1824     1.0  0.25586  0.70615  0.25931  1.0000
  C   C2231     1.0  0.27111  0.65677  0.25150  1.0000
  H   H1825     1.0  0.07263  0.56769  0.35961  1.0000
  C   C2232     1.0  0.28347  0.64542  0.25860  1.0000
  H   H1826     1.0  0.01420  0.61000  0.41827  1.0000
  C   C2233     1.0  0.25081  0.70717  0.25113  1.0000
  H   H1827     1.0  0.18674  0.67191  0.26927  1.0000
  C   C2234     1.0  0.14207  0.71181  0.34359  1.0000
  H   H1828     1.0  0.06126  0.70688  0.38332  1.0000
  H   H1829     1.0  0.14298  0.68725  0.40872  1.0000
  C   C2235     1.0  0.01636  0.69326  0.27812  1.0000
  H   H1830     1.0  0.01308  0.60905  0.35725  1.0000
  C   C2236     1.0  0.14613  0.70528  0.35562  1.0000
  C   C2237     1.0  0.02432  0.60235  0.41207  1.0000
  C   C2238     1.0  0.15703  0.66783  0.34811  1.0000
  C   C2239     1.0  0.29867  0.63446  0.25288  1.0000
  C   C2240     1.0  0.11106  0.56528  0.47317  1.0000
  H   H1831     1.0  0.04180  0.57084  0.37211  1.0000
  P   P72       1.0  0.06814  0.56927  0.38633  1.0000
  C   C2241     1.0  0.00679  0.67277  0.32094  1.0000
  H   H1832     1.0  0.27975  0.67979  0.26624  1.0000
  H   H1833     1.0  0.16174  0.70736  0.36798  1.0000
  C   C2242     1.0  0.00760  0.72508  0.25219  1.0000
  H   H1834     1.0  0.13613  0.73594  0.26297  1.0000
  H   H1835     1.0  0.13737  0.51543  0.43237  1.0000
  C   C2243     1.0  0.02088  0.61702  0.35885  1.0000
  H   H1836     1.0  0.28198  0.68540  0.28618  1.0000
  C   C2244     1.0  0.16240  0.66610  0.40118  1.0000
  P   P73       1.0  0.13685  0.68717  0.36633  1.0000
  H   H1837     1.0  0.10981  0.71972  0.35914  1.0000
  C   C2245     1.0  0.11387  0.54906  0.48183  1.0000
  C   C2246     1.0  0.23947  0.69496  0.23831  1.0000
  C   C2247     1.0  0.16051  0.64887  0.23601  1.0000
  C   C2248     1.0  0.02034  0.67631  0.28566  1.0000
  H   H1838     1.0  0.10023  0.57611  0.47571  1.0000
  C   C2249     1.0  0.01527  0.70979  0.24724  1.0000
  C   C2250     1.0  0.26918  0.67777  0.27453  1.0000
  C   C2251     1.0  0.27056  0.68085  0.28580  1.0000
  H   H1839     1.0  0.07576  0.70197  0.29226  1.0000
  C   C2252     1.0  0.14694  0.67883  0.37992  1.0000
  P   P74       1.0  0.10669  0.71786  0.27747  1.0000
  C   C2253     1.0  0.12678  0.51592  0.44075  1.0000
  C   C2254     1.0  0.12216  0.71648  0.26254  1.0000
  C   C2255     1.0  0.13303  0.70389  0.24385  1.0000
  C   C2256     1.0  0.13906  0.53764  0.46619  1.0000
  C   C2257     1.0  0.05028  0.52368  0.39323  1.0000
  H   H1840     1.0  0.21278  0.68523  0.26432  1.0000
  C   C2258     1.0  0.25387  0.67288  0.27384  1.0000
  C   C2259     1.0  0.03764  0.52846  0.38572  1.0000
  H   H1841     1.0  0.02001  0.64406  0.37772  1.0000
  C   C2260     1.0  0.08665  0.67473  0.29914  1.0000
  C   C2261     1.0  0.09899  0.51726  0.46213  1.0000
  C   C2262     1.0  0.14607  0.64385  0.24551  1.0000
  C   C2263     1.0  0.06585  0.53103  0.44341  1.0000
  H   H1842     1.0  0.24843  0.73537  0.24591  1.0000
  H   H1843     1.0  0.05495  0.62643  0.46929  1.0000
  H   H1844     1.0  0.01722  0.73338  0.32717  1.0000
  C   C2264     1.0  0.07384  0.50768  0.42696  1.0000
  C   C2265     1.0  0.03762  0.61818  0.35088  1.0000
  C   C2266     1.0  0.04780  0.62862  0.35262  1.0000
  C   C2267     1.0  0.04140  0.63768  0.36242  1.0000
  C   C2268     1.0  0.02468  0.63659  0.37038  1.0000
  C   C2269     1.0  0.08494  0.73076  0.27501  1.0000
  C   C2270     1.0  0.10442  0.53274  0.45485  1.0000
  C   C2271     1.0  0.15003  0.72505  0.33492  1.0000
  C   C2272     1.0  0.24035  0.67048  0.28476  1.0000
  H   H1845     1.0  0.30823  0.62586  0.25838  1.0000
  C   C2273     1.0  0.06007  0.53579  0.39304  1.0000
  C   C2274     1.0  0.12242  0.56779  0.46125  1.0000
  C   C2275     1.0  0.06248  0.50435  0.43884  1.0000
  H   H1846     1.0  0.08787  0.51822  0.47013  1.0000
  C   C2276     1.0  0.08791  0.69182  0.29226  1.0000
  C   C2277     1.0  0.14192  0.64890  0.25709  1.0000
  H   H1847     1.0  0.08577  0.58585  0.33958  1.0000
  H   H1848     1.0  0.13798  0.63608  0.24406  1.0000
  H   H1849     1.0  0.04257  0.61122  0.34322  1.0000
  H   H1850     1.0  0.06059  0.62985  0.34631  1.0000
  H   H1851     1.0  0.04930  0.64579  0.36377  1.0000
  H   H1852     1.0  0.01529  0.71552  0.35086  1.0000
  H   H1853     1.0  0.19168  0.71591  0.25652  1.0000
  H   H1854     1.0  0.08299  0.54591  0.42882  1.0000
  C   C2278     1.0  0.05118  0.58254  0.39630  1.0000
  H   H1855     1.0  0.01300  0.69698  0.25277  1.0000
  C   C2279     1.0  0.04271  0.57410  0.40819  1.0000
  C   C2280     1.0  0.16222  0.73174  0.33814  1.0000
  C   C2281     1.0  0.00160  0.60998  0.44397  1.0000
  H   H1856     1.0  0.01013  0.71551  0.30866  1.0000
  C   C2282     1.0  0.27844  0.73570  0.29014  1.0000
  H   H1857     1.0  0.00193  0.50099  0.38731  1.0000
  H   H1858     1.0  0.00962  0.65439  0.29826  1.0000
  H   H1859     1.0  0.13255  0.69473  0.23853  1.0000
  C   C2283     1.0  0.30147  0.63444  0.24010  1.0000
  C   C2284     1.0  0.00650  0.49412  0.37962  1.0000
  C   C2285     1.0  0.07988  0.73336  0.26352  1.0000
  C   C2286     1.0  0.01034  0.62942  0.48151  1.0000
  C   C2287     1.0  0.14528  0.71487  0.23894  1.0000
  H   H1860     1.0  0.00047  0.56623  0.45293  1.0000
  C   C2288     1.0  0.02881  0.62298  0.48023  1.0000
  H   H1861     1.0  0.00119  0.54177  0.32672  1.0000
  C   C2289     1.0  0.02555  0.71100  0.23493  1.0000
  C   C2290     1.0  0.28472  0.73940  0.23601  1.0000
  Fe  Fe160     1.0  0.06430  0.57723  0.55156  1.0000
  S   S314      1.0  0.08510  0.59246  0.54994  1.0000
  S   S315      1.0  0.06853  0.54721  0.55791  1.0000
  Fe  Fe161     1.0  0.03682  0.61067  0.54477  1.0000
  S   S316      1.0  0.05507  0.62860  0.54242  1.0000
  S   S317      1.0  0.00820  0.62246  0.54360  1.0000
  Fe  Fe162     1.0  0.06304  0.61133  0.56012  1.0000
  S   S318      1.0  0.06151  0.62301  0.57687  1.0000
  S   S319      1.0  0.05645  0.59229  0.53323  1.0000
  S   S320      1.0  0.04302  0.59456  0.56327  1.0000
  H   H1862     1.0  0.03700  0.72171  0.63287  1.0000
  H   H1863     1.0  0.03012  0.56278  0.56400  1.0000
  C   C2291     1.0  0.05227  0.53323  0.53137  1.0000
  H   H1864     1.0  0.23362  0.51280  0.71983  1.0000
  C   C2292     1.0  0.31698  0.72536  0.72941  1.0000
  S   S321      1.0  0.13268  0.70110  0.68012  1.0000
  C   C2293     1.0  0.00647  0.53865  0.52327  1.0000
  C   C2294     1.0  0.01957  0.54023  0.56542  1.0000
  C   C2295     1.0  0.26601  0.70750  0.71712  1.0000
  H   H1865     1.0  0.25404  0.51864  0.73063  1.0000
  S   S322      1.0  0.16727  0.71680  0.69127  1.0000
  C   C2296     1.0  0.04059  0.49045  0.48764  1.0000
  Fe  Fe163     1.0  0.09022  0.69819  0.59724  1.0000
  S   S323      1.0  0.06831  0.69713  0.61470  1.0000
  S   S324      1.0  0.09942  0.67955  0.58347  1.0000
  H   H1866     1.0  0.06357  0.72250  0.65840  1.0000
  C   C2297     1.0  0.07679  0.55611  0.49609  1.0000
  C   C2298     1.0  0.16221  0.73688  0.58348  1.0000
  Fe  Fe164     1.0  0.08521  0.70724  0.62319  1.0000
  S   S325      1.0  0.08677  0.69481  0.64373  1.0000
  H   H1867     1.0  0.06891  0.52101  0.59507  1.0000
  H   H1868     1.0  0.00250  0.73849  0.56469  1.0000
  S   S326      1.0  0.10823  0.70590  0.60636  1.0000
  C   C2299     1.0  0.06346  0.50921  0.59913  1.0000
  C   C2300     1.0  0.00667  0.66157  0.51636  1.0000
  C   C2301     1.0  0.20706  0.72820  0.63488  1.0000
  C   C2302     1.0  0.02789  0.70605  0.60192  1.0000
  C   C2303     1.0  0.01878  0.72322  0.60315  1.0000
  C   C2304     1.0  0.11552  0.57080  0.50181  1.0000
  C   C2305     1.0  0.01769  0.66585  0.52240  1.0000
  C   C2306     1.0  0.12044  0.49678  0.51582  1.0000
  H   H1869     1.0  0.04216  0.70216  0.60115  1.0000
  C   C2307     1.0  0.25147  0.70645  0.72748  1.0000
  H   H1870     1.0  0.17132  0.71506  0.71583  1.0000
  C   C2308     1.0  0.36327  0.69337  0.73202  1.0000
  C   C2309     1.0  0.02598  0.56593  0.59429  1.0000
  C   C2310     1.0  0.04634  0.70450  0.57024  1.0000
  H   H1871     1.0  0.04830  0.72105  0.52879  1.0000
  H   H1872     1.0  0.02726  0.57613  0.49322  1.0000
  H   H1873     1.0  0.27616  0.67118  0.66911  1.0000
  C   C2311     1.0  0.13967  0.67731  0.62971  1.0000
  H   H1874     1.0  0.02751  0.53158  0.57203  1.0000
  H   H1875     1.0  0.02904  0.53878  0.59360  1.0000
  H   H1876     1.0  0.23039  0.70787  0.70163  1.0000
  H   H1877     1.0  0.14466  0.69827  0.61364  1.0000
  S   S327      1.0  0.07940  0.72647  0.58867  1.0000
  C   C2312     1.0  0.08975  0.51383  0.50615  1.0000
  Fe  Fe165     1.0  0.07542  0.60878  0.53238  1.0000
  C   C2313     1.0  0.11917  0.70114  0.66988  1.0000
  C   C2314     1.0  0.11688  0.71435  0.65898  1.0000
  C   C2315     1.0  0.10708  0.71269  0.65072  1.0000
  C   C2316     1.0  0.09937  0.69798  0.65344  1.0000
  C   C2317     1.0  0.10114  0.68526  0.66459  1.0000
  C   C2318     1.0  0.11102  0.68677  0.67267  1.0000
  H   H1878     1.0  0.07095  0.60123  0.48433  1.0000
  C   C2319     1.0  0.05227  0.55958  0.48603  1.0000
  H   H1879     1.0  0.09511  0.67395  0.66688  1.0000
  H   H1880     1.0  0.11259  0.67652  0.68106  1.0000
  C   C2320     1.0  0.07115  0.64005  0.57780  1.0000
  C   C2321     1.0  0.08597  0.64502  0.56885  1.0000
  C   C2322     1.0  0.09421  0.65736  0.57063  1.0000
  C   C2323     1.0  0.08760  0.66514  0.58124  1.0000
  C   C2324     1.0  0.07229  0.66076  0.58990  1.0000
  C   C2325     1.0  0.06423  0.64818  0.58823  1.0000
  H   H1881     1.0  0.09150  0.63887  0.56081  1.0000
  H   H1882     1.0  0.10602  0.66064  0.56387  1.0000
  H   H1883     1.0  0.06698  0.66664  0.59807  1.0000
  H   H1884     1.0  0.05277  0.64448  0.59521  1.0000
  C   C2326     1.0  0.08045  0.60750  0.48572  1.0000
  C   C2327     1.0  0.03063  0.69877  0.57194  1.0000
  C   C2328     1.0  0.00887  0.60693  0.52441  1.0000
  C   C2329     1.0  0.17895  0.70902  0.60034  1.0000
  H   H1885     1.0  0.23784  0.71197  0.72626  1.0000
  C   C2330     1.0  0.14591  0.69271  0.62334  1.0000
  H   H1886     1.0  0.00805  0.59401  0.51015  1.0000
  H   H1887     1.0  0.02313  0.60246  0.52368  1.0000
  C   C2331     1.0  0.04767  0.57429  0.50306  1.0000
  H   H1888     1.0  0.01695  0.53183  0.52841  1.0000
  C   C2332     1.0  0.05686  0.54321  0.53800  1.0000
  C   C2333     1.0  0.06257  0.53507  0.54932  1.0000
  C   C2334     1.0  0.06333  0.51686  0.55404  1.0000
  H   H1889     1.0  0.05600  0.55718  0.53431  1.0000
  H   H1890     1.0  0.06757  0.51044  0.56282  1.0000
  C   C2335     1.0  0.01088  0.54306  0.51010  1.0000
  H   H1891     1.0  0.03906  0.58267  0.50933  1.0000
  C   C2336     1.0  0.04222  0.49373  0.61479  1.0000
  H   H1892     1.0  0.02577  0.68072  0.60026  1.0000
  C   C2337     1.0  0.27822  0.68676  0.69377  1.0000
  C   C2338     1.0  0.05712  0.73533  0.65358  1.0000
  C   C2339     1.0  0.18340  0.70901  0.58746  1.0000
  C   C2340     1.0  0.04336  0.64696  0.51152  1.0000
  H   H1893     1.0  0.05875  0.67003  0.55355  1.0000
  C   C2341     1.0  0.11476  0.57418  0.52266  1.0000
  H   H1894     1.0  0.01072  0.64741  0.60120  1.0000
  S   S328      1.0  0.21323  0.72534  0.66735  1.0000
  H   H1895     1.0  0.04799  0.53963  0.52259  1.0000
  C   C2342     1.0  0.04646  0.72253  0.56617  1.0000
  H   H1896     1.0  0.05839  0.69497  0.57225  1.0000
  C   C2343     1.0  0.03620  0.65875  0.51964  1.0000
  C   C2344     1.0  0.27392  0.68031  0.67517  1.0000
  C   C2345     1.0  0.01490  0.72913  0.56602  1.0000
  H   H1897     1.0  0.19453  0.69907  0.72821  1.0000
  H   H1898     1.0  0.01357  0.58227  0.54785  1.0000
  H   H1899     1.0  0.10541  0.72267  0.64231  1.0000
  S   S329      1.0  0.16491  0.73502  0.66202  1.0000
  C   C2346     1.0  0.10604  0.55723  0.50719  1.0000
  C   C2347     1.0  0.13978  0.73834  0.62599  1.0000
  C   C2348     1.0  0.23957  0.73068  0.70202  1.0000
  C   C2349     1.0  0.19007  0.70923  0.63217  1.0000
  H   H1900     1.0  0.12689  0.58990  0.50537  1.0000
  H   H1901     1.0  0.03048  0.68483  0.57530  1.0000
  H   H1902     1.0  0.00131  0.62269  0.48920  1.0000
  H   H1903     1.0  0.00098  0.55593  0.49311  1.0000
  H   H1904     1.0  0.19945  0.72404  0.70136  1.0000
  C   C2350     1.0  0.01628  0.63669  0.57309  1.0000
  C   C2351     1.0  0.10081  0.55238  0.52040  1.0000
  P   P75       1.0  0.26256  0.71902  0.70145  1.0000
  C   C2352     1.0  0.07028  0.49457  0.59351  1.0000
  C   C2353     1.0  0.05083  0.67959  0.54720  1.0000
  S   S330      1.0  0.09388  0.61926  0.51460  1.0000
  H   H1905     1.0  0.09311  0.54223  0.52478  1.0000
  H   H1906     1.0  0.01189  0.70110  0.50677  1.0000
  C   C2354     1.0  0.18655  0.71187  0.72972  1.0000
  C   C2355     1.0  0.15336  0.69416  0.64242  1.0000
  C   C2356     1.0  0.00825  0.53369  0.56117  1.0000
  C   C2357     1.0  0.02610  0.68754  0.53651  1.0000
  C   C2358     1.0  0.10535  0.62337  0.48932  1.0000
  C   C2359     1.0  0.32655  0.73018  0.71705  1.0000
  C   C2360     1.0  0.04096  0.73729  0.65013  1.0000
  C   C2361     1.0  0.27645  0.73513  0.69474  1.0000
  H   H1907     1.0  0.07017  0.57023  0.51118  1.0000
  S   S331      1.0  0.03021  0.73843  0.60416  1.0000
  C   C2362     1.0  0.00876  0.64136  0.59435  1.0000
  H   H1908     1.0  0.13365  0.67120  0.62494  1.0000
  H   H1909     1.0  0.10734  0.71468  0.71940  1.0000
  H   H1910     1.0  0.28383  0.68221  0.70209  1.0000
  C   C2363     1.0  0.15787  0.73703  0.59633  1.0000
  C   C2364     1.0  0.04106  0.57055  0.49403  1.0000
  H   H1911     1.0  0.02464  0.53938  0.50519  1.0000
  H   H1912     1.0  0.05880  0.72658  0.56501  1.0000
  H   H1913     1.0  0.06634  0.69926  0.54334  1.0000
  C   C2365     1.0  0.03037  0.70414  0.53081  1.0000
  H   H1914     1.0  0.07051  0.60412  0.50595  1.0000
  C   C2366     1.0  0.01385  0.64977  0.50824  1.0000
  H   H1915     1.0  0.12476  0.73309  0.61451  1.0000
  H   H1916     1.0  0.29973  0.68606  0.73278  1.0000
  C   C2367     1.0  0.03637  0.67539  0.54478  1.0000
  P   P76       1.0  0.09970  0.54652  0.49747  1.0000
  P   P77       1.0  0.15955  0.72188  0.62168  1.0000
  H   H1917     1.0  0.00740  0.51996  0.56474  1.0000
  H   H1918     1.0  0.04437  0.52010  0.61419  1.0000
  C   C2368     1.0  0.02120  0.55781  0.56078  1.0000
  C   C2369     1.0  0.13393  0.69847  0.71791  1.0000
  C   C2370     1.0  0.10515  0.56083  0.52809  1.0000
  C   C2371     1.0  0.05312  0.51505  0.53606  1.0000
  H   H1919     1.0  0.03397  0.61132  0.48682  1.0000
  H   H1920     1.0  0.25719  0.70131  0.66428  1.0000
  H   H1921     1.0  0.04015  0.56479  0.59343  1.0000
  C   C2372     1.0  0.10262  0.52336  0.50502  1.0000
  H   H1922     1.0  0.35974  0.70259  0.72362  1.0000
  C   C2373     1.0  0.17493  0.72287  0.57904  1.0000
  C   C2374     1.0  0.05844  0.50696  0.54748  1.0000
  H   H1923     1.0  0.19316  0.69807  0.58403  1.0000
  H   H1924     1.0  0.03778  0.63299  0.49982  1.0000
  S   S332      1.0  0.07289  0.73593  0.61655  1.0000
  C   C2375     1.0  0.20904  0.73079  0.70209  1.0000
  Fe  Fe166     1.0  0.05838  0.72578  0.60641  1.0000
  C   C2376     1.0  0.03218  0.64236  0.50591  1.0000
  H   H1925     1.0  0.03490  0.72596  0.65277  1.0000
  C   C2377     1.0  0.28139  0.67507  0.68584  1.0000
  C   C2378     1.0  0.01191  0.56877  0.55164  1.0000
  H   H1926     1.0  0.05760  0.64124  0.50970  1.0000
  H   H1927     1.0  0.12797  0.52194  0.50930  1.0000
  C   C2379     1.0  0.23324  0.50691  0.72973  1.0000
  H   H1928     1.0  0.02410  0.63878  0.56356  1.0000
  H   H1929     1.0  0.15759  0.70105  0.64773  1.0000
  H   H1930     1.0  0.21261  0.49334  0.73156  1.0000
  H   H1931     1.0  0.04527  0.66208  0.52374  1.0000
  Fe  Fe167     1.0  0.09496  0.73425  0.59934  1.0000
  C   C2380     1.0  0.06543  0.56711  0.50410  1.0000
  H   H1932     1.0  0.32278  0.72773  0.70925  1.0000
  Fe  Fe168     1.0  0.14710  0.72230  0.67916  1.0000
  H   H1933     1.0  0.03336  0.66253  0.54918  1.0000
  H   H1934     1.0  0.00295  0.61947  0.56959  1.0000
  H   H1935     1.0  0.14760  0.67335  0.65860  1.0000
  H   H1936     1.0  0.12298  0.72556  0.65681  1.0000
  C   C2381     1.0  0.22673  0.72173  0.70201  1.0000
  H   H1937     1.0  0.07752  0.52016  0.50281  1.0000
  C   C2382     1.0  0.14804  0.68996  0.72405  1.0000
  C   C2383     1.0  0.00034  0.69928  0.60124  1.0000
  C   C2384     1.0  0.01980  0.70536  0.63304  1.0000
  H   H1938     1.0  0.02268  0.71375  0.52442  1.0000
  H   H1939     1.0  0.28945  0.66183  0.68805  1.0000
  H   H1940     1.0  0.11507  0.62948  0.49061  1.0000
  H   H1941     1.0  0.13521  0.69778  0.70821  1.0000
  P   P78       1.0  0.00825  0.68118  0.53291  1.0000
  H   H1942     1.0  0.29487  0.70086  0.71129  1.0000
  C   C2385     1.0  0.28628  0.69187  0.73130  1.0000
  H   H1943     1.0  0.25182  0.72204  0.67798  1.0000
  H   H1944     1.0  0.18814  0.69602  0.63342  1.0000
  H   H1945     1.0  0.00338  0.50576  0.53536  1.0000
  C   C2386     1.0  0.15299  0.70116  0.62961  1.0000
  C   C2387     1.0  0.11796  0.51474  0.50996  1.0000
  H   H1946     1.0  0.24514  0.73052  0.64921  1.0000
  H   H1947     1.0  0.02797  0.65315  0.57922  1.0000
  H   H1948     1.0  0.21242  0.69990  0.64138  1.0000
  C   C2388     1.0  0.20406  0.71133  0.63653  1.0000
  H   H1949     1.0  0.04825  0.50087  0.50057  1.0000
  C   C2389     1.0  0.04486  0.70834  0.53327  1.0000
  C   C2390     1.0  0.01489  0.71108  0.56994  1.0000
  H   H1950     1.0  0.03081  0.69431  0.63119  1.0000
  C   C2391     1.0  0.09279  0.61703  0.49972  1.0000
  C   C2392     1.0  0.05511  0.69606  0.54142  1.0000
  S   S333      1.0  0.04731  0.50284  0.52751  1.0000
  C   C2393     1.0  0.26031  0.70905  0.68022  1.0000
  C   C2394     1.0  0.26767  0.70391  0.69101  1.0000
  H   H1951     1.0  0.11919  0.57534  0.49169  1.0000
  C   C2395     1.0  0.14753  0.67851  0.64866  1.0000
  C   C2396     1.0  0.02324  0.72092  0.63419  1.0000
  C   C2397     1.0  0.01859  0.69395  0.60132  1.0000
  C   C2398     1.0  0.26334  0.69728  0.67239  1.0000
  Fe  Fe169     1.0  0.18336  0.73255  0.67459  1.0000
  C   C2399     1.0  0.08025  0.60907  0.49795  1.0000
  C   C2400     1.0  0.01844  0.64472  0.58192  1.0000
  C   C2401     1.0  0.14055  0.67017  0.64235  1.0000
  H   H1952     1.0  0.13524  0.65852  0.64737  1.0000
  H   H1953     1.0  0.10075  0.55725  0.53826  1.0000
  C   C2402     1.0  0.12001  0.57908  0.50954  1.0000
  H   H1954     1.0  0.11771  0.58112  0.52857  1.0000
  C   C2403     1.0  0.01414  0.58230  0.59478  1.0000
  C   C2404     1.0  0.17853  0.72412  0.62655  1.0000
  C   C2405     1.0  0.34061  0.73872  0.71469  1.0000
  C   C2406     1.0  0.17344  0.72095  0.72265  1.0000
  C   C2407     1.0  0.01971  0.55129  0.59438  1.0000
  H   H1955     1.0  0.01948  0.59352  0.59433  1.0000
  C   C2408     1.0  0.16596  0.72291  0.60490  1.0000
  H   H1956     1.0  0.05862  0.49310  0.55125  1.0000
  H   H1957     1.0  0.18532  0.69802  0.60681  1.0000
  C   C2409     1.0  0.04956  0.50874  0.60983  1.0000
  H   H1958     1.0  0.13014  0.52235  0.48450  1.0000
  C   C2410     1.0  0.28346  0.70012  0.71914  1.0000
  H   H1959     1.0  0.16029  0.68272  0.71906  1.0000
  C   C2411     1.0  0.11819  0.70799  0.72424  1.0000
  C   C2412     1.0  0.00918  0.73562  0.63603  1.0000
  H   H1960     1.0  0.03126  0.49347  0.62298  1.0000
  C   C2413     1.0  0.16323  0.73760  0.72437  1.0000
  H   H1961     1.0  0.00254  0.70665  0.57185  1.0000
  H   H1962     1.0  0.27275  0.73966  0.67564  1.0000
  H   H1963     1.0  0.17804  0.72265  0.56910  1.0000
  C   C2414     1.0  0.03077  0.73499  0.56389  1.0000
  H   H1964     1.0  0.35508  0.67192  0.72876  1.0000
  C   C2415     1.0  0.07011  0.55252  0.48696  1.0000
  H   H1965     1.0  0.00069  0.68864  0.67252  1.0000
  C   C2416     1.0  0.00421  0.62563  0.57657  1.0000
  H   H1966     1.0  0.00172  0.68470  0.55917  1.0000
  H   H1967     1.0  0.21762  0.72983  0.63857  1.0000
  H   H1968     1.0  0.00513  0.64610  0.50398  1.0000
  C   C2417     1.0  0.09237  0.49588  0.51190  1.0000
  H   H1969     1.0  0.28136  0.73579  0.71261  1.0000
  C   C2418     1.0  0.00032  0.72827  0.60369  1.0000
  C   C2419     1.0  0.00245  0.70460  0.63315  1.0000
  H   H1970     1.0  0.08076  0.49555  0.58507  1.0000
  H   H1971     1.0  0.08016  0.49629  0.48985  1.0000
  C   C2420     1.0  0.05280  0.49522  0.49224  1.0000
  H   H1972     1.0  0.30556  0.71954  0.73107  1.0000
  H   H1973     1.0  0.02660  0.49240  0.49236  1.0000
  C   C2421     1.0  0.07087  0.49259  0.48617  1.0000
  C   C2422     1.0  0.00153  0.55295  0.59510  1.0000
  C   C2423     1.0  0.00040  0.60218  0.51679  1.0000
  C   C2424     1.0  0.00069  0.56226  0.54727  1.0000
  S   S334      1.0  0.04772  0.51808  0.91027  1.0000
  Fe  Fe170     1.0  0.04724  0.58588  0.94528  1.0000
  S   S335      1.0  0.05108  0.60434  0.92624  1.0000
  S   S336      1.0  0.05038  0.55648  0.95095  1.0000
  Fe  Fe171     1.0  0.03648  0.61478  0.95976  1.0000
  C   C2425     1.0  0.23281  0.49595  0.83259  1.0000
  Fe  Fe172     1.0  0.06435  0.61762  0.93510  1.0000
  S   S337      1.0  0.08933  0.62760  0.92432  1.0000
  C   C2426     1.0  0.00632  0.67708  0.97217  1.0000
  S   S338      1.0  0.06291  0.59753  0.95337  1.0000
  C   C2427     1.0  0.22794  0.50346  0.84323  1.0000
  S   S339      1.0  0.29080  0.50973  0.76820  1.0000
  C   C2428     1.0  0.04552  0.53014  0.87505  1.0000
  Fe  Fe173     1.0  0.15261  0.61951  0.83622  1.0000
  S   S340      1.0  0.15004  0.62600  0.85486  1.0000
  S   S341      1.0  0.13707  0.63739  0.82179  1.0000
  Fe  Fe174     1.0  0.17567  0.58294  0.84313  1.0000
  S   S342      1.0  0.17542  0.58659  0.86206  1.0000
  S   S343      1.0  0.18979  0.55587  0.83988  1.0000
  Fe  Fe175     1.0  0.14632  0.59825  0.86326  1.0000
  S   S344      1.0  0.12765  0.58672  0.88047  1.0000
  Fe  Fe176     1.0  0.17947  0.61362  0.85198  1.0000
  S   S345      1.0  0.19831  0.62471  0.85760  1.0000
  S   S346      1.0  0.14619  0.59272  0.84492  1.0000
  S   S347      1.0  0.18241  0.60914  0.83271  1.0000
  C   C2429     1.0  0.18278  0.59499  0.88775  1.0000
  S   S348      1.0  0.16294  0.53156  0.80098  1.0000
  C   C2430     1.0  0.05379  0.62659  0.88701  1.0000
  S   S349      1.0  0.19663  0.69507  0.78429  1.0000
  S   S350      1.0  0.14946  0.71548  0.80082  1.0000
  H   H1974     1.0  0.24854  0.57741  0.81187  1.0000
  Fe  Fe177     1.0  0.21664  0.70394  0.79034  1.0000
  S   S351      1.0  0.23554  0.68710  0.80243  1.0000
  C   C2431     1.0  0.07182  0.58996  0.88366  1.0000
  Fe  Fe178     1.0  0.37933  0.68205  0.82194  1.0000
  S   S352      1.0  0.40527  0.67188  0.80952  1.0000
  S   S353      1.0  0.35662  0.66726  0.82967  1.0000
  Fe  Fe179     1.0  0.38949  0.71759  0.81871  1.0000
  S   S354      1.0  0.41578  0.70993  0.80570  1.0000
  S   S355      1.0  0.20569  0.70745  0.74755  1.0000
  Fe  Fe180     1.0  0.40041  0.69892  0.79694  1.0000
  C   C2432     1.0  0.14124  0.67207  0.77648  1.0000
  Fe  Fe181     1.0  0.41810  0.68394  0.81961  1.0000
  S   S356      1.0  0.44320  0.66938  0.82709  1.0000
  S   S357      1.0  0.37381  0.70848  0.80878  1.0000
  S   S358      1.0  0.39235  0.69213  0.83327  1.0000
  Fe  Fe182     1.0  0.29961  0.60163  0.79903  1.0000
  S   S359      1.0  0.30605  0.61037  0.81429  1.0000
  S   S360      1.0  0.28539  0.61948  0.78382  1.0000
  Fe  Fe183     1.0  0.31545  0.56280  0.80817  1.0000
  S   S361      1.0  0.32352  0.56827  0.82419  1.0000
  S   S362      1.0  0.32038  0.53411  0.80650  1.0000
  Fe  Fe184     1.0  0.29643  0.58649  0.82702  1.0000
  S   S363      1.0  0.28023  0.58682  0.84678  1.0000
  Fe  Fe185     1.0  0.33249  0.59184  0.81035  1.0000
  S   S364      1.0  0.35808  0.60035  0.80901  1.0000
  S   S365      1.0  0.28765  0.57939  0.81221  1.0000
  S   S366      1.0  0.32701  0.58472  0.79393  1.0000
  H   H1975     1.0  0.19960  0.50757  0.79615  1.0000
  C   C2433     1.0  0.16590  0.51007  0.77315  1.0000
  C   C2434     1.0  0.46188  0.67936  0.82248  1.0000
  C   C2435     1.0  0.46308  0.69381  0.81230  1.0000
  C   C2436     1.0  0.47736  0.70235  0.80932  1.0000
  C   C2437     1.0  0.49066  0.69654  0.81645  1.0000
  C   C2438     1.0  0.48991  0.68162  0.82634  1.0000
  C   C2439     1.0  0.47556  0.67302  0.82932  1.0000
  H   H1976     1.0  0.45287  0.69866  0.80682  1.0000
  H   H1977     1.0  0.47792  0.71369  0.80154  1.0000
  H   H1978     1.0  0.04619  0.50228  0.88179  1.0000
  H   H1979     1.0  0.47480  0.66177  0.83718  1.0000
  H   H1980     1.0  0.26934  0.52678  0.85507  1.0000
  C   C2440     1.0  0.16311  0.68828  0.76237  1.0000
  C   C2441     1.0  0.35698  0.64893  0.82362  1.0000
  C   C2442     1.0  0.37211  0.64157  0.81541  1.0000
  C   C2443     1.0  0.37218  0.62679  0.81100  1.0000
  C   C2444     1.0  0.35710  0.61928  0.81459  1.0000
  C   C2445     1.0  0.34190  0.62671  0.82273  1.0000
  C   C2446     1.0  0.34189  0.64138  0.82729  1.0000
  H   H1981     1.0  0.38385  0.64710  0.81260  1.0000
  H   H1982     1.0  0.38399  0.62116  0.80477  1.0000
  H   H1983     1.0  0.33025  0.62094  0.82574  1.0000
  H   H1984     1.0  0.33015  0.64686  0.83369  1.0000
  C   C2447     1.0  0.24842  0.66814  0.79715  1.0000
  C   C2448     1.0  0.25818  0.65511  0.80519  1.0000
  C   C2449     1.0  0.26913  0.64004  0.80114  1.0000
  C   C2450     1.0  0.27066  0.63798  0.78898  1.0000
  C   C2451     1.0  0.26081  0.65103  0.78088  1.0000
  C   C2452     1.0  0.24958  0.66614  0.78499  1.0000
  H   H1985     1.0  0.25718  0.65656  0.81464  1.0000
  H   H1986     1.0  0.27599  0.62983  0.80760  1.0000
  H   H1987     1.0  0.26199  0.64950  0.77143  1.0000
  H   H1988     1.0  0.24215  0.67637  0.77873  1.0000
  C   C2453     1.0  0.14137  0.65874  0.81554  1.0000
  C   C2454     1.0  0.15723  0.66264  0.81601  1.0000
  C   C2455     1.0  0.16033  0.67983  0.81079  1.0000
  C   C2456     1.0  0.14722  0.69329  0.80562  1.0000
  C   C2457     1.0  0.13149  0.68927  0.80502  1.0000
  C   C2458     1.0  0.12871  0.67199  0.80978  1.0000
  H   H1989     1.0  0.16703  0.65241  0.82040  1.0000
  H   H1990     1.0  0.17260  0.68280  0.81110  1.0000
  H   H1991     1.0  0.12137  0.69957  0.80098  1.0000
  H   H1992     1.0  0.11653  0.66898  0.80927  1.0000
  C   C2459     1.0  0.22106  0.61430  0.85390  1.0000
  C   C2460     1.0  0.22717  0.60161  0.84641  1.0000
  C   C2461     1.0  0.24553  0.59366  0.84362  1.0000
  C   C2462     1.0  0.25767  0.59815  0.84853  1.0000
  C   C2463     1.0  0.25143  0.61072  0.85606  1.0000
  C   C2464     1.0  0.23325  0.61882  0.85867  1.0000
  H   H1993     1.0  0.21780  0.59802  0.84271  1.0000
  H   H1994     1.0  0.25024  0.58375  0.83795  1.0000
  H   H1995     1.0  0.26071  0.61417  0.85994  1.0000
  H   H1996     1.0  0.22862  0.62845  0.86456  1.0000
  C   C2465     1.0  0.18186  0.54939  0.82921  1.0000
  C   C2466     1.0  0.17401  0.56197  0.81987  1.0000
  C   C2467     1.0  0.16838  0.55648  0.81108  1.0000
  C   C2468     1.0  0.17023  0.53840  0.81185  1.0000
  C   C2469     1.0  0.17804  0.52588  0.82124  1.0000
  C   C2470     1.0  0.18407  0.53136  0.82980  1.0000
  H   H1997     1.0  0.17252  0.57589  0.81935  1.0000
  H   H1998     1.0  0.16244  0.56620  0.80378  1.0000
  H   H1999     1.0  0.17988  0.51196  0.82170  1.0000
  H   H2000     1.0  0.19048  0.52162  0.83686  1.0000
  C   C2471     1.0  0.29925  0.51623  0.77887  1.0000
  C   C2472     1.0  0.30629  0.50394  0.78871  1.0000
  C   C2473     1.0  0.31302  0.50959  0.79692  1.0000
  C   C2474     1.0  0.31226  0.52763  0.79566  1.0000
  C   C2475     1.0  0.30507  0.53997  0.78589  1.0000
  C   C2476     1.0  0.29878  0.53425  0.77748  1.0000
  C   C2477     1.0  0.05302  0.49358  0.85308  1.0000
  H   H2001     1.0  0.31873  0.49995  0.80434  1.0000
  H   H2002     1.0  0.30458  0.55388  0.78472  1.0000
  H   H2003     1.0  0.29359  0.54383  0.76979  1.0000
  H   H2004     1.0  0.21987  0.56771  0.82135  1.0000
  H   H2005     1.0  0.07652  0.67391  0.77024  1.0000
  C   C2478     1.0  0.19323  0.56012  0.90060  1.0000
  C   C2479     1.0  0.17522  0.56894  0.90290  1.0000
  H   H2006     1.0  0.09635  0.61010  0.86695  1.0000
  H   H2007     1.0  0.08575  0.49827  0.86516  1.0000
  C   C2480     1.0  0.12231  0.52380  0.97227  1.0000
  C   C2481     1.0  0.39551  0.60864  0.75435  1.0000
  C   C2482     1.0  0.24573  0.54348  0.84894  1.0000
  C   C2483     1.0  0.20611  0.56871  0.89173  1.0000
  C   C2484     1.0  0.11215  0.50688  0.90542  1.0000
  H   H2008     1.0  0.34325  0.64675  0.77638  1.0000
  C   C2485     1.0  0.10124  0.61596  0.91244  1.0000
  C   C2486     1.0  0.10030  0.59842  0.91391  1.0000
  C   C2487     1.0  0.10935  0.58936  0.90424  1.0000
  C   C2488     1.0  0.11862  0.59799  0.89283  1.0000
  C   C2489     1.0  0.11990  0.61544  0.89139  1.0000
  C   C2490     1.0  0.11136  0.62436  0.90128  1.0000
  H   H2009     1.0  0.09271  0.59178  0.92255  1.0000
  H   H2010     1.0  0.10902  0.57565  0.90556  1.0000
  H   H2011     1.0  0.12705  0.62218  0.88259  1.0000
  H   H2012     1.0  0.11187  0.63802  0.90008  1.0000
  C   C2491     1.0  0.04731  0.52903  0.92171  1.0000
  C   C2492     1.0  0.04770  0.51966  0.93407  1.0000
  C   C2493     1.0  0.04822  0.52841  0.94306  1.0000
  C   C2494     1.0  0.04837  0.54641  0.93971  1.0000
  C   C2495     1.0  0.04764  0.55586  0.92741  1.0000
  C   C2496     1.0  0.04724  0.54711  0.91836  1.0000
  H   H2013     1.0  0.02632  0.63773  0.88497  1.0000
  H   H2014     1.0  0.04908  0.52120  0.95253  1.0000
  H   H2015     1.0  0.04765  0.56979  0.92484  1.0000
  H   H2016     1.0  0.04708  0.55429  0.90874  1.0000
  C   C2497     1.0  0.39054  0.72339  0.75588  1.0000
  C   C2498     1.0  0.08140  0.70251  0.78574  1.0000
  H   H2017     1.0  0.04706  0.49108  0.96255  1.0000
  C   C2499     1.0  0.46450  0.64391  0.80420  1.0000
  H   H2018     1.0  0.06832  0.51384  0.84721  1.0000
  C   C2500     1.0  0.13173  0.50756  0.96902  1.0000
  C   C2501     1.0  0.47114  0.60726  0.81348  1.0000
  C   C2502     1.0  0.45350  0.61726  0.81551  1.0000
  C   C2503     1.0  0.45029  0.63559  0.81057  1.0000
  P   P79       1.0  0.43500  0.60671  0.82394  1.0000
  C   C2504     1.0  0.42546  0.60141  0.81297  1.0000
  C   C2505     1.0  0.44316  0.58651  0.83452  1.0000
  C   C2506     1.0  0.44384  0.58670  0.84679  1.0000
  C   C2507     1.0  0.23127  0.50634  0.90767  1.0000
  H   H2019     1.0  0.02086  0.65973  0.89778  1.0000
  C   C2508     1.0  0.45594  0.55487  0.83852  1.0000
  C   C2509     1.0  0.44940  0.57049  0.83040  1.0000
  C   C2510     1.0  0.43000  0.60845  0.79995  1.0000
  C   C2511     1.0  0.42247  0.60434  0.79155  1.0000
  C   C2512     1.0  0.41049  0.59305  0.79607  1.0000
  C   C2513     1.0  0.40605  0.58583  0.80898  1.0000
  C   C2514     1.0  0.41359  0.58987  0.81740  1.0000
  C   C2515     1.0  0.41841  0.62115  0.83334  1.0000
  C   C2516     1.0  0.40013  0.62115  0.83579  1.0000
  C   C2517     1.0  0.38751  0.63235  0.84308  1.0000
  C   C2518     1.0  0.39293  0.64389  0.84779  1.0000
  C   C2519     1.0  0.41108  0.64386  0.84554  1.0000
  C   C2520     1.0  0.42378  0.63241  0.83849  1.0000
  H   H2020     1.0  0.46190  0.65820  0.80096  1.0000
  C   C2521     1.0  0.00372  0.66000  0.97412  1.0000
  H   H2021     1.0  0.16872  0.50302  0.84848  1.0000
  H   H2022     1.0  0.23905  0.63710  0.73995  1.0000
  H   H2023     1.0  0.43684  0.64360  0.81199  1.0000
  H   H2024     1.0  0.43938  0.59887  0.85017  1.0000
  H   H2025     1.0  0.10421  0.71640  0.74147  1.0000
  H   H2026     1.0  0.27483  0.50508  0.82987  1.0000
  S   S367      1.0  0.13177  0.49985  0.80640  1.0000
  H   H2027     1.0  0.44932  0.57005  0.82091  1.0000
  H   H2028     1.0  0.43932  0.61714  0.79624  1.0000
  H   H2029     1.0  0.42577  0.61006  0.78155  1.0000
  H   H2030     1.0  0.40438  0.59009  0.78964  1.0000
  H   H2031     1.0  0.01063  0.65204  0.96715  1.0000
  H   H2032     1.0  0.35297  0.73460  0.83785  1.0000
  H   H2033     1.0  0.39535  0.61282  0.83200  1.0000
  H   H2034     1.0  0.37340  0.63247  0.84479  1.0000
  H   H2035     1.0  0.38302  0.65304  0.85300  1.0000
  H   H2036     1.0  0.41535  0.65296  0.84904  1.0000
  H   H2037     1.0  0.43778  0.63261  0.83691  1.0000
  P   P80       1.0  0.14255  0.51546  0.86963  1.0000
  C   C2522     1.0  0.13542  0.52817  0.85529  1.0000
  C   C2523     1.0  0.12368  0.51369  0.88275  1.0000
  C   C2524     1.0  0.10628  0.51694  0.88082  1.0000
  C   C2525     1.0  0.09189  0.51549  0.89115  1.0000
  H   H2038     1.0  0.32045  0.66131  0.75352  1.0000
  Fe  Fe186     1.0  0.20284  0.71468  0.76609  1.0000
  H   H2039     1.0  0.24995  0.54062  0.83960  1.0000
  C   C2526     1.0  0.13785  0.54557  0.85022  1.0000
  C   C2527     1.0  0.13344  0.55477  0.83863  1.0000
  C   C2528     1.0  0.12667  0.54670  0.83200  1.0000
  C   C2529     1.0  0.12394  0.52953  0.83708  1.0000
  C   C2530     1.0  0.12829  0.52029  0.84867  1.0000
  C   C2531     1.0  0.15729  0.52611  0.87317  1.0000
  C   C2532     1.0  0.17568  0.52284  0.86777  1.0000
  C   C2533     1.0  0.18683  0.53172  0.87016  1.0000
  C   C2534     1.0  0.17975  0.54380  0.87801  1.0000
  C   C2535     1.0  0.16145  0.54733  0.88328  1.0000
  C   C2536     1.0  0.15021  0.53872  0.88075  1.0000
  H   H2040     1.0  0.12768  0.67017  0.77999  1.0000
  H   H2041     1.0  0.00319  0.66277  0.94114  1.0000
  C   C2537     1.0  0.23208  0.49186  0.75533  1.0000
  C   C2538     1.0  0.00845  0.59925  0.88876  1.0000
  C   C2539     1.0  0.07025  0.64171  0.84203  1.0000
  C   C2540     1.0  0.14544  0.68602  0.76633  1.0000
  H   H2042     1.0  0.14358  0.55195  0.85498  1.0000
  H   H2043     1.0  0.13583  0.56796  0.83455  1.0000
  H   H2044     1.0  0.12392  0.55358  0.82280  1.0000
  C   C2541     1.0  0.13006  0.72373  0.75974  1.0000
  H   H2045     1.0  0.20079  0.52998  0.86541  1.0000
  H   H2046     1.0  0.18829  0.55106  0.87950  1.0000
  H   H2047     1.0  0.15579  0.55731  0.88889  1.0000
  H   H2048     1.0  0.13595  0.54234  0.88445  1.0000
  C   C2542     1.0  0.16590  0.60927  0.80008  1.0000
  C   C2543     1.0  0.15888  0.61338  0.78930  1.0000
  C   C2544     1.0  0.16956  0.61835  0.77739  1.0000
  C   C2545     1.0  0.18721  0.61938  0.77628  1.0000
  C   C2546     1.0  0.19429  0.61548  0.78710  1.0000
  C   C2547     1.0  0.18363  0.60999  0.79897  1.0000
  P   P81       1.0  0.21739  0.61577  0.78574  1.0000
  C   C2548     1.0  0.21991  0.62192  0.79934  1.0000
  C   C2549     1.0  0.23106  0.59407  0.78424  1.0000
  C   C2550     1.0  0.22334  0.57919  0.78787  1.0000
  C   C2551     1.0  0.23389  0.56257  0.78629  1.0000
  C   C2552     1.0  0.25222  0.56063  0.78116  1.0000
  C   C2553     1.0  0.26007  0.57529  0.77774  1.0000
  C   C2554     1.0  0.24955  0.59196  0.77924  1.0000
  C   C2555     1.0  0.23576  0.61495  0.80384  1.0000
  C   C2556     1.0  0.23765  0.61963  0.81438  1.0000
  C   C2557     1.0  0.22414  0.63195  0.82013  1.0000
  C   C2558     1.0  0.20853  0.63937  0.81552  1.0000
  C   C2559     1.0  0.20631  0.63428  0.80524  1.0000
  C   C2560     1.0  0.22408  0.63213  0.77185  1.0000
  C   C2561     1.0  0.23016  0.62770  0.75995  1.0000
  H   H2049     1.0  0.28858  0.73091  0.80526  1.0000
  H   H2050     1.0  0.12044  0.73776  0.74266  1.0000
  C   C2562     1.0  0.22693  0.66238  0.76185  1.0000
  C   C2563     1.0  0.22255  0.64959  0.77271  1.0000
  H   H2051     1.0  0.15758  0.60552  0.80932  1.0000
  H   H2052     1.0  0.14516  0.61271  0.79020  1.0000
  H   H2053     1.0  0.16413  0.62146  0.76903  1.0000
  H   H2054     1.0  0.19522  0.62320  0.76698  1.0000
  H   H2055     1.0  0.18906  0.60611  0.80735  1.0000
  H   H2056     1.0  0.20920  0.58025  0.79196  1.0000
  H   H2057     1.0  0.22787  0.55112  0.78917  1.0000
  H   H2058     1.0  0.26037  0.54770  0.78003  1.0000
  H   H2059     1.0  0.27436  0.57374  0.77400  1.0000
  H   H2060     1.0  0.25589  0.60317  0.77657  1.0000
  H   H2061     1.0  0.24687  0.60617  0.79916  1.0000
  H   H2062     1.0  0.24987  0.61408  0.81788  1.0000
  H   H2063     1.0  0.22582  0.63580  0.82815  1.0000
  H   H2064     1.0  0.19814  0.64896  0.82002  1.0000
  H   H2065     1.0  0.19404  0.64011  0.80189  1.0000
  H   H2066     1.0  0.23134  0.61436  0.75903  1.0000
  C   C2564     1.0  0.45641  0.55514  0.85075  1.0000
  C   C2565     1.0  0.20075  0.58627  0.88545  1.0000
  H   H2067     1.0  0.22555  0.67584  0.76260  1.0000
  H   H2068     1.0  0.21798  0.65348  0.78170  1.0000
  H   H2069     1.0  0.33846  0.73766  0.81220  1.0000
  H   H2070     1.0  0.16650  0.69921  0.75481  1.0000
  H   H2071     1.0  0.16406  0.51798  0.77996  1.0000
  H   H2072     1.0  0.31838  0.65398  0.79403  1.0000
  H   H2073     1.0  0.01600  0.55716  0.90705  1.0000
  H   H2074     1.0  0.07045  0.53807  0.97146  1.0000
  C   C2566     1.0  0.30940  0.72722  0.82889  1.0000
  C   C2567     1.0  0.29580  0.72469  0.81277  1.0000
  C   C2568     1.0  0.30103  0.70628  0.81598  1.0000
  C   C2569     1.0  0.31085  0.69829  0.82539  1.0000
  C   C2570     1.0  0.31506  0.70868  0.83182  1.0000
  H   H2075     1.0  0.49303  0.64054  0.79776  1.0000
  C   C2571     1.0  0.27914  0.49419  0.82506  1.0000
  H   H2076     1.0  0.45084  0.57130  0.86435  1.0000
  S   S368      1.0  0.10473  0.49098  0.84105  1.0000
  H   H2077     1.0  0.29765  0.69827  0.81104  1.0000
  H   H2078     1.0  0.31546  0.68401  0.82766  1.0000
  H   H2079     1.0  0.32305  0.70211  0.83884  1.0000
  C   C2572     1.0  0.24466  0.51028  0.73582  1.0000
  H   H2080     1.0  0.13903  0.64423  0.90658  1.0000
  C   C2573     1.0  0.09820  0.62708  0.84855  1.0000
  H   H2081     1.0  0.15122  0.65026  0.79064  1.0000
  C   C2574     1.0  0.22430  0.51156  0.78308  1.0000
  H   H2082     1.0  0.50008  0.67703  0.83190  1.0000
  C   C2575     1.0  0.18228  0.49847  0.77006  1.0000
  H   H2083     1.0  0.21529  0.50051  0.86296  1.0000
  C   C2576     1.0  0.25665  0.53568  0.85767  1.0000
  C   C2577     1.0  0.27175  0.69113  0.74157  1.0000
  C   C2578     1.0  0.12442  0.52761  0.98312  1.0000
  C   C2579     1.0  0.26310  0.59496  0.88976  1.0000
  P   P82       1.0  0.37910  0.65431  0.76758  1.0000
  C   C2580     1.0  0.12466  0.73882  0.75070  1.0000
  H   H2084     1.0  0.27576  0.55602  0.80396  1.0000
  C   C2581     1.0  0.17870  0.73570  0.74072  1.0000
  H   H2085     1.0  0.39530  0.64522  0.78947  1.0000
  C   C2582     1.0  0.01267  0.53504  0.89250  1.0000
  C   C2583     1.0  0.03590  0.54721  0.87613  1.0000
  H   H2086     1.0  0.46147  0.54304  0.85704  1.0000
  H   H2087     1.0  0.29989  0.65329  0.77399  1.0000
  H   H2088     1.0  0.44748  0.69872  0.84646  1.0000
  C   C2584     1.0  0.16605  0.49153  0.85576  1.0000
  H   H2089     1.0  0.37366  0.67621  0.78607  1.0000
  C   C2585     1.0  0.13579  0.72578  0.76990  1.0000
  C   C2586     1.0  0.23336  0.53717  0.89969  1.0000
  C   C2587     1.0  0.24120  0.53603  0.90971  1.0000
  C   C2588     1.0  0.24404  0.52013  0.91863  1.0000
  C   C2589     1.0  0.27083  0.73754  0.75711  1.0000
  C   C2590     1.0  0.07262  0.54887  0.97439  1.0000
  C   C2591     1.0  0.22842  0.52220  0.89873  1.0000
  H   H2090     1.0  0.17885  0.60833  0.88247  1.0000
  H   H2091     1.0  0.21043  0.59316  0.87856  1.0000
  H   H2092     1.0  0.24518  0.54731  0.91069  1.0000
  H   H2093     1.0  0.25012  0.51931  0.92634  1.0000
  H   H2094     1.0  0.19001  0.67858  0.76516  1.0000
  H   H2095     1.0  0.13992  0.50548  0.89680  1.0000
  H   H2096     1.0  0.22228  0.52283  0.89109  1.0000
  C   C2592     1.0  0.23278  0.65794  0.75005  1.0000
  C   C2593     1.0  0.30025  0.73514  0.81902  1.0000
  C   C2594     1.0  0.15096  0.56081  0.93937  1.0000
  C   C2595     1.0  0.14270  0.57807  0.93430  1.0000
  C   C2596     1.0  0.12413  0.58367  0.93760  1.0000
  C   C2597     1.0  0.11379  0.57204  0.94592  1.0000
  C   C2598     1.0  0.12200  0.55484  0.95133  1.0000
  C   C2599     1.0  0.14066  0.54921  0.94784  1.0000
  P   P83       1.0  0.10854  0.53993  0.96217  1.0000
  H   H2097     1.0  0.08373  0.49264  0.95766  1.0000
  H   H2098     1.0  0.36267  0.50402  0.80056  1.0000
  C   C2600     1.0  0.11654  0.70899  0.73672  1.0000
  C   C2601     1.0  0.08242  0.68297  0.77251  1.0000
  H   H2099     1.0  0.35746  0.70790  0.77732  1.0000
  H   H2100     1.0  0.07842  0.51811  0.88968  1.0000
  H   H2101     1.0  0.24128  0.49301  0.92454  1.0000
  C   C2602     1.0  0.25148  0.53978  0.86960  1.0000
  H   H2102     1.0  0.27388  0.68483  0.75103  1.0000
  C   C2603     1.0  0.31075  0.73818  0.77473  1.0000
  H   H2103     1.0  0.15770  0.68441  0.74093  1.0000
  H   H2104     1.0  0.03350  0.51427  0.97522  1.0000
  C   C2604     1.0  0.10072  0.52885  0.95345  1.0000
  C   C2605     1.0  0.10053  0.53576  0.94060  1.0000
  C   C2606     1.0  0.09492  0.52678  0.93389  1.0000
  C   C2607     1.0  0.15177  0.51124  0.76765  1.0000
  C   C2608     1.0  0.48535  0.61562  0.80703  1.0000
  C   C2609     1.0  0.00406  0.55821  0.91441  1.0000
  H   H2105     1.0  0.16536  0.55648  0.93685  1.0000
  H   H2106     1.0  0.15062  0.58715  0.92784  1.0000
  H   H2107     1.0  0.11768  0.59708  0.93377  1.0000
  H   H2108     1.0  0.09940  0.57652  0.94818  1.0000
  H   H2109     1.0  0.14729  0.53593  0.95171  1.0000
  H   H2110     1.0  0.04073  0.51113  0.82020  1.0000
  C   C2610     1.0  0.36067  0.66024  0.78022  1.0000
  C   C2611     1.0  0.24268  0.57217  0.88868  1.0000
  H   H2111     1.0  0.26907  0.72410  0.76079  1.0000
  C   C2612     1.0  0.08972  0.55254  0.97156  1.0000
  C   C2613     1.0  0.14265  0.49521  0.97669  1.0000
  H   H2112     1.0  0.32103  0.67209  0.80768  1.0000
  C   C2614     1.0  0.39306  0.62611  0.75542  1.0000
  H   H2113     1.0  0.32383  0.69221  0.74507  1.0000
  H   H2114     1.0  0.39931  0.63534  0.74766  1.0000
  H   H2115     1.0  0.10444  0.54816  0.93578  1.0000
  H   H2116     1.0  0.09439  0.53234  0.92407  1.0000
  H   H2117     1.0  0.13981  0.71445  0.77714  1.0000
  H   H2118     1.0  0.28257  0.67634  0.78606  1.0000
  H   H2119     1.0  0.38013  0.69142  0.75713  1.0000
  H   H2120     1.0  0.10564  0.67991  0.75751  1.0000
  H   H2121     1.0  0.12648  0.50682  0.85232  1.0000
  S   S369      1.0  0.03904  0.63623  0.94219  1.0000
  H   H2122     1.0  0.27489  0.52512  0.80663  1.0000
  C   C2615     1.0  0.40009  0.65663  0.76946  1.0000
  H   H2123     1.0  0.08472  0.50414  0.93485  1.0000
  C   C2616     1.0  0.36070  0.67609  0.73491  1.0000
  C   C2617     1.0  0.24901  0.50941  0.79245  1.0000
  H   H2124     1.0  0.35565  0.69737  0.87299  1.0000
  Fe  Fe187     1.0  0.15748  0.50416  0.80825  1.0000
  C   C2618     1.0  0.44647  0.71086  0.83930  1.0000
  C   C2619     1.0  0.43199  0.73104  0.82292  1.0000
  P   P84       1.0  0.24633  0.50554  0.81802  1.0000
  C   C2620     1.0  0.35618  0.71610  0.85519  1.0000
  H   H2125     1.0  0.13896  0.51992  0.77031  1.0000
  C   C2621     1.0  0.23821  0.50578  0.80455  1.0000
  H   H2126     1.0  0.05839  0.52820  0.86857  1.0000
  H   H2127     1.0  0.26267  0.51045  0.79129  1.0000
  C   C2622     1.0  0.33182  0.66931  0.79978  1.0000
  H   H2128     1.0  0.00768  0.50951  0.92076  1.0000
  H   H2129     1.0  0.09431  0.50779  0.96952  1.0000
  C   C2623     1.0  0.32176  0.72860  0.73953  1.0000
  C   C2624     1.0  0.09184  0.56685  0.97548  1.0000
  H   H2130     1.0  0.10488  0.56990  0.97353  1.0000
  H   H2131     1.0  0.26025  0.53383  0.87620  1.0000
  C   C2625     1.0  0.30416  0.70230  0.76041  1.0000
  C   C2626     1.0  0.02480  0.60261  0.88868  1.0000
  C   C2627     1.0  0.23449  0.64057  0.74911  1.0000
  H   H2132     1.0  0.41034  0.73840  0.87938  1.0000
  H   H2133     1.0  0.23138  0.51577  0.84274  1.0000
  C   C2628     1.0  0.03706  0.63836  0.88888  1.0000
  H   H2134     1.0  0.16824  0.69452  0.82997  1.0000
  C   C2629     1.0  0.30103  0.66695  0.77017  1.0000
  C   C2630     1.0  0.33587  0.73719  0.73707  1.0000
  H   H2135     1.0  0.34305  0.72860  0.79161  1.0000
  H   H2136     1.0  0.39634  0.57749  0.81250  1.0000
  S   S370      1.0  0.22538  0.72068  0.77142  1.0000
  C   C2631     1.0  0.45811  0.73658  0.82689  1.0000
  C   C2632     1.0  0.45040  0.57106  0.85488  1.0000
  P   P85       1.0  0.05814  0.61069  0.87738  1.0000
  H   H2137     1.0  0.40991  0.58420  0.82738  1.0000
  H   H2138     1.0  0.01519  0.68238  0.96365  1.0000
  H   H2139     1.0  0.06060  0.62528  0.97403  1.0000
  H   H2140     1.0  0.08439  0.58319  0.86547  1.0000
  C   C2633     1.0  0.08334  0.57912  0.87557  1.0000
  C   C2634     1.0  0.13061  0.73886  0.86104  1.0000
  H   H2141     1.0  0.46066  0.54254  0.83530  1.0000
  C   C2635     1.0  0.00795  0.50696  0.98154  1.0000
  C   C2636     1.0  0.48203  0.63396  0.80249  1.0000
  H   H2142     1.0  0.06096  0.68819  0.78838  1.0000
  C   C2637     1.0  0.01744  0.60087  0.86625  1.0000
  C   C2638     1.0  0.00459  0.59879  0.87752  1.0000
  C   C2639     1.0  0.24706  0.52819  0.81644  1.0000
  C   C2640     1.0  0.26292  0.53406  0.81035  1.0000
  C   C2641     1.0  0.26344  0.55171  0.80876  1.0000
  C   C2642     1.0  0.24805  0.56376  0.81301  1.0000
  C   C2643     1.0  0.23196  0.55824  0.81845  1.0000
  C   C2644     1.0  0.23145  0.54050  0.82008  1.0000
  C   C2645     1.0  0.31888  0.72644  0.76660  1.0000
  H   H2143     1.0  0.10372  0.71483  0.78111  1.0000
  P   P86       1.0  0.30790  0.72453  0.75517  1.0000
  H   H2144     1.0  0.37874  0.73914  0.74018  1.0000
  C   C2646     1.0  0.15458  0.66067  0.78257  1.0000
  H   H2145     1.0  0.39529  0.73180  0.84360  1.0000
  C   C2647     1.0  0.05963  0.50779  0.84462  1.0000
  H   H2146     1.0  0.11889  0.52319  0.83187  1.0000
  H   H2147     1.0  0.30560  0.71709  0.86109  1.0000
  P   P87       1.0  0.12824  0.70208  0.75912  1.0000
  C   C2648     1.0  0.09888  0.68650  0.76526  1.0000
  C   C2649     1.0  0.32799  0.72735  0.84835  1.0000
  H   H2148     1.0  0.23587  0.66801  0.74166  1.0000
  H   H2149     1.0  0.18134  0.51401  0.86133  1.0000
  C   C2650     1.0  0.31970  0.71696  0.85941  1.0000
  H   H2150     1.0  0.04124  0.55858  0.87043  1.0000
  H   H2151     1.0  0.21892  0.53637  0.82408  1.0000
  H   H2152     1.0  0.02741  0.60318  0.89749  1.0000
  H   H2153     1.0  0.12107  0.71617  0.86145  1.0000
  C   C2651     1.0  0.09279  0.55753  0.89348  1.0000
  C   C2652     1.0  0.15380  0.49350  0.86714  1.0000
  C   C2653     1.0  0.18926  0.71925  0.73876  1.0000
  S   S371      1.0  0.15434  0.49107  0.82872  1.0000
  C   C2654     1.0  0.32965  0.70617  0.86828  1.0000
  C   C2655     1.0  0.34629  0.72680  0.84629  1.0000
  H   H2154     1.0  0.42303  0.70783  0.83483  1.0000
  H   H2155     1.0  0.15510  0.63065  0.88828  1.0000
  C   C2656     1.0  0.36534  0.66419  0.74574  1.0000
  H   H2156     1.0  0.25052  0.51534  0.77248  1.0000
  H   H2157     1.0  0.01458  0.60006  0.85760  1.0000
  C   C2657     1.0  0.34429  0.71610  0.77673  1.0000
  C   C2658     1.0  0.29124  0.67994  0.77695  1.0000
  H   H2158     1.0  0.32325  0.69806  0.87674  1.0000
  H   H2159     1.0  0.37032  0.71582  0.85349  1.0000
  C   C2659     1.0  0.34790  0.70575  0.86616  1.0000
  C   C2660     1.0  0.15125  0.64489  0.88694  1.0000
  C   C2661     1.0  0.12653  0.50848  0.89512  1.0000
  C   C2662     1.0  0.14213  0.65256  0.89726  1.0000
  H   H2160     1.0  0.10134  0.54537  0.89728  1.0000
  C   C2663     1.0  0.41266  0.66312  0.75897  1.0000
  H   H2161     1.0  0.16203  0.64936  0.86696  1.0000
  C   C2664     1.0  0.00287  0.56723  0.92369  1.0000
  C   C2665     1.0  0.24207  0.51230  0.78176  1.0000
  C   C2666     1.0  0.37497  0.68695  0.75086  1.0000
  H   H2162     1.0  0.37205  0.71228  0.73793  1.0000
  C   C2667     1.0  0.15501  0.65556  0.87488  1.0000
  H   H2163     1.0  0.15595  0.59298  0.89791  1.0000
  H   H2164     1.0  0.22403  0.58197  0.90452  1.0000
  C   C2668     1.0  0.09784  0.70610  0.77850  1.0000
  C   C2669     1.0  0.37989  0.73443  0.77511  1.0000
  C   C2670     1.0  0.03392  0.60408  0.86615  1.0000
  C   C2671     1.0  0.29287  0.69752  0.77215  1.0000
  C   C2672     1.0  0.13665  0.67094  0.89553  1.0000
  H   H2165     1.0  0.12940  0.67684  0.90354  1.0000
  C   C2673     1.0  0.17644  0.67666  0.76831  1.0000
  C   C2674     1.0  0.34464  0.65471  0.78224  1.0000
  C   C2675     1.0  0.09403  0.56311  0.88047  1.0000
  C   C2676     1.0  0.16997  0.58632  0.89639  1.0000
  C   C2677     1.0  0.08887  0.50440  0.95284  1.0000
  H   H2166     1.0  0.49896  0.60793  0.80567  1.0000
  H   H2167     1.0  0.08069  0.61965  0.89030  1.0000
  H   H2168     1.0  0.10351  0.55520  0.87415  1.0000
  H   H2169     1.0  0.07496  0.64262  0.90252  1.0000
  C   C2678     1.0  0.15414  0.50111  0.75882  1.0000
  H   H2170     1.0  0.21880  0.51413  0.77480  1.0000
  H   H2171     1.0  0.48922  0.74012  0.91362  1.0000
  C   C2679     1.0  0.15000  0.71050  0.85798  1.0000
  C   C2680     1.0  0.08066  0.56780  0.90161  1.0000
  C   C2681     1.0  0.04757  0.65244  0.90101  1.0000
  C   C2682     1.0  0.06755  0.62830  0.89185  1.0000
  H   H2172     1.0  0.04504  0.66204  0.90674  1.0000
  C   C2683     1.0  0.06441  0.64126  0.89877  1.0000
  C   C2684     1.0  0.09483  0.51058  0.90343  1.0000
  H   H2173     1.0  0.18237  0.65439  0.78335  1.0000
  C   C2685     1.0  0.37893  0.73777  0.74995  1.0000
  H   H2174     1.0  0.04783  0.50566  0.93668  1.0000
  C   C2686     1.0  0.14936  0.67405  0.87301  1.0000
  C   C2687     1.0  0.14020  0.68167  0.88346  1.0000
  C   C2688     1.0  0.19605  0.68224  0.82783  1.0000
  C   C2689     1.0  0.20990  0.67228  0.83387  1.0000
  C   C2690     1.0  0.13073  0.70064  0.74294  1.0000
  C   C2691     1.0  0.39074  0.72144  0.76855  1.0000
  H   H2175     1.0  0.21714  0.65881  0.85164  1.0000
  H   H2176     1.0  0.37133  0.59255  0.78319  1.0000
  H   H2177     1.0  0.40987  0.66721  0.74961  1.0000
  H   H2178     1.0  0.19887  0.68666  0.81765  1.0000
  S   S372      1.0  0.40412  0.70225  0.77600  1.0000
  H   H2179     1.0  0.24201  0.60205  0.90532  1.0000
  H   H2180     1.0  0.01205  0.56289  0.88536  1.0000
  C   C2692     1.0  0.03753  0.49196  0.83782  1.0000
  C   C2693     1.0  0.07016  0.58395  0.89673  1.0000
  C   C2694     1.0  0.17865  0.68656  0.83488  1.0000
  H   H2181     1.0  0.17835  0.70922  0.85524  1.0000
  H   H2182     1.0  0.47401  0.59308  0.81699  1.0000
  C   C2695     1.0  0.20641  0.66673  0.84699  1.0000
  H   H2183     1.0  0.28558  0.70732  0.77775  1.0000
  H   H2184     1.0  0.06090  0.59179  0.90314  1.0000
  H   H2185     1.0  0.34186  0.70586  0.76178  1.0000
  H   H2186     1.0  0.10370  0.52059  0.87141  1.0000
  C   C2696     1.0  0.17215  0.66300  0.77850  1.0000
  C   C2697     1.0  0.07367  0.69099  0.78273  1.0000
  H   H2187     1.0  0.07473  0.70859  0.79375  1.0000
  C   C2698     1.0  0.22037  0.50509  0.80581  1.0000
  H   H2188     1.0  0.06305  0.65090  0.83515  1.0000
  H   H2189     1.0  0.07973  0.56348  0.91170  1.0000
  H   H2190     1.0  0.21163  0.50284  0.81501  1.0000
  H   H2191     1.0  0.19691  0.54662  0.90566  1.0000
  C   C2699     1.0  0.17495  0.68086  0.84808  1.0000
  H   H2192     1.0  0.13556  0.69583  0.88236  1.0000
  C   C2700     1.0  0.23664  0.58257  0.89782  1.0000
  H   H2193     1.0  0.27091  0.60391  0.89002  1.0000
  C   C2701     1.0  0.21348  0.50785  0.79510  1.0000
  C   C2702     1.0  0.04423  0.50614  0.82936  1.0000
  H   H2194     1.0  0.38928  0.58307  0.76346  1.0000
  C   C2703     1.0  0.18905  0.67109  0.85409  1.0000
  C   C2704     1.0  0.11054  0.68555  0.83688  1.0000
  C   C2705     1.0  0.25439  0.69846  0.73965  1.0000
  C   C2706     1.0  0.03397  0.65112  0.89595  1.0000
  C   C2707     1.0  0.16495  0.71736  0.85680  1.0000
  P   P88       1.0  0.15274  0.68774  0.85723  1.0000
  C   C2708     1.0  0.24682  0.59393  0.89834  1.0000
  H   H2195     1.0  0.42391  0.64839  0.79213  1.0000
  S   S373      1.0  0.19695  0.72579  0.79863  1.0000
  C   C2709     1.0  0.38249  0.63165  0.76642  1.0000
  Fe  Fe188     1.0  0.17747  0.71839  0.79097  1.0000
  C   C2710     1.0  0.23907  0.50530  0.91761  1.0000
  C   C2711     1.0  0.31258  0.67152  0.75860  1.0000
  C   C2712     1.0  0.02568  0.50540  0.97485  1.0000
  C   C2713     1.0  0.08887  0.61854  0.85996  1.0000
  C   C2714     1.0  0.13181  0.70043  0.83903  1.0000
  H   H2196     1.0  0.13835  0.71152  0.83566  1.0000
  P   P89       1.0  0.22935  0.55757  0.88814  1.0000
  C   C2715     1.0  0.11888  0.69989  0.83299  1.0000
  C   C2716     1.0  0.31428  0.68909  0.75377  1.0000
  C   C2717     1.0  0.07014  0.62110  0.86234  1.0000
  H   H2197     1.0  0.01756  0.50632  0.89699  1.0000
  C   C2718     1.0  0.02229  0.51791  0.89118  1.0000
  C   C2719     1.0  0.36175  0.67115  0.78768  1.0000
  C   C2720     1.0  0.10661  0.69824  0.76813  1.0000
  H   H2198     1.0  0.38036  0.73332  0.78478  1.0000
  C   C2721     1.0  0.43277  0.71592  0.83266  1.0000
  C   C2722     1.0  0.22957  0.55529  0.85216  1.0000
  H   H2199     1.0  0.22335  0.66886  0.82837  1.0000
  S   S374      1.0  0.00518  0.63794  0.92297  1.0000
  H   H2200     1.0  0.18678  0.66676  0.86425  1.0000
  S   S375      1.0  0.18248  0.73766  0.77243  1.0000
  C   C2723     1.0  0.13636  0.68669  0.84918  1.0000
  C   C2724     1.0  0.13280  0.72131  0.86026  1.0000
  C   C2725     1.0  0.12779  0.67239  0.85309  1.0000
  H   H2201     1.0  0.10090  0.68490  0.83194  1.0000
  H   H2202     1.0  0.04381  0.60540  0.85739  1.0000
  C   C2726     1.0  0.03863  0.51552  0.88248  1.0000
  Fe  Fe189     1.0  0.02555  0.62152  0.93453  1.0000
  H   H2203     1.0  0.13088  0.66160  0.86085  1.0000
  C   C2727     1.0  0.11504  0.67178  0.84689  1.0000
  H   H2204     1.0  0.10880  0.66050  0.84978  1.0000
  C   C2728     1.0  0.26921  0.58462  0.88068  1.0000
  C   C2729     1.0  0.25903  0.57335  0.88008  1.0000
  C   C2730     1.0  0.14650  0.69103  0.73650  1.0000
  H   H2205     1.0  0.11266  0.62487  0.84670  1.0000
  C   C2731     1.0  0.23544  0.55196  0.87282  1.0000
  C   C2732     1.0  0.06086  0.63317  0.85345  1.0000
  H   H2206     1.0  0.22118  0.56153  0.84534  1.0000
  H   H2207     1.0  0.21221  0.56923  0.86606  1.0000
  C   C2733     1.0  0.45910  0.72122  0.83644  1.0000
  H   H2208     1.0  0.28162  0.58571  0.87379  1.0000
  H   H2209     1.0  0.26391  0.56598  0.87267  1.0000
  C   C2734     1.0  0.42086  0.65231  0.78286  1.0000
  H   H2210     1.0  0.11576  0.71037  0.82499  1.0000
  C   C2735     1.0  0.09465  0.51319  0.95955  1.0000
  C   C2736     1.0  0.43297  0.65948  0.77249  1.0000
  C   C2737     1.0  0.03743  0.60562  0.87729  1.0000
  H   H2211     1.0  0.36295  0.65096  0.74797  1.0000
  H   H2212     1.0  0.16524  0.56222  0.90955  1.0000
  H   H2213     1.0  0.44532  0.66125  0.77378  1.0000
  C   C2738     1.0  0.40456  0.65072  0.78134  1.0000
  H   H2214     1.0  0.36766  0.62295  0.78533  1.0000
  C   C2739     1.0  0.37740  0.60190  0.77538  1.0000
  H   H2215     1.0  0.34841  0.68368  0.80340  1.0000
  C   C2740     1.0  0.33557  0.71522  0.76780  1.0000
  S   S376      1.0  0.02527  0.61677  0.98006  1.0000
  C   C2741     1.0  0.37293  0.66945  0.75361  1.0000
  H   H2216     1.0  0.24313  0.69795  0.74763  1.0000
  C   C2742     1.0  0.08893  0.63855  0.83954  1.0000
  S   S377      1.0  0.02060  0.60192  0.95269  1.0000
  C   C2743     1.0  0.42895  0.66473  0.76053  1.0000
  H   H2217     1.0  0.43828  0.67044  0.75252  1.0000
  C   C2744     1.0  0.37514  0.61928  0.77652  1.0000
  C   C2745     1.0  0.05544  0.51393  0.83271  1.0000
  C   C2746     1.0  0.33040  0.65897  0.79213  1.0000
  C   C2747     1.0  0.38754  0.59657  0.76429  1.0000
  H   H2218     1.0  0.04638  0.63618  0.85541  1.0000
  H   H2219     1.0  0.09629  0.64510  0.83070  1.0000
  C   C2748     1.0  0.34734  0.67566  0.79742  1.0000
  C   C2749     1.0  0.22448  0.55963  0.86401  1.0000
  H   H2220     1.0  0.08368  0.50960  0.91141  1.0000
  H   H2221     1.0  0.43149  0.73158  0.85974  1.0000
  H   H2222     1.0  0.01356  0.57345  0.92322  1.0000
  H   H2223     1.0  0.39924  0.71366  0.75068  1.0000
  H   H2224     1.0  0.06085  0.52476  0.82612  1.0000
  C   C2750     1.0  0.31950  0.73886  0.78374  1.0000
  C   C2751     1.0  0.07701  0.57764  0.98170  1.0000
  C   C2752     1.0  0.33620  0.72783  0.78476  1.0000
  H   H2225     1.0  0.13053  0.50425  0.96066  1.0000
  H   H2226     1.0  0.25284  0.50553  0.75334  1.0000
  C   C2753     1.0  0.08936  0.51097  0.93997  1.0000
  C   C2754     1.0  0.21886  0.49483  0.85474  1.0000
  H   H2227     1.0  0.40353  0.60445  0.74581  1.0000
  C   C2755     1.0  0.37029  0.69882  0.74004  1.0000
  H   H2228     1.0  0.11441  0.50270  0.91494  1.0000
  C   C2756     1.0  0.16272  0.73492  0.85757  1.0000
  H   H2229     1.0  0.34660  0.50343  0.82269  1.0000
  H   H2230     1.0  0.14315  0.50193  0.75462  1.0000
  C   C2757     1.0  0.03326  0.49245  0.96768  1.0000
  C   C2758     1.0  0.24397  0.50289  0.74864  1.0000
  C   C2759     1.0  0.22148  0.49574  0.73638  1.0000
  H   H2231     1.0  0.22425  0.73669  0.73929  1.0000
  C   C2760     1.0  0.05783  0.55972  0.98057  1.0000
  H   H2232     1.0  0.19305  0.49754  0.77453  1.0000
  H   H2233     1.0  0.42114  0.73480  0.81803  1.0000
  C   C2761     1.0  0.01946  0.54963  0.88469  1.0000
  H   H2234     1.0  0.22740  0.49484  0.90689  1.0000
  H   H2235     1.0  0.04460  0.55720  0.98229  1.0000
  C   C2762     1.0  0.26820  0.49152  0.81816  1.0000
  H   H2236     1.0  0.17432  0.74017  0.85653  1.0000
  H   H2237     1.0  0.46992  0.71716  0.84143  1.0000
  C   C2763     1.0  0.35975  0.49168  0.80664  1.0000
  C   C2764     1.0  0.35064  0.49136  0.81915  1.0000
  C   C2765     1.0  0.44429  0.80197  0.16738  1.0000
  C   C2766     1.0  0.16281  0.86562  0.22531  1.0000
  S   S378      1.0  0.36295  0.95032  0.05498  1.0000
  S   S379      1.0  0.38579  0.94899  0.02033  1.0000
  H   H2238     1.0  0.40768  0.77191  0.15981  1.0000
  Fe  Fe190     1.0  0.41469  0.86957  0.09567  1.0000
  S   S380      1.0  0.41675  0.86668  0.11558  1.0000
  S   S381      1.0  0.42226  0.89235  0.08005  1.0000
  Fe  Fe191     1.0  0.40646  0.83305  0.10123  1.0000
  S   S382      1.0  0.40784  0.82688  0.12159  1.0000
  S   S383      1.0  0.40127  0.81527  0.09098  1.0000
  Fe  Fe192     1.0  0.39251  0.85491  0.12106  1.0000
  S   S384      1.0  0.37025  0.86179  0.13733  1.0000
  Fe  Fe193     1.0  0.43193  0.83898  0.11442  1.0000
  S   S385      1.0  0.45793  0.82539  0.12044  1.0000
  S   S386      1.0  0.38904  0.86026  0.10118  1.0000
  S   S387      1.0  0.43187  0.84278  0.09404  1.0000
  H   H2239     1.0  0.34978  0.79487  0.14783  1.0000
  H   H2240     1.0  0.21337  0.77612  0.22508  1.0000
  C   C2767     1.0  0.47217  0.76058  0.09966  1.0000
  C   C2768     1.0  0.30285  0.91558  0.06303  1.0000
  S   S388      1.0  0.20538  0.75203  0.16033  1.0000
  C   C2769     1.0  0.35083  0.76726  0.12427  1.0000
  H   H2241     1.0  0.35058  0.87715  0.11370  1.0000
  H   H2242     1.0  0.48651  0.79776  0.09730  1.0000
  C   C2770     1.0  0.32468  0.85210  0.10367  1.0000
  C   C2771     1.0  0.29585  0.85391  0.22211  1.0000
  H   H2243     1.0  0.38146  0.83544  0.15975  1.0000
  C   C2772     1.0  0.17488  0.81881  0.21102  1.0000
  C   C2773     1.0  0.27481  0.74608  0.19704  1.0000
  H   H2244     1.0  0.33294  0.77132  0.15469  1.0000
  C   C2774     1.0  0.11110  0.85465  0.22465  1.0000
  S   S389      1.0  0.35469  0.96990  0.99557  1.0000
  Fe  Fe194     1.0  0.29235  0.81657  0.16656  1.0000
  S   S390      1.0  0.30266  0.81552  0.18353  1.0000
  S   S391      1.0  0.30735  0.82309  0.14646  1.0000
  Fe  Fe195     1.0  0.25899  0.80349  0.18155  1.0000
  S   S392      1.0  0.26725  0.80031  0.19953  1.0000
  S   S393      1.0  0.23086  0.79925  0.18554  1.0000
  Fe  Fe196     1.0  0.27397  0.82690  0.19172  1.0000
  S   S394      1.0  0.26099  0.84649  0.20452  1.0000
  Fe  Fe197     1.0  0.29497  0.78917  0.19024  1.0000
  S   S395      1.0  0.31037  0.76622  0.20232  1.0000
  S   S396      1.0  0.26441  0.83075  0.17394  1.0000
  S   S397      1.0  0.28629  0.78934  0.17287  1.0000
  C   C2775     1.0  0.45280  0.93332  0.03823  1.0000
  C   C2776     1.0  0.44891  0.76032  0.18487  1.0000
  H   H2245     1.0  0.30914  0.85653  0.21959  1.0000
  H   H2246     1.0  0.46963  0.90012  0.10764  1.0000
  H   H2247     1.0  0.33915  0.82538  0.21204  1.0000
  H   H2248     1.0  0.36128  0.76156  0.16602  1.0000
  C   C2777     1.0  0.36605  0.87601  0.99213  1.0000
  H   H2249     1.0  0.48500  0.90190  0.00972  1.0000
  H   H2250     1.0  0.32967  0.77323  0.17619  1.0000
  C   C2778     1.0  0.36015  0.84737  0.09022  1.0000
  C   C2779     1.0  0.21293  0.76486  0.16732  1.0000
  C   C2780     1.0  0.21024  0.76184  0.18045  1.0000
  C   C2781     1.0  0.21632  0.77212  0.18594  1.0000
  C   C2782     1.0  0.22532  0.78532  0.17833  1.0000
  C   C2783     1.0  0.22800  0.78841  0.16521  1.0000
  C   C2784     1.0  0.22165  0.77829  0.15971  1.0000
  H   H2251     1.0  0.20306  0.75188  0.18639  1.0000
  H   H2252     1.0  0.21404  0.76986  0.19610  1.0000
  H   H2253     1.0  0.23438  0.79903  0.15936  1.0000
  C   C2785     1.0  0.49465  0.85091  0.12127  1.0000
  C   C2786     1.0  0.41381  0.90973  0.01312  1.0000
  H   H2254     1.0  0.29624  0.85180  0.20331  1.0000
  H   H2255     1.0  0.37013  0.89341  0.11734  1.0000
  C   C2787     1.0  0.47151  0.92252  0.09202  1.0000
  H   H2256     1.0  0.26345  0.88644  0.14401  1.0000
  H   H2257     1.0  0.31614  0.81839  0.22958  1.0000
  H   H2258     1.0  0.29227  0.86465  0.14455  1.0000
  H   H2259     1.0  0.33210  0.91431  0.01548  1.0000
  C   C2788     1.0  0.35284  0.85097  0.13990  1.0000
  C   C2789     1.0  0.33922  0.85154  0.15080  1.0000
  C   C2790     1.0  0.32540  0.84262  0.15307  1.0000
  C   C2791     1.0  0.32505  0.83336  0.14434  1.0000
  C   C2792     1.0  0.33867  0.83281  0.13347  1.0000
  C   C2793     1.0  0.35264  0.84146  0.13128  1.0000
  H   H2260     1.0  0.33939  0.85887  0.15748  1.0000
  H   H2261     1.0  0.31479  0.84332  0.16140  1.0000
  H   H2262     1.0  0.33841  0.82561  0.12676  1.0000
  H   H2263     1.0  0.36318  0.84083  0.12290  1.0000
  C   C2794     1.0  0.40282  0.79273  0.09812  1.0000
  C   C2795     1.0  0.40635  0.78556  0.11023  1.0000
  C   C2796     1.0  0.40685  0.76748  0.11566  1.0000
  C   C2797     1.0  0.41690  0.76014  0.22590  1.0000
  H   H2264     1.0  0.46117  0.76483  0.18009  1.0000
  C   C2798     1.0  0.40022  0.78178  0.09138  1.0000
  H   H2265     1.0  0.40848  0.79391  0.11547  1.0000
  C   C2799     1.0  0.42239  0.97163  0.06290  1.0000
  C   C2800     1.0  0.17652  0.78941  0.20848  1.0000
  H   H2266     1.0  0.39760  0.78722  0.08199  1.0000
  C   C2801     1.0  0.48405  0.86638  0.12504  1.0000
  C   C2802     1.0  0.46542  0.86885  0.12792  1.0000
  C   C2803     1.0  0.45738  0.85616  0.12667  1.0000
  C   C2804     1.0  0.46793  0.84088  0.12265  1.0000
  C   C2805     1.0  0.48657  0.83798  0.12037  1.0000
  H   H2267     1.0  0.16568  0.89274  0.21916  1.0000
  H   H2268     1.0  0.45718  0.88067  0.13103  1.0000
  H   H2269     1.0  0.44303  0.85802  0.12914  1.0000
  C   C2806     1.0  0.49134  0.91203  0.00302  1.0000
  H   H2270     1.0  0.37884  0.78577  0.15383  1.0000
  C   C2807     1.0  0.37932  0.93376  0.06175  1.0000
  C   C2808     1.0  0.37426  0.92155  0.07286  1.0000
  C   C2809     1.0  0.38729  0.90847  0.07846  1.0000
  C   C2810     1.0  0.40544  0.90790  0.07312  1.0000
  C   C2811     1.0  0.41046  0.92026  0.06211  1.0000
  C   C2812     1.0  0.39746  0.93292  0.05629  1.0000
  H   H2271     1.0  0.36028  0.92232  0.07716  1.0000
  H   H2272     1.0  0.38332  0.89910  0.08704  1.0000
  H   H2273     1.0  0.42445  0.92013  0.05811  1.0000
  H   H2274     1.0  0.36564  0.81760  0.15363  1.0000
  H   H2275     1.0  0.46473  0.93212  0.09781  1.0000
  H   H2276     1.0  0.46283  0.89538  0.06744  1.0000
  C   C2813     1.0  0.45086  0.96240  0.00687  1.0000
  C   C2814     1.0  0.46795  0.95444  0.00898  1.0000
  H   H2277     1.0  0.34186  0.84830  0.07119  1.0000
  C   C2815     1.0  0.33304  0.77311  0.22995  1.0000
  H   H2278     1.0  0.45647  0.75077  0.16256  1.0000
  C   C2816     1.0  0.37027  0.82293  0.22511  1.0000
  C   C2817     1.0  0.40195  0.78572  0.16012  1.0000
  Fe  Fe198     1.0  0.37117  0.97227  0.00826  1.0000
  H   H2279     1.0  0.38647  0.94126  0.99353  1.0000
  C   C2818     1.0  0.29038  0.75011  0.14806  1.0000
  C   C2819     1.0  0.46912  0.88900  0.05953  1.0000
  C   C2820     1.0  0.34095  0.77340  0.14522  1.0000
  H   H2280     1.0  0.40621  0.74161  0.20088  1.0000
  H   H2281     1.0  0.40150  0.94231  0.04775  1.0000
  H   H2282     1.0  0.45183  0.81182  0.14723  1.0000
  H   H2283     1.0  0.47941  0.98352  0.05100  1.0000
  H   H2284     1.0  0.10627  0.86359  0.21658  1.0000
  C   C2821     1.0  0.34151  0.82110  0.19370  1.0000
  C   C2822     1.0  0.46123  0.82497  0.15743  1.0000
  C   C2823     1.0  0.40355  0.81361  0.16361  1.0000
  H   H2285     1.0  0.39310  0.90797  0.00510  1.0000
  C   C2824     1.0  0.39165  0.90004  0.03663  1.0000
  C   C2825     1.0  0.28252  0.78624  0.13712  1.0000
  C   C2826     1.0  0.33804  0.94712  0.03275  1.0000
  C   C2827     1.0  0.35963  0.79304  0.18934  1.0000
  H   H2286     1.0  0.27960  0.90428  0.07138  1.0000
  H   H2287     1.0  0.43055  0.95336  0.04424  1.0000
  C   C2828     1.0  0.38711  0.82146  0.16009  1.0000
  H   H2288     1.0  0.37390  0.84555  0.08499  1.0000
  C   C2829     1.0  0.41762  0.76162  0.18645  1.0000
  H   H2289     1.0  0.38375  0.86584  0.04109  1.0000
  C   C2830     1.0  0.44919  0.74598  0.19523  1.0000
  H   H2290     1.0  0.47745  0.91529  0.03246  1.0000
  H   H2291     1.0  0.36804  0.80064  0.12600  1.0000
  C   C2831     1.0  0.48356  0.92249  0.99292  1.0000
  C   C2832     1.0  0.34262  0.92820  0.10228  1.0000
  P   P90       1.0  0.35913  0.79261  0.22584  1.0000
  C   C2833     1.0  0.45519  0.95672  0.04712  1.0000
  C   C2834     1.0  0.33441  0.83519  0.10212  1.0000
  H   H2292     1.0  0.02177  0.75559  0.22624  1.0000
  C   C2835     1.0  0.29904  0.80723  0.22365  1.0000
  C   C2836     1.0  0.29212  0.90557  0.07271  1.0000
  C   C2837     1.0  0.47125  0.92674  0.03660  1.0000
  C   C2838     1.0  0.49048  0.85189  0.08256  1.0000
  C   C2839     1.0  0.44469  0.80408  0.17926  1.0000
  H   H2293     1.0  0.28919  0.88938  0.09149  1.0000
  C   C2840     1.0  0.46025  0.97192  0.08706  1.0000
  H   H2294     1.0  0.36655  0.87102  0.98401  1.0000
  H   H2295     1.0  0.34586  0.81324  0.17614  1.0000
  C   C2841     1.0  0.30459  0.87541  0.12546  1.0000
  C   C2842     1.0  0.27136  0.84791  0.21609  1.0000
  C   C2843     1.0  0.47667  0.82715  0.20607  1.0000
  C   C2844     1.0  0.44969  0.97311  0.07863  1.0000
  H   H2296     1.0  0.32068  0.92646  0.09543  1.0000
  C   C2845     1.0  0.31915  0.91696  0.06466  1.0000
  C   C2846     1.0  0.49145  0.93593  0.98428  1.0000
  C   C2847     1.0  0.48870  0.81370  0.20048  1.0000
  C   C2848     1.0  0.37991  0.94272  0.98597  1.0000
  H   H2297     1.0  0.31723  0.86609  0.12599  1.0000
  C   C2849     1.0  0.42074  0.95540  0.07136  1.0000
  H   H2298     1.0  0.34047  0.94246  0.09913  1.0000
  C   C2850     1.0  0.22978  0.81345  0.21695  1.0000
  C   C2851     1.0  0.22011  0.80153  0.21666  1.0000
  H   H2299     1.0  0.21473  0.85338  0.21848  1.0000
  C   C2852     1.0  0.17259  0.87895  0.22072  1.0000
  C   C2853     1.0  0.47383  0.95033  0.04500  1.0000
  C   C2854     1.0  0.45670  0.97653  0.06553  1.0000
  H   H2300     1.0  0.49011  0.86495  0.03172  1.0000
  C   C2855     1.0  0.22108  0.78524  0.22521  1.0000
  C   C2856     1.0  0.32238  0.93996  0.01987  1.0000
  C   C2857     1.0  0.35051  0.78685  0.14134  1.0000
  C   C2858     1.0  0.26139  0.84760  0.22848  1.0000
  H   H2301     1.0  0.28622  0.92015  0.23041  1.0000
  C   C2859     1.0  0.28863  0.85110  0.21291  1.0000
  H   H2302     1.0  0.38305  0.89699  0.04585  1.0000
  H   H2303     1.0  0.22942  0.82587  0.21005  1.0000
  H   H2304     1.0  0.33962  0.95633  0.03758  1.0000
  H   H2305     1.0  0.38097  0.81926  0.21739  1.0000
  H   H2306     1.0  0.11018  0.80803  0.22488  1.0000
  C   C2860     1.0  0.17982  0.80640  0.20339  1.0000
  H   H2307     1.0  0.42414  0.77737  0.20793  1.0000
  H   H2308     1.0  0.30562  0.80991  0.21376  1.0000
  H   H2309     1.0  0.34007  0.74362  0.21235  1.0000
  C   C2861     1.0  0.33363  0.87222  0.05794  1.0000
  H   H2310     1.0  0.47130  0.92017  0.99200  1.0000
  P   P91       1.0  0.43343  0.78565  0.16621  1.0000
  H   H2311     1.0  0.30944  0.75430  0.16664  1.0000
  C   C2862     1.0  0.46188  0.82673  0.16926  1.0000
  H   H2312     1.0  0.40267  0.93918  0.08361  1.0000
  C   C2863     1.0  0.36669  0.87100  0.01421  1.0000
  C   C2864     1.0  0.31912  0.74187  0.16784  1.0000
  C   C2865     1.0  0.19128  0.87453  0.21817  1.0000
  C   C2866     1.0  0.44483  0.94834  0.04331  1.0000
  H   H2313     1.0  0.43048  0.75261  0.22593  1.0000
  C   C2867     1.0  0.38847  0.96429  0.07456  1.0000
  H   H2314     1.0  0.45906  0.81166  0.08925  1.0000
  C   C2868     1.0  0.34837  0.89137  0.11027  1.0000
  C   C2869     1.0  0.33289  0.86667  0.09887  1.0000
  H   H2315     1.0  0.43205  0.91123  0.02359  1.0000
  H   H2316     1.0  0.42211  0.91424  0.00404  1.0000
  H   H2317     1.0  0.49615  0.93072  0.03819  1.0000
  H   H2318     1.0  0.25972  0.90984  0.12469  1.0000
  C   C2870     1.0  0.35665  0.91894  0.10836  1.0000
  H   H2319     1.0  0.48239  0.79782  0.13918  1.0000
  C   C2871     1.0  0.36381  0.90069  0.00124  1.0000
  H   H2320     1.0  0.33755  0.90936  0.07691  1.0000
  H   H2321     1.0  0.32915  0.89537  0.04331  1.0000
  H   H2322     1.0  0.27983  0.79578  0.22053  1.0000
  C   C2872     1.0  0.33910  0.88444  0.04700  1.0000
  H   H2323     1.0  0.31965  0.87389  0.06267  1.0000
  C   C2873     1.0  0.40076  0.76384  0.09675  1.0000
  H   H2324     1.0  0.32760  0.92457  0.05718  1.0000
  C   C2874     1.0  0.45837  0.88761  0.05204  1.0000
  C   C2875     1.0  0.35659  0.75755  0.17610  1.0000
  C   C2876     1.0  0.29752  0.89726  0.08413  1.0000
  H   H2325     1.0  0.27376  0.76532  0.22622  1.0000
  C   C2877     1.0  0.36253  0.74157  0.19660  1.0000
  S   S398      1.0  0.39818  0.97753  0.03073  1.0000
  C   C2878     1.0  0.48427  0.87178  0.03942  1.0000
  H   H2326     1.0  0.37811  0.98988  0.06378  1.0000
  C   C2879     1.0  0.48093  0.84363  0.20383  1.0000
  H   H2327     1.0  0.37076  0.77482  0.20448  1.0000
  C   C2880     1.0  0.33154  0.91905  0.10009  1.0000
  C   C2881     1.0  0.36488  0.88922  0.01303  1.0000
  P   P92       1.0  0.36414  0.89782  0.02645  1.0000
  C   C2882     1.0  0.43312  0.76820  0.18034  1.0000
  S   S399      1.0  0.49382  0.88268  0.12631  1.0000
  C   C2883     1.0  0.19624  0.74143  0.22677  1.0000
  H   H2328     1.0  0.36539  0.92596  0.10995  1.0000
  H   H2329     1.0  0.29864  0.92216  0.05422  1.0000
  H   H2330     1.0  0.48515  0.80106  0.20232  1.0000
  C   C2884     1.0  0.30031  0.77718  0.13665  1.0000
  C   C2885     1.0  0.35576  0.79957  0.20984  1.0000
  C   C2886     1.0  0.40383  0.95188  0.07730  1.0000
  H   H2331     1.0  0.36259  0.91478  0.00002  1.0000
  C   C2887     1.0  0.32465  0.90852  0.07599  1.0000
  H   H2332     1.0  0.26177  0.75230  0.15295  1.0000
  C   C2888     1.0  0.48296  0.77099  0.10087  1.0000
  H   H2333     1.0  0.47553  0.74631  0.10237  1.0000
  H   H2334     1.0  0.24788  0.84564  0.23089  1.0000
  H   H2335     1.0  0.19860  0.75433  0.22159  1.0000
  P   P93       1.0  0.32735  0.74718  0.14161  1.0000
  C   C2889     1.0  0.34616  0.85781  0.06277  1.0000
  C   C2890     1.0  0.34880  0.80952  0.18547  1.0000
  C   C2891     1.0  0.47819  0.78945  0.09687  1.0000
  C   C2892     1.0  0.31358  0.89916  0.08598  1.0000
  H   H2336     1.0  0.13879  0.85295  0.21544  1.0000
  H   H2337     1.0  0.35689  0.87542  0.08755  1.0000
  C   C2893     1.0  0.36047  0.78065  0.12045  1.0000
  H   H2338     1.0  0.37541  0.96118  0.07869  1.0000
  C   C2894     1.0  0.35049  0.86428  0.09175  1.0000
  H   H2339     1.0  0.25634  0.76640  0.18732  1.0000
  H   H2340     1.0  0.32825  0.82387  0.10629  1.0000
  S   S400      1.0  0.43571  0.94888  0.00962  1.0000
  Fe  Fe199     1.0  0.37489  0.96446  0.03553  1.0000
  H   H2341     1.0  0.19888  0.88484  0.21457  1.0000
  C   C2895     1.0  0.34500  0.81620  0.20583  1.0000
  H   H2342     1.0  0.27947  0.80032  0.13313  1.0000
  H   H2343     1.0  0.47161  0.85406  0.20812  1.0000
  H   H2344     1.0  0.49470  0.78174  0.18306  1.0000
  C   C2896     1.0  0.47787  0.97405  0.08248  1.0000
  C   C2897     1.0  0.33879  0.76425  0.18185  1.0000
  C   C2898     1.0  0.20021  0.85679  0.22035  1.0000
  H   H2345     1.0  0.47705  0.85912  0.08165  1.0000
  H   H2346     1.0  0.45392  0.81784  0.18935  1.0000
  C   C2899     1.0  0.35939  0.90057  0.11246  1.0000
  H   H2347     1.0  0.36791  0.78357  0.11083  1.0000
  H   H2348     1.0  0.31577  0.96494  0.02544  1.0000
  H   H2349     1.0  0.44781  0.76061  0.09466  1.0000
  H   H2350     1.0  0.31090  0.85364  0.10882  1.0000
  C   C2900     1.0  0.34131  0.76323  0.13681  1.0000
  C   C2901     1.0  0.36425  0.89412  0.99089  1.0000
  H   H2351     1.0  0.18200  0.74235  0.03530  1.0000
  H   H2352     1.0  0.47661  0.94200  0.07477  1.0000
  C   C2902     1.0  0.12951  0.84871  0.22408  1.0000
  C   C2903     1.0  0.29053  0.87473  0.13607  1.0000
  C   C2904     1.0  0.46266  0.79740  0.09221  1.0000
  C   C2905     1.0  0.44440  0.77644  0.15241  1.0000
  C   C2906     1.0  0.45384  0.75875  0.15360  1.0000
  C   C2907     1.0  0.45919  0.75077  0.14324  1.0000
  C   C2908     1.0  0.45504  0.76027  0.13168  1.0000
  C   C2909     1.0  0.44641  0.77809  0.13021  1.0000
  C   C2910     1.0  0.44114  0.78617  0.14052  1.0000
  C   C2911     1.0  0.45170  0.78702  0.09145  1.0000
  H   H2353     1.0  0.45814  0.75364  0.12401  1.0000
  H   H2354     1.0  0.44332  0.78555  0.12119  1.0000
  H   H2355     1.0  0.43376  0.79980  0.13930  1.0000
  H   H2356     1.0  0.17750  0.83191  0.20688  1.0000
  C   C2912     1.0  0.45237  0.81275  0.15648  1.0000
  Fe  Fe200     1.0  0.40762  0.96392  0.01447  1.0000
  H   H2357     1.0  0.33300  0.83382  0.19069  1.0000
  C   C2913     1.0  0.17169  0.84772  0.22735  1.0000
  H   H2358     1.0  0.24823  0.81825  0.22570  1.0000
  H   H2359     1.0  0.46757  0.83314  0.14896  1.0000
  C   C2914     1.0  0.33278  0.75909  0.19493  1.0000
  C   C2915     1.0  0.48035  0.96460  0.00734  1.0000
  S   S401      1.0  0.39404  0.98603  0.00103  1.0000
  C   C2916     1.0  0.47389  0.98011  0.06105  1.0000
  H   H2360     1.0  0.36529  0.78408  0.18296  1.0000
  C   C2917     1.0  0.34831  0.91882  0.02647  1.0000
  C   C2918     1.0  0.30235  0.88801  0.11430  1.0000
  H   H2361     1.0  0.41268  0.90196  0.04446  1.0000
  C   C2919     1.0  0.40841  0.90307  0.03590  1.0000
  P   P94       1.0  0.32064  0.88863  0.10068  1.0000
  C   C2920     1.0  0.41941  0.90809  0.02416  1.0000
  C   C2921     1.0  0.35724  0.88249  0.04092  1.0000
  H   H2362     1.0  0.36003  0.81963  0.09466  1.0000
  C   C2922     1.0  0.49099  0.78166  0.12541  1.0000
  H   H2363     1.0  0.21205  0.80485  0.20969  1.0000
  C   C2923     1.0  0.28622  0.90072  0.11417  1.0000
  C   C2924     1.0  0.32448  0.95190  0.02602  1.0000
  C   C2925     1.0  0.36974  0.86786  0.04578  1.0000
  H   H2364     1.0  0.46871  0.83629  0.16990  1.0000
  C   C2926     1.0  0.16692  0.81410  0.22386  1.0000
  H   H2365     1.0  0.43814  0.79630  0.18782  1.0000
  C   C2927     1.0  0.36852  0.74635  0.18352  1.0000
  C   C2928     1.0  0.39723  0.90629  0.01379  1.0000
  C   C2929     1.0  0.27430  0.88701  0.13575  1.0000
  H   H2366     1.0  0.40523  0.76726  0.18325  1.0000
  H   H2367     1.0  0.28451  0.91119  0.10592  1.0000
  C   C2930     1.0  0.37820  0.81146  0.15654  1.0000
  C   C2931     1.0  0.38598  0.90140  0.02557  1.0000
  C   C2932     1.0  0.39000  0.98042  0.06612  1.0000
  C   C2933     1.0  0.19043  0.84348  0.22506  1.0000
  H   H2368     1.0  0.36770  0.86178  0.02312  1.0000
  H   H2369     1.0  0.31073  0.78454  0.13218  1.0000
  C   C2934     1.0  0.36727  0.86445  0.00378  1.0000
  C   C2935     1.0  0.48458  0.97830  0.06949  1.0000
  C   C2936     1.0  0.47426  0.90446  0.09756  1.0000
  H   H2370     1.0  0.48855  0.75205  0.19292  1.0000
  C   C2937     1.0  0.38558  0.79358  0.15664  1.0000
  H   H2371     1.0  0.25498  0.78426  0.14300  1.0000
  C   C2938     1.0  0.41110  0.79565  0.16362  1.0000
  H   H2372     1.0  0.44467  0.92713  0.03522  1.0000
  H   H2373     1.0  0.44409  0.89289  0.05424  1.0000
  H   H2374     1.0  0.33505  0.77535  0.21980  1.0000
  C   C2939     1.0  0.45355  0.81633  0.18018  1.0000
  H   H2375     1.0  0.41052  0.82172  0.16590  1.0000
  H   H2376     1.0  0.45750  0.87816  0.03619  1.0000
  H   H2377     1.0  0.18654  0.80982  0.19357  1.0000
  S   S402      1.0  0.35831  0.98693  0.02397  1.0000
  C   C2940     1.0  0.14549  0.74689  0.05933  1.0000
  C   C2941     1.0  0.48973  0.89755  0.07715  1.0000
  H   H2378     1.0  0.43254  0.94532  0.07317  1.0000
  H   H2379     1.0  0.30833  0.97813  0.22255  1.0000
  C   C2942     1.0  0.34989  0.93064  0.03301  1.0000
  H   H2380     1.0  0.49830  0.97967  0.06591  1.0000
  C   C2943     1.0  0.36289  0.78794  0.20153  1.0000
  C   C2944     1.0  0.35225  0.83277  0.09558  1.0000
  H   H2381     1.0  0.45495  0.96881  0.09714  1.0000
  H   H2382     1.0  0.47153  0.94034  0.01209  1.0000
  C   C2945     1.0  0.27220  0.90011  0.12484  1.0000
  C   C2946     1.0  0.33469  0.90050  0.10373  1.0000
  H   H2383     1.0  0.48119  0.82939  0.09524  1.0000
  C   C2947     1.0  0.33407  0.92337  0.02024  1.0000
  H   H2384     1.0  0.40926  0.76201  0.12509  1.0000
  H   H2385     1.0  0.22341  0.78088  0.14957  1.0000
  C   C2948     1.0  0.48719  0.91569  0.07173  1.0000
  H   H2386     1.0  0.27499  0.90461  0.21924  1.0000
  C   C2949     1.0  0.48177  0.93544  0.03976  1.0000
  H   H2387     1.0  0.36036  0.92731  0.03823  1.0000
  H   H2388     1.0  0.49280  0.92027  0.06187  1.0000
  H   H2389     1.0  0.48246  0.95653  0.04737  1.0000
  H   H2390     1.0  0.31196  0.94374  0.01456  1.0000
  H   H2391     1.0  0.48516  0.79222  0.11849  1.0000
  C   C2950     1.0  0.26254  0.75246  0.18920  1.0000
  C   C2951     1.0  0.36422  0.85565  0.05672  1.0000
  P   P95       1.0  0.44434  0.97542  0.05454  1.0000
  H   H2392     1.0  0.37395  0.84447  0.06050  1.0000
  C   C2952     1.0  0.36052  0.79029  0.12901  1.0000
  H   H2393     1.0  0.36871  0.85039  0.00473  1.0000
  C   C2953     1.0  0.34463  0.74761  0.20225  1.0000
  H   H2394     1.0  0.46406  0.82478  0.21216  1.0000
  C   C2954     1.0  0.46594  0.87918  0.04193  1.0000
  C   C2955     1.0  0.49502  0.87282  0.04704  1.0000
  C   C2956     1.0  0.30270  0.96747  0.22920  1.0000
  C   C2957     1.0  0.26870  0.77721  0.14284  1.0000
  H   H2395     1.0  0.43625  0.97100  0.08245  1.0000
  H   H2396     1.0  0.43954  0.79328  0.08797  1.0000
  C   C2958     1.0  0.47800  0.92810  0.07910  1.0000
  C   C2959     1.0  0.39581  0.78376  0.21565  1.0000
  C   C2960     1.0  0.30439  0.75898  0.14204  1.0000
  H   H2397     1.0  0.49350  0.95812  0.00881  1.0000
  C   C2961     1.0  0.47589  0.98293  0.00342  1.0000
  C   C2962     1.0  0.38166  0.77955  0.22575  1.0000
  H   H2398     1.0  0.16587  0.77155  0.22517  1.0000
  C   C2963     1.0  0.45645  0.76862  0.09517  1.0000
  C   C2964     1.0  0.28422  0.79949  0.22745  1.0000
  C   C2965     1.0  0.44625  0.98081  0.00272  1.0000
  H   H2399     1.0  0.15281  0.76284  0.04076  1.0000
  C   C2966     1.0  0.48760  0.88177  0.05699  1.0000
  C   C2967     1.0  0.48337  0.89197  0.09019  1.0000
  H   H2400     1.0  0.39852  0.75552  0.09150  1.0000
  C   C2968     1.0  0.40389  0.75667  0.10892  1.0000
  H   H2401     1.0  0.13274  0.75582  0.06171  1.0000
  C   C2969     1.0  0.26970  0.90400  0.22924  1.0000
  C   C2970     1.0  0.15680  0.75084  0.04753  1.0000
  H   H2402     1.0  0.35079  0.76025  0.11737  1.0000
  H   H2403     1.0  0.27809  0.75516  0.20117  1.0000
  H   H2404     1.0  0.18048  0.77979  0.20257  1.0000
  H   H2405     1.0  0.48561  0.87812  0.09482  1.0000
  C   C2971     1.0  0.41333  0.77415  0.21577  1.0000
  C   C2972     1.0  0.24066  0.80898  0.22569  1.0000
  H   H2406     1.0  0.39334  0.79442  0.20762  1.0000
  C   C2973     1.0  0.41806  0.74705  0.19663  1.0000
  H   H2407     1.0  0.14841  0.86944  0.22735  1.0000
  S   S403      1.0  0.39157  0.74081  0.17711  1.0000
  C   C2974     1.0  0.10348  0.79988  0.23319  1.0000
  C   C2975     1.0  0.16826  0.78478  0.22119  1.0000
  H   H2408     1.0  0.43543  0.98426  0.02968  1.0000
  H   H2409     1.0  0.49478  0.82596  0.11761  1.0000
  H   H2410     1.0  0.48638  0.97236  0.08895  1.0000
  C   C2976     1.0  0.40689  0.98414  0.06037  1.0000
  C   C2977     1.0  0.25836  0.74089  0.18376  1.0000
  C   C2978     1.0  0.16340  0.79708  0.22885  1.0000
  H   H2411     1.0  0.24876  0.74585  0.17772  1.0000
  H   H2412     1.0  0.32647  0.94739  0.22526  1.0000
  P   P96       1.0  0.15967  0.83002  0.23377  1.0000
  H   H2413     1.0  0.25233  0.88687  0.23081  1.0000
  H   H2414     1.0  0.19741  0.82983  0.22707  1.0000
  C   C2979     1.0  0.48926  0.78491  0.13728  1.0000
  C   C2980     1.0  0.27259  0.75919  0.14839  1.0000
  C   C2981     1.0  0.31292  0.95016  0.23074  1.0000
  C   C2982     1.0  0.30515  0.81176  0.23257  1.0000
  H   H2415     1.0  0.43305  0.98707  0.00092  1.0000
  H   H2416     1.0  0.37861  0.84679  0.22384  1.0000
  H   H2417     1.0  0.31214  0.75930  0.23295  1.0000
  C   C2983     1.0  0.49279  0.83493  0.09025  1.0000
  C   C2984     1.0  0.35766  0.81235  0.23123  1.0000
  C   C2985     1.0  0.36892  0.83866  0.22868  1.0000
  C   C2986     1.0  0.49645  0.77161  0.14659  1.0000
  H   H2418     1.0  0.49498  0.77407  0.15583  1.0000
  C   C2987     1.0  0.02025  0.74277  0.23219  1.0000
  H   H2419     1.0  0.12485  0.77671  0.23213  1.0000
  C   C2988     1.0  0.50012  0.76510  0.12265  1.0000
  C   C2989     1.0  0.49725  0.84667  0.19604  1.0000
  C   C2990     1.0  0.49833  0.75636  0.19573  1.0000
  C   C2991     1.0  0.36438  0.95588  0.98476  1.0000
  Fe  Fe201     1.0  0.43264  0.95328  0.41372  1.0000
  S   S404      1.0  0.41624  0.93277  0.42355  1.0000
  S   S405      1.0  0.46273  0.94749  0.41120  1.0000
  Fe  Fe202     1.0  0.40054  0.98106  0.40713  1.0000
  S   S406      1.0  0.38125  0.96332  0.41669  1.0000
  C   C2992     1.0  0.25060  0.89251  0.24877  1.0000
  Fe  Fe203     1.0  0.39682  0.95462  0.43205  1.0000
  S   S407      1.0  0.38270  0.95105  0.45259  1.0000
  Fe  Fe204     1.0  0.40190  0.94301  0.40731  1.0000
  S   S408      1.0  0.39662  0.92351  0.39799  1.0000
  S   S409      1.0  0.41409  0.97447  0.42331  1.0000
  S   S410      1.0  0.42038  0.96147  0.39670  1.0000
  Fe  Fe205     1.0  0.04606  0.85584  0.29556  1.0000
  S   S411      1.0  0.04574  0.86240  0.31378  1.0000
  S   S412      1.0  0.02298  0.86447  0.28552  1.0000
  Fe  Fe206     1.0  0.08535  0.83626  0.29240  1.0000
  S   S413      1.0  0.08827  0.84102  0.31041  1.0000
  S   S414      1.0  0.10658  0.82169  0.27868  1.0000
  Fe  Fe207     1.0  0.06120  0.83419  0.31826  1.0000
  S   S415      1.0  0.05389  0.81426  0.33617  1.0000
  Fe  Fe208     1.0  0.07293  0.86862  0.30432  1.0000
  S   S416      1.0  0.08353  0.89307  0.30202  1.0000
  S   S417      1.0  0.05952  0.82745  0.30073  1.0000
  S   S418      1.0  0.07189  0.86427  0.28569  1.0000
  Fe  Fe209     1.0  0.14121  0.92501  0.33394  1.0000
  S   S419      1.0  0.14645  0.94544  0.31607  1.0000
  S   S420      1.0  0.12035  0.90812  0.34038  1.0000
  Fe  Fe210     1.0  0.17283  0.92873  0.34302  1.0000
  S   S421      1.0  0.18117  0.94884  0.32569  1.0000
  S   S422      1.0  0.18340  0.91753  0.36084  1.0000
  Fe  Fe211     1.0  0.15178  0.96098  0.32796  1.0000
  C   C2993     1.0  0.09617  0.97065  0.35903  1.0000
  Fe  Fe212     1.0  0.17531  0.93175  0.31516  1.0000
  S   S423      1.0  0.19270  0.92720  0.29633  1.0000
  S   S424      1.0  0.14371  0.94189  0.34602  1.0000
  S   S425      1.0  0.16980  0.91040  0.33236  1.0000
  Fe  Fe213     1.0  0.28216  0.81046  0.28556  1.0000
  S   S426      1.0  0.26538  0.82651  0.27170  1.0000
  H   H2420     1.0  0.11715  0.79583  0.37346  1.0000
  Fe  Fe214     1.0  0.28389  0.84322  0.29411  1.0000
  S   S427      1.0  0.26718  0.86182  0.28066  1.0000
  S   S428      1.0  0.29381  0.84917  0.30939  1.0000
  Fe  Fe215     1.0  0.25053  0.84128  0.28692  1.0000
  S   S429      1.0  0.22060  0.84717  0.29214  1.0000
  Fe  Fe216     1.0  0.28358  0.84532  0.26654  1.0000
  H   H2421     1.0  0.00027  0.77485  0.29161  1.0000
  S   S430      1.0  0.26585  0.82373  0.30135  1.0000
  S   S431      1.0  0.30175  0.82824  0.27943  1.0000
  Fe  Fe217     1.0  0.27886  0.92836  0.36203  1.0000
  S   S432      1.0  0.28018  0.94526  0.34257  1.0000
  S   S433      1.0  0.25379  0.92116  0.37521  1.0000
  Fe  Fe218     1.0  0.31876  0.92316  0.36090  1.0000
  S   S434      1.0  0.32314  0.93892  0.34095  1.0000
  S   S435      1.0  0.34241  0.90997  0.37057  1.0000
  Fe  Fe219     1.0  0.29826  0.95787  0.34779  1.0000
  H   H2422     1.0  0.03562  0.96267  0.41051  1.0000
  Fe  Fe220     1.0  0.30482  0.92484  0.33722  1.0000
  S   S436      1.0  0.30772  0.91885  0.31801  1.0000
  S   S437      1.0  0.29460  0.94281  0.36798  1.0000
  S   S438      1.0  0.30269  0.90708  0.35658  1.0000
  C   C2994     1.0  0.08637  0.75833  0.33356  1.0000
  C   C2995     1.0  0.11638  0.75534  0.29143  1.0000
  C   C2996     1.0  0.06277  0.74296  0.26197  1.0000
  H   H2423     1.0  0.03040  0.79385  0.28298  1.0000
  C   C2997     1.0  0.25154  0.98446  0.35956  1.0000
  H   H2424     1.0  0.12803  0.82144  0.25324  1.0000
  C   C2998     1.0  0.13588  0.83743  0.23461  1.0000
  C   C2999     1.0  0.38721  0.86169  0.45061  1.0000
  H   H2425     1.0  0.04145  0.74953  0.32168  1.0000
  H   H2426     1.0  0.30426  0.97360  0.36616  1.0000
  H   H2427     1.0  0.33326  0.81069  0.24561  1.0000
  C   C3000     1.0  0.01067  0.77412  0.34133  1.0000
  C   C3001     1.0  0.26093  0.77091  0.29047  1.0000
  H   H2428     1.0  0.42106  0.93935  0.45012  1.0000
  H   H2429     1.0  0.12482  0.79097  0.39405  1.0000
  C   C3002     1.0  0.34227  0.83371  0.24446  1.0000
  C   C3003     1.0  0.27606  0.91278  0.23566  1.0000
  H   H2430     1.0  0.30262  0.74441  0.28773  1.0000
  H   H2431     1.0  0.26106  0.84939  0.24728  1.0000
  C   C3004     1.0  0.29537  0.86943  0.31204  1.0000
  C   C3005     1.0  0.29857  0.86952  0.32369  1.0000
  C   C3006     1.0  0.30132  0.88487  0.32591  1.0000
  C   C3007     1.0  0.30152  0.90017  0.31633  1.0000
  C   C3008     1.0  0.29794  0.90022  0.30477  1.0000
  C   C3009     1.0  0.29455  0.88504  0.30271  1.0000
  H   H2432     1.0  0.29921  0.85755  0.33099  1.0000
  H   H2433     1.0  0.30394  0.88466  0.33487  1.0000
  H   H2434     1.0  0.29800  0.91201  0.29735  1.0000
  H   H2435     1.0  0.29185  0.88522  0.29379  1.0000
  H   H2436     1.0  0.08512  0.79988  0.27382  1.0000
  H   H2437     1.0  0.42374  0.91600  0.34156  1.0000
  C   C3010     1.0  0.40218  0.92075  0.33205  1.0000
  H   H2438     1.0  0.09315  0.80176  0.35720  1.0000
  C   C3011     1.0  0.15664  0.82617  0.25966  1.0000
  C   C3012     1.0  0.47385  0.91687  0.44471  1.0000
  C   C3013     1.0  0.38514  0.83386  0.44710  1.0000
  H   H2439     1.0  0.41227  0.94191  0.27826  1.0000
  C   C3014     1.0  0.34780  0.98599  0.46065  1.0000
  C   C3015     1.0  0.19992  0.90492  0.29504  1.0000
  C   C3016     1.0  0.19344  0.89149  0.30457  1.0000
  C   C3017     1.0  0.19973  0.87377  0.30359  1.0000
  C   C3018     1.0  0.21273  0.86938  0.29315  1.0000
  C   C3019     1.0  0.21931  0.88270  0.28359  1.0000
  C   C3020     1.0  0.21275  0.90049  0.28445  1.0000
  H   H2440     1.0  0.18351  0.89466  0.31268  1.0000
  H   H2441     1.0  0.19493  0.86339  0.31106  1.0000
  H   H2442     1.0  0.22934  0.87922  0.27553  1.0000
  H   H2443     1.0  0.21785  0.91079  0.27705  1.0000
  C   C3021     1.0  0.20371  0.91879  0.36364  1.0000
  C   C3022     1.0  0.20720  0.91035  0.37558  1.0000
  C   C3023     1.0  0.22271  0.91108  0.37875  1.0000
  C   C3024     1.0  0.23504  0.92029  0.37005  1.0000
  C   C3025     1.0  0.23179  0.92873  0.35796  1.0000
  C   C3026     1.0  0.21606  0.92796  0.35473  1.0000
  H   H2444     1.0  0.19777  0.90324  0.38249  1.0000
  H   H2445     1.0  0.22515  0.90446  0.38806  1.0000
  H   H2446     1.0  0.24122  0.93597  0.35120  1.0000
  H   H2447     1.0  0.21342  0.93456  0.34548  1.0000
  C   C3027     1.0  0.09404  0.89665  0.31276  1.0000
  C   C3028     1.0  0.10503  0.90904  0.30851  1.0000
  C   C3029     1.0  0.11325  0.91260  0.31685  1.0000
  C   C3030     1.0  0.11043  0.90391  0.32955  1.0000
  C   C3031     1.0  0.09931  0.89165  0.33384  1.0000
  C   C3032     1.0  0.09122  0.88796  0.32547  1.0000
  H   H2448     1.0  0.10715  0.91597  0.29872  1.0000
  H   H2449     1.0  0.12153  0.92227  0.31350  1.0000
  H   H2450     1.0  0.09701  0.88496  0.34366  1.0000
  H   H2451     1.0  0.08263  0.87858  0.32886  1.0000
  C   C3033     1.0  0.08664  0.80706  0.23987  1.0000
  H   H2452     1.0  0.13846  0.84192  0.38334  1.0000
  C   C3034     1.0  0.01534  0.74463  0.33129  1.0000
  C   C3035     1.0  0.39916  0.93020  0.35132  1.0000
  C   C3036     1.0  0.12192  0.80492  0.28627  1.0000
  C   C3037     1.0  0.13532  0.79335  0.27963  1.0000
  C   C3038     1.0  0.14777  0.78026  0.28584  1.0000
  C   C3039     1.0  0.14676  0.77886  0.29867  1.0000
  C   C3040     1.0  0.13326  0.79030  0.30522  1.0000
  C   C3041     1.0  0.12085  0.80314  0.29907  1.0000
  H   H2453     1.0  0.13619  0.79451  0.26971  1.0000
  H   H2454     1.0  0.42021  0.88640  0.29539  1.0000
  H   H2455     1.0  0.13215  0.78913  0.31513  1.0000
  H   H2456     1.0  0.11046  0.81163  0.30431  1.0000
  C   C3042     1.0  0.08185  0.79025  0.32578  1.0000
  H   H2457     1.0  0.11731  0.89293  0.28235  1.0000
  H   H2458     1.0  0.08634  0.80156  0.31929  1.0000
  C   C3043     1.0  0.05558  0.74745  0.28329  1.0000
  C   C3044     1.0  0.01265  0.83243  0.29486  1.0000
  C   C3045     1.0  0.31646  0.76114  0.25057  1.0000
  C   C3046     1.0  0.02901  0.75389  0.32804  1.0000
  C   C3047     1.0  0.27531  0.79645  0.24013  1.0000
  H   H2459     1.0  0.02201  0.82907  0.30096  1.0000
  H   H2460     1.0  0.25419  0.94127  0.29792  1.0000
  H   H2461     1.0  0.44737  0.96614  0.43198  1.0000
  C   C3048     1.0  0.38050  0.92142  0.39046  1.0000
  C   C3049     1.0  0.36466  0.93411  0.38877  1.0000
  C   C3050     1.0  0.35261  0.93114  0.38265  1.0000
  C   C3051     1.0  0.35638  0.91542  0.37828  1.0000
  C   C3052     1.0  0.37212  0.90291  0.38012  1.0000
  C   C3053     1.0  0.38402  0.90590  0.38607  1.0000
  H   H2462     1.0  0.36167  0.94601  0.39229  1.0000
  H   H2463     1.0  0.34042  0.94087  0.38140  1.0000
  H   H2464     1.0  0.37522  0.89074  0.37686  1.0000
  H   H2465     1.0  0.39608  0.89596  0.38732  1.0000
  H   H2466     1.0  0.03711  0.77601  0.33042  1.0000
  C   C3054     1.0  0.05065  0.75006  0.27184  1.0000
  S   S439      1.0  0.29570  0.85589  0.24610  1.0000
  C   C3055     1.0  0.13392  0.83183  0.38111  1.0000
  C   C3056     1.0  0.14156  0.94669  0.38117  1.0000
  C   C3057     1.0  0.24410  0.84236  0.34165  1.0000
  P   P97       1.0  0.23394  0.86459  0.34399  1.0000
  C   C3058     1.0  0.21072  0.86660  0.35210  1.0000
  C   C3059     1.0  0.24683  0.87017  0.35269  1.0000
  C   C3060     1.0  0.25330  0.88582  0.34827  1.0000
  C   C3061     1.0  0.26343  0.88986  0.35502  1.0000
  C   C3062     1.0  0.26704  0.87846  0.36626  1.0000
  C   C3063     1.0  0.26084  0.86275  0.37065  1.0000
  C   C3064     1.0  0.25087  0.85854  0.36384  1.0000
  C   C3065     1.0  0.19793  0.86657  0.34563  1.0000
  C   C3066     1.0  0.17976  0.86922  0.35145  1.0000
  C   C3067     1.0  0.17418  0.87224  0.36368  1.0000
  C   C3068     1.0  0.23433  0.87985  0.32895  1.0000
  C   C3069     1.0  0.24640  0.87541  0.31805  1.0000
  C   C3070     1.0  0.24656  0.88742  0.30648  1.0000
  C   C3071     1.0  0.23457  0.90375  0.30567  1.0000
  C   C3072     1.0  0.22277  0.90845  0.31650  1.0000
  C   C3073     1.0  0.22265  0.89657  0.32814  1.0000
  H   H2467     1.0  0.27115  0.84592  0.33823  1.0000
  H   H2468     1.0  0.25060  0.89503  0.33966  1.0000
  H   H2469     1.0  0.26814  0.90210  0.35166  1.0000
  H   H2470     1.0  0.27447  0.88197  0.37162  1.0000
  H   H2471     1.0  0.26369  0.85393  0.37936  1.0000
  H   H2472     1.0  0.24616  0.84632  0.36731  1.0000
  H   H2473     1.0  0.20197  0.86503  0.33593  1.0000
  H   H2474     1.0  0.16990  0.86975  0.34629  1.0000
  H   H2475     1.0  0.25569  0.86274  0.31837  1.0000
  H   H2476     1.0  0.25592  0.88400  0.29813  1.0000
  H   H2477     1.0  0.23413  0.91256  0.29658  1.0000
  H   H2478     1.0  0.21349  0.92117  0.31581  1.0000
  H   H2479     1.0  0.21341  0.90041  0.33648  1.0000
  C   C3074     1.0  0.38106  0.93748  0.35151  1.0000
  C   C3075     1.0  0.38395  0.92806  0.33218  1.0000
  C   C3076     1.0  0.37341  0.93628  0.34208  1.0000
  P   P98       1.0  0.37370  0.92576  0.32037  1.0000
  C   C3077     1.0  0.35820  0.94627  0.31565  1.0000
  C   C3078     1.0  0.39077  0.92113  0.30669  1.0000
  C   C3079     1.0  0.39538  0.93493  0.29656  1.0000
  C   C3080     1.0  0.34313  0.94624  0.31145  1.0000
  H   H2480     1.0  0.20910  0.89680  0.24504  1.0000
  H   H2481     1.0  0.06582  0.74940  0.34903  1.0000
  H   H2482     1.0  0.06438  0.95990  0.41624  1.0000
  C   C3081     1.0  0.36082  0.96245  0.31649  1.0000
  C   C3082     1.0  0.36227  0.90759  0.32666  1.0000
  C   C3083     1.0  0.35853  0.90041  0.33969  1.0000
  C   C3084     1.0  0.34909  0.88685  0.34454  1.0000
  C   C3085     1.0  0.34344  0.88022  0.33643  1.0000
  C   C3086     1.0  0.34743  0.88699  0.32343  1.0000
  C   C3087     1.0  0.35690  0.90055  0.31854  1.0000
  H   H2483     1.0  0.37282  0.94357  0.35921  1.0000
  H   H2484     1.0  0.35917  0.94136  0.34272  1.0000
  H   H2485     1.0  0.38869  0.94855  0.29675  1.0000
  H   H2486     1.0  0.34058  0.93410  0.31071  1.0000
  H   H2487     1.0  0.08948  0.94626  0.37111  1.0000
  C   C3088     1.0  0.02664  0.76867  0.33303  1.0000
  H   H2488     1.0  0.46171  0.97757  0.44419  1.0000
  H   H2489     1.0  0.37247  0.96294  0.31946  1.0000
  H   H2490     1.0  0.36258  0.90535  0.34622  1.0000
  H   H2491     1.0  0.34583  0.88180  0.35466  1.0000
  H   H2492     1.0  0.33574  0.87001  0.34023  1.0000
  H   H2493     1.0  0.34267  0.88211  0.31718  1.0000
  H   H2494     1.0  0.35961  0.90580  0.30846  1.0000
  C   C3089     1.0  0.21999  0.79152  0.27845  1.0000
  C   C3090     1.0  0.23189  0.78422  0.26853  1.0000
  C   C3091     1.0  0.10584  0.79579  0.35186  1.0000
  H   H2495     1.0  0.21271  0.78330  0.28634  1.0000
  H   H2496     1.0  0.23351  0.77039  0.26868  1.0000
  C   C3092     1.0  0.37813  0.89810  0.43636  1.0000
  C   C3093     1.0  0.37120  0.89283  0.42810  1.0000
  C   C3094     1.0  0.35901  0.90500  0.42132  1.0000
  C   C3095     1.0  0.35352  0.92249  0.42278  1.0000
  C   C3096     1.0  0.36034  0.92787  0.43093  1.0000
  C   C3097     1.0  0.37290  0.91587  0.43747  1.0000
  H   H2497     1.0  0.42596  0.88366  0.45334  1.0000
  H   H2498     1.0  0.35417  0.90102  0.41465  1.0000
  H   H2499     1.0  0.34435  0.93196  0.41733  1.0000
  H   H2500     1.0  0.35623  0.94148  0.43197  1.0000
  H   H2501     1.0  0.37868  0.92071  0.44316  1.0000
  C   C3098     1.0  0.14331  0.83565  0.30258  1.0000
  C   C3099     1.0  0.15968  0.82777  0.30614  1.0000
  C   C3100     1.0  0.17440  0.83558  0.30047  1.0000
  C   C3101     1.0  0.17289  0.85101  0.29102  1.0000
  C   C3102     1.0  0.15664  0.85875  0.28712  1.0000
  C   C3103     1.0  0.14172  0.85115  0.29316  1.0000
  P   P99       1.0  0.15531  0.87808  0.27433  1.0000
  C   C3104     1.0  0.15206  0.89808  0.27974  1.0000
  C   C3105     1.0  0.17606  0.87521  0.26266  1.0000
  C   C3106     1.0  0.18539  0.88894  0.25741  1.0000
  C   C3107     1.0  0.18362  0.85872  0.25935  1.0000
  C   C3108     1.0  0.15670  0.89753  0.29098  1.0000
  C   C3109     1.0  0.15414  0.91316  0.29501  1.0000
  C   C3110     1.0  0.14719  0.92944  0.28776  1.0000
  C   C3111     1.0  0.14258  0.93012  0.27653  1.0000
  C   C3112     1.0  0.14502  0.91450  0.27251  1.0000
  C   C3113     1.0  0.13621  0.88015  0.26788  1.0000
  C   C3114     1.0  0.13799  0.87359  0.25719  1.0000
  C   C3115     1.0  0.12279  0.87458  0.25282  1.0000
  C   C3116     1.0  0.10585  0.88241  0.25892  1.0000
  C   C3117     1.0  0.11912  0.88802  0.27394  1.0000
  H   H2502     1.0  0.13182  0.82973  0.30711  1.0000
  H   H2503     1.0  0.16088  0.81572  0.31338  1.0000
  H   H2504     1.0  0.18703  0.82977  0.30340  1.0000
  H   H2505     1.0  0.18448  0.85684  0.28669  1.0000
  H   H2506     1.0  0.12888  0.85691  0.29059  1.0000
  H   H2507     1.0  0.18022  0.90165  0.26002  1.0000
  H   H2508     1.0  0.17696  0.84782  0.26355  1.0000
  H   H2509     1.0  0.16244  0.88513  0.29657  1.0000
  H   H2510     1.0  0.15765  0.91273  0.30372  1.0000
  H   H2511     1.0  0.14547  0.94154  0.29084  1.0000
  H   H2512     1.0  0.13713  0.94276  0.27097  1.0000
  H   H2513     1.0  0.14144  0.91525  0.26375  1.0000
  H   H2514     1.0  0.15097  0.86748  0.25236  1.0000
  H   H2515     1.0  0.04220  0.83219  0.23969  1.0000
  C   C3118     1.0  0.34742  0.98870  0.38751  1.0000
  H   H2516     1.0  0.00365  0.75364  0.24792  1.0000
  C   C3119     1.0  0.48140  0.88487  0.44811  1.0000
  C   C3120     1.0  0.38360  0.90463  0.47539  1.0000
  P   P100      1.0  0.27867  0.92188  0.25724  1.0000
  C   C3121     1.0  0.20923  0.86978  0.24563  1.0000
  C   C3122     1.0  0.32639  0.76729  0.25626  1.0000
  C   C3123     1.0  0.29653  0.90592  0.26386  1.0000
  C   C3124     1.0  0.32449  0.88129  0.27396  1.0000
  C   C3125     1.0  0.32205  0.89927  0.27362  1.0000
  C   C3126     1.0  0.30822  0.91157  0.26849  1.0000
  H   H2517     1.0  0.49005  0.87222  0.45096  1.0000
  C   C3127     1.0  0.31991  0.76390  0.23743  1.0000
  H   H2518     1.0  0.49186  0.88691  0.48102  1.0000
  H   H2519     1.0  0.12803  0.75166  0.30738  1.0000
  C   C3128     1.0  0.01002  0.74160  0.24452  1.0000
  H   H2520     1.0  0.33488  0.87168  0.27823  1.0000
  H   H2521     1.0  0.33062  0.90362  0.27760  1.0000
  H   H2522     1.0  0.48131  0.98344  0.46824  1.0000
  C   C3129     1.0  0.12962  0.83469  0.36939  1.0000
  C   C3130     1.0  0.12380  0.82166  0.36638  1.0000
  P   P101      1.0  0.11796  0.82555  0.35129  1.0000
  C   C3131     1.0  0.09535  0.83862  0.35204  1.0000
  C   C3132     1.0  0.13306  0.83798  0.33951  1.0000
  C   C3133     1.0  0.12665  0.85175  0.33002  1.0000
  C   C3134     1.0  0.13767  0.86295  0.32201  1.0000
  C   C3135     1.0  0.15525  0.86026  0.32324  1.0000
  C   C3136     1.0  0.16207  0.84600  0.33218  1.0000
  C   C3137     1.0  0.15103  0.83487  0.34031  1.0000
  C   C3138     1.0  0.08477  0.83725  0.34436  1.0000
  C   C3139     1.0  0.06757  0.84789  0.34460  1.0000
  C   C3140     1.0  0.06085  0.86011  0.35237  1.0000
  C   C3141     1.0  0.07133  0.86172  0.35992  1.0000
  C   C3142     1.0  0.08851  0.85106  0.35976  1.0000
  C   C3143     1.0  0.12022  0.80443  0.34757  1.0000
  C   C3144     1.0  0.13656  0.79608  0.34088  1.0000
  H   H2523     1.0  0.13073  0.84713  0.36271  1.0000
  H   H2524     1.0  0.11304  0.85418  0.32895  1.0000
  H   H2525     1.0  0.13244  0.87391  0.31497  1.0000
  H   H2526     1.0  0.16354  0.86926  0.31726  1.0000
  H   H2527     1.0  0.17584  0.84379  0.33294  1.0000
  H   H2528     1.0  0.15637  0.82416  0.34742  1.0000
  H   H2529     1.0  0.08977  0.82808  0.33809  1.0000
  H   H2530     1.0  0.05946  0.84674  0.33869  1.0000
  H   H2531     1.0  0.04759  0.86846  0.35239  1.0000
  H   H2532     1.0  0.06624  0.87144  0.36577  1.0000
  H   H2533     1.0  0.09646  0.85283  0.36551  1.0000
  H   H2534     1.0  0.14792  0.80229  0.33755  1.0000
  H   H2535     1.0  0.10474  0.75509  0.27649  1.0000
  C   C3145     1.0  0.41564  0.87848  0.43359  1.0000
  C   C3146     1.0  0.48851  0.96901  0.43396  1.0000
  C   C3147     1.0  0.10766  0.77934  0.34918  1.0000
  C   C3148     1.0  0.12387  0.77125  0.34237  1.0000
  C   C3149     1.0  0.07801  0.96859  0.39707  1.0000
  C   C3150     1.0  0.43540  0.88767  0.41358  1.0000
  C   C3151     1.0  0.23606  0.98772  0.34304  1.0000
  H   H2536     1.0  0.30655  0.92546  0.26828  1.0000
  C   C3152     1.0  0.12192  0.80595  0.37541  1.0000
  H   H2537     1.0  0.04337  0.88129  0.24711  1.0000
  C   C3153     1.0  0.34809  0.97811  0.31387  1.0000
  H   H2538     1.0  0.21644  0.95022  0.27478  1.0000
  H   H2539     1.0  0.01826  0.81893  0.26627  1.0000
  H   H2540     1.0  0.02985  0.77397  0.24081  1.0000
  H   H2541     1.0  0.27629  0.79663  0.25911  1.0000
  P   P102      1.0  0.05685  0.80597  0.26007  1.0000
  C   C3154     1.0  0.10318  0.77177  0.24804  1.0000
  H   H2542     1.0  0.08051  0.82073  0.23654  1.0000
  C   C3155     1.0  0.29687  0.80797  0.24533  1.0000
  C   C3156     1.0  0.38856  0.97142  0.37592  1.0000
  C   C3157     1.0  0.40521  0.96103  0.37155  1.0000
  C   C3158     1.0  0.41533  0.96660  0.35956  1.0000
  C   C3159     1.0  0.26957  0.91165  0.24870  1.0000
  H   H2543     1.0  0.00329  0.80815  0.30266  1.0000
  H   H2544     1.0  0.03606  0.86479  0.23421  1.0000
  S   S440      1.0  0.49846  0.97776  0.44240  1.0000
  C   C3160     1.0  0.32832  0.97223  0.41058  1.0000
  C   C3161     1.0  0.32664  0.96969  0.39923  1.0000
  C   C3162     1.0  0.41578  0.89574  0.46925  1.0000
  C   C3163     1.0  0.18587  0.95367  0.41003  1.0000
  H   H2545     1.0  0.42895  0.89525  0.47050  1.0000
  H   H2546     1.0  0.13558  0.81386  0.39906  1.0000
  C   C3164     1.0  0.26475  0.93236  0.28043  1.0000
  H   H2547     1.0  0.42809  0.91088  0.27749  1.0000
  H   H2548     1.0  0.40568  0.74478  0.24374  1.0000
  C   C3165     1.0  0.04405  0.78538  0.29819  1.0000
  C   C3166     1.0  0.04565  0.83917  0.24534  1.0000
  H   H2549     1.0  0.30162  0.81138  0.25230  1.0000
  H   H2550     1.0  0.35806  0.97442  0.35930  1.0000
  H   H2551     1.0  0.04835  0.77982  0.35065  1.0000
  H   H2552     1.0  0.38109  0.96694  0.38532  1.0000
  H   H2553     1.0  0.41039  0.94869  0.37754  1.0000
  H   H2554     1.0  0.42835  0.95861  0.35637  1.0000
  C   C3167     1.0  0.02098  0.80900  0.26076  1.0000
  C   C3168     1.0  0.46661  0.88538  0.44348  1.0000
  H   H2555     1.0  0.11387  0.76959  0.28958  1.0000
  C   C3169     1.0  0.37215  0.84120  0.46756  1.0000
  H   H2556     1.0  0.32082  0.96603  0.41946  1.0000
  H   H2557     1.0  0.31782  0.96153  0.39929  1.0000
  C   C3170     1.0  0.33969  0.77633  0.24882  1.0000
  H   H2558     1.0  0.06089  0.77810  0.31173  1.0000
  C   C3171     1.0  0.17719  0.80470  0.27167  1.0000
  H   H2559     1.0  0.41057  0.91398  0.32474  1.0000
  H   H2560     1.0  0.08669  0.78780  0.29617  1.0000
  C   C3172     1.0  0.38176  0.89822  0.46558  1.0000
  H   H2561     1.0  0.06293  0.83250  0.27127  1.0000
  C   C3173     1.0  0.35098  0.98727  0.35505  1.0000
  C   C3174     1.0  0.33270  0.97777  0.31032  1.0000
  C   C3175     1.0  0.10042  0.97978  0.34644  1.0000
  H   H2562     1.0  0.20876  0.81493  0.28615  1.0000
  C   C3176     1.0  0.12113  0.97999  0.38472  1.0000
  C   C3177     1.0  0.21760  0.80940  0.27834  1.0000
  H   H2563     1.0  0.29093  0.88310  0.26020  1.0000
  C   C3178     1.0  0.03862  0.80021  0.25654  1.0000
  C   C3179     1.0  0.06620  0.79274  0.33504  1.0000
  C   C3180     1.0  0.26283  0.83703  0.33871  1.0000
  C   C3181     1.0  0.18157  0.98566  0.36923  1.0000
  H   H2564     1.0  0.15085  0.77331  0.33290  1.0000
  C   C3182     1.0  0.49351  0.94289  0.47717  1.0000
  S   S441      1.0  0.20319  0.75467  0.28032  1.0000
  C   C3183     1.0  0.31327  0.87564  0.26902  1.0000
  C   C3184     1.0  0.48282  0.92312  0.46965  1.0000
  C   C3185     1.0  0.10406  0.88930  0.26939  1.0000
  H   H2565     1.0  0.26381  0.75709  0.26667  1.0000
  C   C3186     1.0  0.47222  0.95612  0.42002  1.0000
  C   C3187     1.0  0.46172  0.96462  0.42974  1.0000
  C   C3188     1.0  0.20498  0.86968  0.36439  1.0000
  H   H2566     1.0  0.32350  0.76534  0.26647  1.0000
  H   H2567     1.0  0.37551  0.87950  0.42658  1.0000
  C   C3189     1.0  0.13837  0.77952  0.33836  1.0000
  H   H2568     1.0  0.27074  0.97432  0.30702  1.0000
  H   H2569     1.0  0.24024  0.93680  0.25878  1.0000
  C   C3190     1.0  0.33036  0.96189  0.30894  1.0000
  C   C3191     1.0  0.01086  0.84870  0.28624  1.0000
  C   C3192     1.0  0.14688  0.95604  0.38775  1.0000
  C   C3193     1.0  0.18679  0.87241  0.37015  1.0000
  C   C3194     1.0  0.41400  0.88932  0.45943  1.0000
  C   C3195     1.0  0.29937  0.88787  0.26398  1.0000
  H   H2570     1.0  0.31516  0.86172  0.26924  1.0000
  C   C3196     1.0  0.41519  0.94124  0.45962  1.0000
  S   S442      1.0  0.19702  0.75166  0.24790  1.0000
  C   C3197     1.0  0.25105  0.75806  0.29185  1.0000
  C   C3198     1.0  0.23370  0.83084  0.34159  1.0000
  H   H2571     1.0  0.21928  0.83461  0.34362  1.0000
  H   H2572     1.0  0.27792  0.92713  0.28245  1.0000
  C   C3199     1.0  0.34356  0.98881  0.34482  1.0000
  Fe  Fe221     1.0  0.18100  0.74448  0.29503  1.0000
  H   H2573     1.0  0.05524  0.78080  0.24576  1.0000
  C   C3200     1.0  0.27102  0.82055  0.33567  1.0000
  H   H2574     1.0  0.21432  0.87076  0.36938  1.0000
  H   H2575     1.0  0.34437  0.97715  0.34149  1.0000
  C   C3201     1.0  0.22678  0.82015  0.26819  1.0000
  H   H2576     1.0  0.08468  0.85373  0.23615  1.0000
  C   C3202     1.0  0.46986  0.97104  0.43669  1.0000
  H   H2577     1.0  0.40485  0.93070  0.35890  1.0000
  H   H2578     1.0  0.28548  0.81691  0.33290  1.0000
  H   H2579     1.0  0.18240  0.87557  0.37940  1.0000
  C   C3203     1.0  0.39696  0.89052  0.45748  1.0000
  H   H2580     1.0  0.40864  0.90182  0.41937  1.0000
  H   H2581     1.0  0.09639  0.77297  0.35220  1.0000
  H   H2582     1.0  0.45612  0.84941  0.43056  1.0000
  H   H2583     1.0  0.46167  0.87092  0.41014  1.0000
  C   C3204     1.0  0.37782  0.85722  0.46313  1.0000
  H   H2584     1.0  0.09039  0.96731  0.39980  1.0000
  C   C3205     1.0  0.39669  0.94722  0.46322  1.0000
  C   C3206     1.0  0.24161  0.79482  0.25853  1.0000
  H   H2585     1.0  0.47671  0.92926  0.44477  1.0000
  C   C3207     1.0  0.38539  0.76538  0.23587  1.0000
  P   P103      1.0  0.39451  0.88241  0.44467  1.0000
  C   C3208     1.0  0.44571  0.86088  0.42819  1.0000
  C   C3209     1.0  0.09265  0.95369  0.36151  1.0000
  H   H2586     1.0  0.25222  0.89965  0.26537  1.0000
  H   H2587     1.0  0.44023  0.93196  0.46572  1.0000
  H   H2588     1.0  0.16005  0.87513  0.36796  1.0000
  H   H2589     1.0  0.12506  0.75870  0.34002  1.0000
  C   C3210     1.0  0.40293  0.75572  0.23591  1.0000
  C   C3211     1.0  0.07362  0.79562  0.28046  1.0000
  C   C3212     1.0  0.40974  0.92186  0.34159  1.0000
  C   C3213     1.0  0.40878  0.93122  0.28606  1.0000
  C   C3214     1.0  0.38175  0.98734  0.36813  1.0000
  C   C3215     1.0  0.41887  0.89038  0.42198  1.0000
  H   H2590     1.0  0.43769  0.89710  0.40465  1.0000
  H   H2591     1.0  0.23389  0.80559  0.33833  1.0000
  H   H2592     1.0  0.20583  0.84322  0.24841  1.0000
  C   C3216     1.0  0.04644  0.86694  0.24933  1.0000
  C   C3217     1.0  0.21990  0.98814  0.35189  1.0000
  H   H2593     1.0  0.46394  0.87323  0.44281  1.0000
  C   C3218     1.0  0.42600  0.93707  0.46847  1.0000
  H   H2594     1.0  0.14490  0.83683  0.25948  1.0000
  C   C3219     1.0  0.23005  0.94558  0.27618  1.0000
  H   H2595     1.0  0.15458  0.82319  0.27954  1.0000
  H   H2596     1.0  0.22502  0.83401  0.26819  1.0000
  C   C3220     1.0  0.39988  0.90361  0.30621  1.0000
  H   H2597     1.0  0.09948  0.94870  0.33145  1.0000
  C   C3221     1.0  0.23862  0.81295  0.25829  1.0000
  H   H2598     1.0  0.39671  0.89278  0.31400  1.0000
  H   H2599     1.0  0.09406  0.88297  0.25566  1.0000
  C   C3222     1.0  0.09363  0.94594  0.35160  1.0000
  H   H2600     1.0  0.14977  0.93399  0.37948  1.0000
  C   C3223     1.0  0.26059  0.80919  0.33561  1.0000
  C   C3224     1.0  0.24194  0.81430  0.33861  1.0000
  C   C3225     1.0  0.30564  0.93638  0.23928  1.0000
  C   C3226     1.0  0.20007  0.85605  0.25083  1.0000
  C   C3227     1.0  0.16222  0.81864  0.27106  1.0000
  H   H2601     1.0  0.08011  0.77080  0.26326  1.0000
  C   C3228     1.0  0.04177  0.78758  0.24928  1.0000
  H   H2602     1.0  0.14632  0.98135  0.35291  1.0000
  C   C3229     1.0  0.07808  0.79670  0.25083  1.0000
  H   H2603     1.0  0.24116  0.88420  0.25386  1.0000
  C   C3230     1.0  0.26673  0.76322  0.24650  1.0000
  C   C3231     1.0  0.42918  0.86365  0.43665  1.0000
  H   H2604     1.0  0.33438  0.97593  0.37909  1.0000
  C   C3232     1.0  0.25988  0.74054  0.29130  1.0000
  C   C3233     1.0  0.45545  0.90160  0.43948  1.0000
  C   C3234     1.0  0.23394  0.94717  0.28712  1.0000
  H   H2605     1.0  0.18108  0.79852  0.28063  1.0000
  H   H2606     1.0  0.22523  0.95352  0.38079  1.0000
  H   H2607     1.0  0.15709  0.79323  0.23870  1.0000
  C   C3235     1.0  0.05774  0.79751  0.27656  1.0000
  H   H2608     1.0  0.19823  0.78748  0.26124  1.0000
  H   H2609     1.0  0.18881  0.80066  0.24120  1.0000
  C   C3236     1.0  0.44885  0.87295  0.41668  1.0000
  H   H2610     1.0  0.42696  0.85430  0.44559  1.0000
  C   C3237     1.0  0.27475  0.75677  0.23541  1.0000
  H   H2611     1.0  0.09132  0.93270  0.35355  1.0000
  C   C3238     1.0  0.34189  0.97292  0.47080  1.0000
  H   H2612     1.0  0.12220  0.94636  0.37138  1.0000
  H   H2613     1.0  0.22333  0.95297  0.29413  1.0000
  H   H2614     1.0  0.24566  0.82150  0.25051  1.0000
  C   C3239     1.0  0.41770  0.91374  0.28562  1.0000
  C   C3240     1.0  0.41326  0.89995  0.29570  1.0000
  H   H2615     1.0  0.12399  0.86909  0.24483  1.0000
  H   H2616     1.0  0.41654  0.98684  0.34250  1.0000
  C   C3241     1.0  0.33612  0.97792  0.38773  1.0000
  H   H2617     1.0  0.04612  0.75255  0.29108  1.0000
  H   H2618     1.0  0.45046  0.92986  0.43700  1.0000
  H   H2619     1.0  0.37478  0.86600  0.46951  1.0000
  H   H2620     1.0  0.16859  0.74179  0.33130  1.0000
  C   C3242     1.0  0.13663  0.97266  0.38956  1.0000
  H   H2621     1.0  0.47176  0.91779  0.46959  1.0000
  C   C3243     1.0  0.48512  0.90064  0.44877  1.0000
  C   C3244     1.0  0.18548  0.96826  0.39985  1.0000
  H   H2622     1.0  0.15918  0.95058  0.39115  1.0000
  C   C3245     1.0  0.26104  0.93096  0.26929  1.0000
  C   C3246     1.0  0.07470  0.78854  0.29309  1.0000
  H   H2623     1.0  0.09584  0.83248  0.25436  1.0000
  C   C3247     1.0  0.09820  0.95498  0.33911  1.0000
  C   C3248     1.0  0.18668  0.79836  0.26083  1.0000
  C   C3249     1.0  0.35491  0.84405  0.23836  1.0000
  S   S443      1.0  0.16173  0.76265  0.30690  1.0000
  H   H2624     1.0  0.22604  0.92833  0.39883  1.0000
  H   H2625     1.0  0.41805  0.97842  0.45254  1.0000
  C   C3250     1.0  0.21472  0.93950  0.39919  1.0000
  H   H2626     1.0  0.26699  0.79661  0.33293  1.0000
  H   H2627     1.0  0.17402  0.97928  0.40014  1.0000
  C   C3251     1.0  0.12622  0.80315  0.38714  1.0000
  C   C3252     1.0  0.21431  0.95400  0.38897  1.0000
  H   H2628     1.0  0.30596  0.75444  0.25637  1.0000
  C   C3253     1.0  0.11131  0.74702  0.28402  1.0000
  C   C3254     1.0  0.18115  0.80582  0.24944  1.0000
  P   P104      1.0  0.25628  0.78637  0.24518  1.0000
  H   H2629     1.0  0.39802  0.85298  0.43293  1.0000
  C   C3255     1.0  0.45898  0.91728  0.44023  1.0000
  C   C3256     1.0  0.05418  0.85774  0.25963  1.0000
  C   C3257     1.0  0.25129  0.94053  0.28925  1.0000
  H   H2630     1.0  0.19492  0.95927  0.36626  1.0000
  C   C3258     1.0  0.28516  0.97100  0.23619  1.0000
  C   C3259     1.0  0.06027  0.97599  0.38122  1.0000
  H   H2631     1.0  0.25413  0.78451  0.29065  1.0000
  C   C3260     1.0  0.39085  0.84985  0.44264  1.0000
  H   H2632     1.0  0.09094  0.89529  0.27424  1.0000
  H   H2633     1.0  0.23667  0.76159  0.29328  1.0000
  H   H2634     1.0  0.38520  0.98512  0.45679  1.0000
  C   C3261     1.0  0.17080  0.96867  0.35922  1.0000
  C   C3262     1.0  0.19984  0.96865  0.38934  1.0000
  C   C3263     1.0  0.20053  0.93931  0.40971  1.0000
  H   H2635     1.0  0.20088  0.92798  0.41757  1.0000
  C   C3264     1.0  0.28221  0.80001  0.24914  1.0000
  H   H2636     1.0  0.44423  0.90212  0.43560  1.0000
  C   C3265     1.0  0.00865  0.74764  0.28985  1.0000
  H   H2637     1.0  0.17481  0.95348  0.41815  1.0000
  C   C3266     1.0  0.13227  0.81605  0.38997  1.0000
  H   H2638     1.0  0.35368  0.85633  0.24105  1.0000
  C   C3267     1.0  0.16592  0.81966  0.24878  1.0000
  H   H2639     1.0  0.03246  0.78178  0.30509  1.0000
  H   H2640     1.0  0.15815  0.77139  0.28071  1.0000
  C   C3268     1.0  0.05998  0.78331  0.30193  1.0000
  H   H2641     1.0  0.26383  0.98310  0.36247  1.0000
  C   C3269     1.0  0.05740  0.83926  0.26300  1.0000
  H   H2642     1.0  0.10957  0.75811  0.25120  1.0000
  H   H2643     1.0  0.34722  0.78097  0.25344  1.0000
  C   C3270     1.0  0.00988  0.79251  0.25068  1.0000
  H   H2644     1.0  0.03298  0.97300  0.38811  1.0000
  C   C3271     1.0  0.37579  0.82954  0.45956  1.0000
  H   H2645     1.0  0.37189  0.91106  0.48136  1.0000
  C   C3272     1.0  0.27964  0.76603  0.28883  1.0000
  H   H2646     1.0  0.36848  0.89955  0.46419  1.0000
  S   S444      1.0  0.29317  0.78120  0.28663  1.0000
  H   H2647     1.0  0.26418  0.96031  0.24997  1.0000
  C   C3273     1.0  0.12450  0.74528  0.30139  1.0000
  C   C3274     1.0  0.11177  0.78224  0.23728  1.0000
  H   H2648     1.0  0.05694  0.86505  0.26536  1.0000
  H   H2649     1.0  0.37488  0.76168  0.24376  1.0000
  C   C3275     1.0  0.07032  0.76075  0.34254  1.0000
  C   C3276     1.0  0.28804  0.93983  0.24639  1.0000
  C   C3277     1.0  0.33963  0.98286  0.41044  1.0000
  C   C3278     1.0  0.18347  0.97014  0.36511  1.0000
  C   C3279     1.0  0.09207  0.77314  0.32520  1.0000
  C   C3280     1.0  0.06048  0.77796  0.34347  1.0000
  C   C3281     1.0  0.26695  0.98813  0.30762  1.0000
  C   C3282     1.0  0.05310  0.82983  0.25588  1.0000
  H   H2650     1.0  0.17244  0.95677  0.35591  1.0000
  H   H2651     1.0  0.10453  0.77142  0.31833  1.0000
  C   C3283     1.0  0.38918  0.94972  0.47557  1.0000
  P   P105      1.0  0.09542  0.98008  0.37207  1.0000
  C   C3284     1.0  0.04291  0.79240  0.28556  1.0000
  C   C3285     1.0  0.08645  0.77897  0.25481  1.0000
  C   C3286     1.0  0.04555  0.97175  0.39062  1.0000
  C   C3287     1.0  0.12598  0.95390  0.37642  1.0000
  H   H2652     1.0  0.31831  0.96146  0.30640  1.0000
  H   H2653     1.0  0.34016  0.96100  0.46901  1.0000
  C   C3288     1.0  0.25692  0.90127  0.25524  1.0000
  H   H2654     1.0  0.01674  0.74370  0.29690  1.0000
  C   C3289     1.0  0.24353  0.93764  0.26726  1.0000
  H   H2655     1.0  0.23251  0.76806  0.24056  1.0000
  C   C3290     1.0  0.26897  0.75209  0.25815  1.0000
  C   C3291     1.0  0.02741  0.78370  0.24642  1.0000
  C   C3292     1.0  0.20189  0.88621  0.24892  1.0000
  C   C3293     1.0  0.28610  0.85295  0.23462  1.0000
  C   C3294     1.0  0.00193  0.82064  0.29587  1.0000
  H   H2656     1.0  0.46606  0.94070  0.48168  1.0000
  C   C3295     1.0  0.12357  0.83109  0.24531  1.0000
  C   C3296     1.0  0.04704  0.96593  0.40323  1.0000
  C   C3297     1.0  0.47951  0.93600  0.47666  1.0000
  C   C3298     1.0  0.00669  0.80514  0.25786  1.0000
  P   P106      1.0  0.19875  0.98734  0.37616  1.0000
  H   H2657     1.0  0.38791  0.82486  0.44087  1.0000
  C   C3299     1.0  0.15602  0.98254  0.35758  1.0000
  H   H2658     1.0  0.22208  0.86766  0.23914  1.0000
  H   H2659     1.0  0.49907  0.94745  0.40992  1.0000
  H   H2660     1.0  0.28571  0.98518  0.31904  1.0000
  C   C3300     1.0  0.26884  0.84975  0.23777  1.0000
  C   C3301     1.0  0.23540  0.98484  0.36845  1.0000
  C   C3302     1.0  0.49897  0.96036  0.42435  1.0000
  S   S445      1.0  0.29781  0.98713  0.34089  1.0000
  H   H2661     1.0  0.23633  0.98901  0.33318  1.0000
  C   C3303     1.0  0.11570  0.97068  0.37806  1.0000
  H   H2662     1.0  0.30150  0.98845  0.38325  1.0000
  H   H2663     1.0  0.26429  0.98546  0.34007  1.0000
  H   H2664     1.0  0.14094  0.98007  0.39445  1.0000
  C   C3304     1.0  0.09894  0.84904  0.23563  1.0000
  C   C3305     1.0  0.06325  0.96437  0.40645  1.0000
  H   H2665     1.0  0.49091  0.95284  0.48260  1.0000
  H   H2666     1.0  0.17777  0.98443  0.32598  1.0000
  H   H2667     1.0  0.36485  0.83786  0.47721  1.0000
  C   C3306     1.0  0.21953  0.98634  0.36470  1.0000
  H   H2668     1.0  0.35059  0.98393  0.45113  1.0000
  H   H2669     1.0  0.03739  0.75745  0.27065  1.0000
  C   C3307     1.0  0.10519  0.83713  0.24589  1.0000
  C   C3308     1.0  0.34286  0.77972  0.23557  1.0000
  C   C3309     1.0  0.04226  0.85765  0.24213  1.0000
  H   H2670     1.0  0.05884  0.74479  0.25315  1.0000
  C   C3310     1.0  0.34357  0.81801  0.24090  1.0000
  H   H2671     1.0  0.23532  0.98389  0.37823  1.0000
  C   C3311     1.0  0.40060  0.90330  0.47726  1.0000
  H   H2672     1.0  0.31367  0.92300  0.24024  1.0000
  H   H2673     1.0  0.33119  0.83804  0.25181  1.0000
  C   C3312     1.0  0.07663  0.97437  0.38437  1.0000
  H   H2674     1.0  0.00410  0.86231  0.31271  1.0000
  C   C3313     1.0  0.10152  0.97191  0.33654  1.0000
  H   H2675     1.0  0.10542  0.97883  0.32686  1.0000
  H   H2676     1.0  0.37131  0.81718  0.46299  1.0000
  C   C3314     1.0  0.49086  0.95400  0.41740  1.0000
  H   H2677     1.0  0.37492  0.95433  0.47840  1.0000
  C   C3315     1.0  0.41845  0.93933  0.48088  1.0000
  C   C3316     1.0  0.28824  0.74835  0.28883  1.0000
  H   H2678     1.0  0.05890  0.98057  0.37148  1.0000
  C   C3317     1.0  0.27783  0.95725  0.24474  1.0000
  C   C3318     1.0  0.40869  0.98249  0.35179  1.0000
  C   C3319     1.0  0.33900  0.97490  0.48317  1.0000
  H   H2679     1.0  0.27720  0.98441  0.23496  1.0000
  C   C3320     1.0  0.29974  0.98773  0.36470  1.0000
  C   C3321     1.0  0.25692  0.89396  0.23578  1.0000
  H   H2680     1.0  0.34103  0.98486  0.41921  1.0000
  H   H2681     1.0  0.00889  0.78569  0.34507  1.0000
  C   C3322     1.0  0.25183  0.98585  0.34690  1.0000
  H   H2682     1.0  0.32242  0.98971  0.30887  1.0000
  H   H2683     1.0  0.20777  0.99008  0.34866  1.0000
  C   C3323     1.0  0.23209  0.78066  0.23387  1.0000
  C   C3324     1.0  0.24245  0.79227  0.23383  1.0000
  Fe  Fe222     1.0  0.42236  0.97820  0.51692  1.0000
  S   S446      1.0  0.41233  0.96761  0.53750  1.0000
  C   C3325     1.0  0.17641  0.78825  0.59641  1.0000
  Fe  Fe223     1.0  0.42357  0.94480  0.50908  1.0000
  S   S447      1.0  0.41390  0.93098  0.52905  1.0000
  H   H2684     1.0  0.12204  0.76622  0.64628  1.0000
  Fe  Fe224     1.0  0.39435  0.95666  0.53086  1.0000
  S   S448      1.0  0.36510  0.95800  0.53995  1.0000
  Fe  Fe225     1.0  0.43278  0.94290  0.53416  1.0000
  S   S449      1.0  0.40250  0.96959  0.51046  1.0000
  S   S450      1.0  0.44428  0.95438  0.51402  1.0000
  Fe  Fe226     1.0  0.31923  0.95803  0.60817  1.0000
  S   S451      1.0  0.31190  0.96148  0.62816  1.0000
  S   S452      1.0  0.34836  0.95003  0.59915  1.0000
  Fe  Fe227     1.0  0.28090  0.97010  0.60493  1.0000
  S   S453      1.0  0.27026  0.97497  0.62447  1.0000
  S   S454      1.0  0.26450  0.97488  0.59047  1.0000
  C   C3326     1.0  0.06448  0.76944  0.57523  1.0000
  S   S455      1.0  0.14733  0.74959  0.71517  1.0000
  Fe  Fe228     1.0  0.28888  0.94920  0.63025  1.0000
  S   S456      1.0  0.27865  0.93105  0.64827  1.0000
  S   S457      1.0  0.30312  0.98443  0.60055  1.0000
  S   S458      1.0  0.29779  0.94327  0.61091  1.0000
  S   S459      1.0  0.14432  0.78315  0.65335  1.0000
  Fe  Fe229     1.0  0.07200  0.84870  0.64065  1.0000
  S   S460      1.0  0.10024  0.84996  0.63026  1.0000
  S   S461      1.0  0.06800  0.83214  0.66044  1.0000
  Fe  Fe230     1.0  0.05638  0.87015  0.61836  1.0000
  S   S462      1.0  0.08337  0.87283  0.60611  1.0000
  S   S463      1.0  0.03256  0.88202  0.60930  1.0000
  Fe  Fe231     1.0  0.09226  0.84405  0.61451  1.0000
  S   S464      1.0  0.11311  0.82624  0.60275  1.0000
  Fe  Fe232     1.0  0.08899  0.87838  0.62293  1.0000
  S   S465      1.0  0.10575  0.89864  0.61898  1.0000
  S   S466      1.0  0.06481  0.84083  0.62537  1.0000
  S   S467      1.0  0.06122  0.87796  0.63465  1.0000
  Fe  Fe233     1.0  0.14648  0.94280  0.65313  1.0000
  S   S468      1.0  0.15230  0.95531  0.66674  1.0000
  S   S469      1.0  0.12469  0.92703  0.65984  1.0000
  Fe  Fe234     1.0  0.17660  0.95484  0.63193  1.0000
  S   S470      1.0  0.18518  0.96802  0.64374  1.0000
  S   S471      1.0  0.18893  0.95411  0.61147  1.0000
  Fe  Fe235     1.0  0.18101  0.94392  0.65895  1.0000
  S   S472      1.0  0.20105  0.93057  0.67118  1.0000
  Fe  Fe236     1.0  0.15587  0.97848  0.65044  1.0000
  H   H2685     1.0  0.42933  0.97383  0.56223  1.0000
  S   S473      1.0  0.17508  0.92969  0.64652  1.0000
  S   S474      1.0  0.14736  0.96699  0.63744  1.0000
  Fe  Fe237     1.0  0.25793  0.80248  0.66525  1.0000
  S   S475      1.0  0.24459  0.80323  0.68543  1.0000
  S   S476      1.0  0.26029  0.78279  0.65365  1.0000
  Fe  Fe238     1.0  0.27275  0.83540  0.66093  1.0000
  S   S477      1.0  0.26090  0.83915  0.68078  1.0000
  S   S478      1.0  0.28980  0.85148  0.64503  1.0000
  Fe  Fe239     1.0  0.26973  0.80973  0.68660  1.0000
  C   C3327     1.0  0.01049  0.77123  0.56560  1.0000
  Fe  Fe240     1.0  0.23666  0.83266  0.67811  1.0000
  S   S479      1.0  0.20834  0.84786  0.68287  1.0000
  S   S480      1.0  0.28389  0.80644  0.66697  1.0000
  S   S481      1.0  0.24774  0.83129  0.65785  1.0000
  C   C3328     1.0  0.47800  0.93955  0.54424  1.0000
  C   C3329     1.0  0.06393  0.95171  0.59076  1.0000
  C   C3330     1.0  0.32291  0.85732  0.60583  1.0000
  C   C3331     1.0  0.16035  0.78359  0.60345  1.0000
  H   H2686     1.0  0.26069  0.82768  0.71019  1.0000
  C   C3332     1.0  0.20290  0.90763  0.67481  1.0000
  C   C3333     1.0  0.18894  0.90064  0.67434  1.0000
  C   C3334     1.0  0.19080  0.88229  0.67677  1.0000
  C   C3335     1.0  0.20659  0.87083  0.67960  1.0000
  C   C3336     1.0  0.22062  0.87782  0.68000  1.0000
  C   C3337     1.0  0.21870  0.89621  0.67773  1.0000
  H   H2687     1.0  0.17665  0.90938  0.67216  1.0000
  H   H2688     1.0  0.18007  0.87705  0.67618  1.0000
  H   H2689     1.0  0.23289  0.86915  0.68209  1.0000
  H   H2690     1.0  0.22968  0.90166  0.67772  1.0000
  H   H2691     1.0  0.07783  0.74806  0.65315  1.0000
  H   H2692     1.0  0.12653  0.80790  0.72816  1.0000
  H   H2693     1.0  0.41259  0.96748  0.64046  1.0000
  H   H2694     1.0  0.33474  0.96460  0.49102  1.0000
  H   H2695     1.0  0.04431  0.79529  0.51507  1.0000
  H   H2696     1.0  0.48193  0.96242  0.58116  1.0000
  H   H2697     1.0  0.48862  0.91501  0.57700  1.0000
  C   C3338     1.0  0.32104  0.82075  0.67220  1.0000
  C   C3339     1.0  0.39998  0.98330  0.58333  1.0000
  C   C3340     1.0  0.01942  0.78210  0.66863  1.0000
  C   C3341     1.0  0.12001  0.91843  0.64861  1.0000
  C   C3342     1.0  0.12897  0.92184  0.63599  1.0000
  C   C3343     1.0  0.12458  0.91546  0.62708  1.0000
  C   C3344     1.0  0.11123  0.90562  0.63070  1.0000
  C   C3345     1.0  0.10241  0.90199  0.64336  1.0000
  C   C3346     1.0  0.10678  0.90843  0.65230  1.0000
  H   H2698     1.0  0.13915  0.92958  0.63306  1.0000
  H   H2699     1.0  0.13146  0.91832  0.61734  1.0000
  H   H2700     1.0  0.09204  0.89450  0.64621  1.0000
  H   H2701     1.0  0.09968  0.90592  0.66204  1.0000
  C   C3347     1.0  0.11069  0.80709  0.59913  1.0000
  C   C3348     1.0  0.12471  0.79934  0.59042  1.0000
  C   C3349     1.0  0.12443  0.78361  0.58755  1.0000
  C   C3350     1.0  0.11008  0.77527  0.59329  1.0000
  C   C3351     1.0  0.09549  0.78334  0.60164  1.0000
  C   C3352     1.0  0.09588  0.79919  0.60468  1.0000
  H   H2702     1.0  0.13604  0.80547  0.58595  1.0000
  H   H2703     1.0  0.13556  0.77776  0.58090  1.0000
  C   C3353     1.0  0.18897  0.80011  0.71273  1.0000
  H   H2704     1.0  0.08488  0.80519  0.61132  1.0000
  C   C3354     1.0  0.42329  0.95214  0.62609  1.0000
  C   C3355     1.0  0.23112  0.76821  0.66758  1.0000
  C   C3356     1.0  0.24666  0.76724  0.65802  1.0000
  C   C3357     1.0  0.17548  0.79103  0.71433  1.0000
  H   H2705     1.0  0.22732  0.77862  0.67278  1.0000
  H   H2706     1.0  0.35498  0.86558  0.63395  1.0000
  C   C3358     1.0  0.08717  0.81506  0.65955  1.0000
  C   C3359     1.0  0.09479  0.80643  0.67005  1.0000
  C   C3360     1.0  0.11213  0.79561  0.66837  1.0000
  C   C3361     1.0  0.12184  0.79410  0.65618  1.0000
  C   C3362     1.0  0.11371  0.80189  0.64591  1.0000
  C   C3363     1.0  0.09619  0.81170  0.64769  1.0000
  H   H2707     1.0  0.08768  0.80875  0.67930  1.0000
  H   H2708     1.0  0.11834  0.78919  0.67634  1.0000
  H   H2709     1.0  0.12093  0.80045  0.63650  1.0000
  H   H2710     1.0  0.09000  0.81737  0.63968  1.0000
  C   C3364     1.0  0.28120  0.90919  0.64707  1.0000
  C   C3365     1.0  0.27118  0.89807  0.65641  1.0000
  C   C3366     1.0  0.27354  0.88037  0.65578  1.0000
  C   C3367     1.0  0.28616  0.87369  0.64591  1.0000
  C   C3368     1.0  0.29629  0.88479  0.63666  1.0000
  C   C3369     1.0  0.29374  0.90253  0.63719  1.0000
  H   H2711     1.0  0.26151  0.90317  0.66411  1.0000
  H   H2712     1.0  0.26557  0.87199  0.66291  1.0000
  H   H2713     1.0  0.30621  0.87970  0.62913  1.0000
  H   H2714     1.0  0.30172  0.91093  0.63011  1.0000
  C   C3370     1.0  0.24359  0.96896  0.59664  1.0000
  C   C3371     1.0  0.23643  0.96546  0.60964  1.0000
  C   C3372     1.0  0.21970  0.96077  0.61431  1.0000
  C   C3373     1.0  0.21015  0.95942  0.60600  1.0000
  C   C3374     1.0  0.21748  0.96261  0.59301  1.0000
  C   C3375     1.0  0.23406  0.96752  0.58835  1.0000
  H   H2715     1.0  0.24372  0.96633  0.61614  1.0000
  H   H2716     1.0  0.21438  0.95793  0.62435  1.0000
  H   H2717     1.0  0.21018  0.96158  0.58654  1.0000
  H   H2718     1.0  0.23954  0.97016  0.57829  1.0000
  C   C3376     1.0  0.04075  0.76824  0.64091  1.0000
  H   H2719     1.0  0.38405  0.91617  0.55092  1.0000
  C   C3377     1.0  0.47082  0.91996  0.56450  1.0000
  C   C3378     1.0  0.33911  0.89081  0.60796  1.0000
  C   C3379     1.0  0.05708  0.91948  0.60607  1.0000
  C   C3380     1.0  0.31363  0.85077  0.68243  1.0000
  C   C3381     1.0  0.48588  0.92171  0.56778  1.0000
  H   H2720     1.0  0.06392  0.77218  0.58422  1.0000
  H   H2721     1.0  0.34929  0.86267  0.61433  1.0000
  C   C3382     1.0  0.45724  0.97359  0.55876  1.0000
  C   C3383     1.0  0.23352  0.78304  0.72170  1.0000
  H   H2722     1.0  0.42989  0.94075  0.63219  1.0000
  H   H2723     1.0  0.49418  0.98447  0.53468  1.0000
  H   H2724     1.0  0.31452  0.83291  0.61537  1.0000
  H   H2725     1.0  0.44597  0.89907  0.53638  1.0000
  H   H2726     1.0  0.39409  0.94766  0.49390  1.0000
  C   C3384     1.0  0.10824  0.76256  0.63359  1.0000
  C   C3385     1.0  0.46458  0.89898  0.50544  1.0000
  C   C3386     1.0  0.36038  0.95564  0.55640  1.0000
  C   C3387     1.0  0.34258  0.95880  0.56314  1.0000
  C   C3388     1.0  0.33874  0.95721  0.57628  1.0000
  C   C3389     1.0  0.35270  0.95214  0.58272  1.0000
  C   C3390     1.0  0.37042  0.94881  0.57597  1.0000
  C   C3391     1.0  0.37428  0.95071  0.56285  1.0000
  H   H2727     1.0  0.33179  0.96252  0.55818  1.0000
  H   H2728     1.0  0.32500  0.95971  0.58144  1.0000
  H   H2729     1.0  0.38126  0.94471  0.58084  1.0000
  H   H2730     1.0  0.38803  0.94799  0.55777  1.0000
  H   H2731     1.0  0.36991  0.89550  0.59076  1.0000
  H   H2732     1.0  0.00129  0.88059  0.60190  1.0000
  C   C3392     1.0  0.09121  0.95409  0.62965  1.0000
  H   H2733     1.0  0.20830  0.75664  0.67750  1.0000
  H   H2734     1.0  0.05590  0.75687  0.68012  1.0000
  H   H2735     1.0  0.04275  0.91928  0.59250  1.0000
  P   P107      1.0  0.33394  0.88911  0.59374  1.0000
  C   C3393     1.0  0.33251  0.86663  0.59478  1.0000
  C   C3394     1.0  0.31266  0.90406  0.59197  1.0000
  C   C3395     1.0  0.29651  0.89826  0.59678  1.0000
  C   C3396     1.0  0.28028  0.90991  0.59508  1.0000
  C   C3397     1.0  0.27995  0.92749  0.58870  1.0000
  C   C3398     1.0  0.29589  0.93341  0.58394  1.0000
  C   C3399     1.0  0.31216  0.92180  0.58560  1.0000
  C   C3400     1.0  0.34110  0.85815  0.58468  1.0000
  C   C3401     1.0  0.34003  0.84074  0.58563  1.0000
  C   C3402     1.0  0.33043  0.83165  0.59665  1.0000
  C   C3403     1.0  0.35060  0.89636  0.58014  1.0000
  C   C3404     1.0  0.37494  0.91024  0.55901  1.0000
  C   C3405     1.0  0.35892  0.90798  0.55754  1.0000
  C   C3406     1.0  0.34683  0.90097  0.56803  1.0000
  H   H2736     1.0  0.33190  0.91939  0.60391  1.0000
  H   H2737     1.0  0.29621  0.88486  0.60191  1.0000
  H   H2738     1.0  0.26793  0.90533  0.59880  1.0000
  H   H2739     1.0  0.26733  0.93662  0.58760  1.0000
  H   H2740     1.0  0.29556  0.94716  0.57922  1.0000
  H   H2741     1.0  0.32431  0.92679  0.58202  1.0000
  H   H2742     1.0  0.34873  0.86482  0.57609  1.0000
  H   H2743     1.0  0.34672  0.83427  0.57782  1.0000
  H   H2744     1.0  0.35571  0.91215  0.54828  1.0000
  H   H2745     1.0  0.33429  0.89964  0.56675  1.0000
  S   S482      1.0  0.13168  0.74763  0.68514  1.0000
  H   H2746     1.0  0.04328  0.78696  0.53797  1.0000
  C   C3407     1.0  0.03072  0.81878  0.62657  1.0000
  C   C3408     1.0  0.02704  0.81703  0.63967  1.0000
  S   S483      1.0  0.28390  0.79564  0.70257  1.0000
  H   H2747     1.0  0.25264  0.91666  0.69305  1.0000
  C   C3409     1.0  0.48197  0.89973  0.50528  1.0000
  H   H2748     1.0  0.13581  0.91470  0.58685  1.0000
  C   C3410     1.0  0.03033  0.78705  0.60272  1.0000
  C   C3411     1.0  0.03912  0.78382  0.52076  1.0000
  S   S484      1.0  0.43203  0.93221  0.49211  1.0000
  C   C3412     1.0  0.30981  0.86351  0.72622  1.0000
  C   C3413     1.0  0.31260  0.89736  0.66785  1.0000
  H   H2749     1.0  0.35579  0.74931  0.72296  1.0000
  H   H2750     1.0  0.33915  0.98732  0.62745  1.0000
  H   H2751     1.0  0.05930  0.78662  0.68017  1.0000
  H   H2752     1.0  0.30383  0.77198  0.68069  1.0000
  H   H2753     1.0  0.00883  0.78072  0.66488  1.0000
  H   H2754     1.0  0.23643  0.79580  0.71659  1.0000
  C   C3414     1.0  0.45614  0.89878  0.52775  1.0000
  C   C3415     1.0  0.22235  0.83467  0.73149  1.0000
  H   H2755     1.0  0.34311  0.92327  0.65487  1.0000
  H   H2756     1.0  0.12294  0.78150  0.72252  1.0000
  C   C3416     1.0  0.13830  0.95088  0.59581  1.0000
  C   C3417     1.0  0.19348  0.79603  0.65666  1.0000
  C   C3418     1.0  0.13864  0.74758  0.63517  1.0000
  H   H2757     1.0  0.04342  0.94961  0.64850  1.0000
  H   H2758     1.0  0.04444  0.81627  0.62132  1.0000
  H   H2759     1.0  0.03812  0.81312  0.64440  1.0000
  H   H2760     1.0  0.28540  0.90595  0.68846  1.0000
  H   H2761     1.0  0.03461  0.86789  0.65624  1.0000
  C   C3419     1.0  0.11324  0.93285  0.59516  1.0000
  C   C3420     1.0  0.41357  0.96719  0.63074  1.0000
  H   H2762     1.0  0.47460  0.94695  0.53537  1.0000
  H   H2763     1.0  0.49146  0.90117  0.49638  1.0000
  H   H2764     1.0  0.03047  0.75404  0.67263  1.0000
  C   C3421     1.0  0.02445  0.86103  0.66236  1.0000
  H   H2765     1.0  0.15905  0.81604  0.73088  1.0000
  H   H2766     1.0  0.26353  0.75282  0.64402  1.0000
  C   C3422     1.0  0.45168  0.89841  0.51669  1.0000
  H   H2767     1.0  0.15916  0.78340  0.70516  1.0000
  C   C3423     1.0  0.44056  0.97181  0.56654  1.0000
  C   C3424     1.0  0.12852  0.85515  0.64851  1.0000
  C   C3425     1.0  0.13977  0.83911  0.64629  1.0000
  C   C3426     1.0  0.14551  0.82611  0.65629  1.0000
  C   C3427     1.0  0.13960  0.82884  0.66859  1.0000
  C   C3428     1.0  0.12724  0.84437  0.67101  1.0000
  C   C3429     1.0  0.12225  0.85779  0.66084  1.0000
  P   P108      1.0  0.11797  0.84748  0.68693  1.0000
  C   C3430     1.0  0.11940  0.82670  0.69840  1.0000
  C   C3431     1.0  0.12986  0.86199  0.68933  1.0000
  C   C3432     1.0  0.14569  0.85500  0.69389  1.0000
  C   C3433     1.0  0.15459  0.86628  0.69605  1.0000
  C   C3434     1.0  0.14817  0.88461  0.69319  1.0000
  C   C3435     1.0  0.13305  0.89167  0.68794  1.0000
  C   C3436     1.0  0.12396  0.88043  0.68594  1.0000
  C   C3437     1.0  0.12249  0.82531  0.71036  1.0000
  C   C3438     1.0  0.12382  0.80904  0.71904  1.0000
  C   C3439     1.0  0.12166  0.79419  0.71593  1.0000
  C   C3440     1.0  0.11789  0.79565  0.70426  1.0000
  C   C3441     1.0  0.11646  0.81191  0.69563  1.0000
  C   C3442     1.0  0.09431  0.85687  0.68851  1.0000
  C   C3443     1.0  0.08451  0.85281  0.68144  1.0000
  C   C3444     1.0  0.06614  0.85996  0.68275  1.0000
  C   C3445     1.0  0.05739  0.87100  0.69123  1.0000
  C   C3446     1.0  0.06697  0.87477  0.69851  1.0000
  C   C3447     1.0  0.08535  0.86762  0.69724  1.0000
  H   H2768     1.0  0.12425  0.86534  0.64069  1.0000
  H   H2769     1.0  0.14383  0.83662  0.63688  1.0000
  H   H2770     1.0  0.15417  0.81366  0.65456  1.0000
  H   H2771     1.0  0.14429  0.81856  0.67615  1.0000
  H   H2772     1.0  0.11318  0.87011  0.66245  1.0000
  H   H2773     1.0  0.15127  0.84089  0.69571  1.0000
  H   H2774     1.0  0.16688  0.86091  0.69948  1.0000
  H   H2775     1.0  0.15533  0.89340  0.69453  1.0000
  H   H2776     1.0  0.12858  0.90592  0.68517  1.0000
  H   H2777     1.0  0.11249  0.88622  0.68162  1.0000
  H   H2778     1.0  0.12378  0.83674  0.71304  1.0000
  C   C3448     1.0  0.40500  0.98181  0.62288  1.0000
  C   C3449     1.0  0.32633  0.85198  0.72710  1.0000
  H   H2779     1.0  0.11617  0.78412  0.70190  1.0000
  H   H2780     1.0  0.11319  0.81297  0.68673  1.0000
  H   H2781     1.0  0.09094  0.84413  0.67488  1.0000
  H   H2782     1.0  0.05874  0.85685  0.67716  1.0000
  H   H2783     1.0  0.04317  0.87653  0.69219  1.0000
  H   H2784     1.0  0.06016  0.88324  0.70514  1.0000
  H   H2785     1.0  0.09254  0.87051  0.70305  1.0000
  C   C3450     1.0  0.18391  0.85892  0.65844  1.0000
  C   C3451     1.0  0.16695  0.86876  0.65687  1.0000
  C   C3452     1.0  0.16521  0.88281  0.64649  1.0000
  C   C3453     1.0  0.18041  0.88689  0.63757  1.0000
  C   C3454     1.0  0.19753  0.87673  0.63887  1.0000
  C   C3455     1.0  0.19918  0.86308  0.64963  1.0000
  P   P109      1.0  0.21719  0.88108  0.62688  1.0000
  C   C3456     1.0  0.22640  0.89732  0.62988  1.0000
  C   C3457     1.0  0.23398  0.86068  0.62647  1.0000
  C   C3458     1.0  0.22889  0.84469  0.62802  1.0000
  C   C3459     1.0  0.24164  0.82874  0.62844  1.0000
  C   C3460     1.0  0.25966  0.82867  0.62697  1.0000
  C   C3461     1.0  0.26491  0.84454  0.62515  1.0000
  C   C3462     1.0  0.25214  0.86048  0.62500  1.0000
  C   C3463     1.0  0.23612  0.90794  0.61976  1.0000
  C   C3464     1.0  0.24408  0.91995  0.62196  1.0000
  C   C3465     1.0  0.24229  0.92159  0.63425  1.0000
  C   C3466     1.0  0.23267  0.91113  0.64435  1.0000
  C   C3467     1.0  0.22476  0.89896  0.64224  1.0000
  C   C3468     1.0  0.21072  0.88960  0.61180  1.0000
  C   C3469     1.0  0.20231  0.90750  0.60854  1.0000
  C   C3470     1.0  0.19694  0.91434  0.59704  1.0000
  C   C3471     1.0  0.19987  0.90334  0.58868  1.0000
  C   C3472     1.0  0.20829  0.88551  0.59181  1.0000
  C   C3473     1.0  0.21379  0.87864  0.60330  1.0000
  H   H2786     1.0  0.18527  0.84856  0.66681  1.0000
  H   H2787     1.0  0.15518  0.86590  0.66388  1.0000
  H   H2788     1.0  0.15206  0.89073  0.64548  1.0000
  H   H2789     1.0  0.17861  0.89810  0.62980  1.0000
  H   H2790     1.0  0.21223  0.85572  0.65133  1.0000
  H   H2791     1.0  0.21500  0.84450  0.62927  1.0000
  H   H2792     1.0  0.23754  0.81632  0.63037  1.0000
  H   H2793     1.0  0.26943  0.81621  0.62777  1.0000
  H   H2794     1.0  0.27879  0.84442  0.62446  1.0000
  H   H2795     1.0  0.25652  0.87244  0.62413  1.0000
  H   H2796     1.0  0.23755  0.90696  0.61016  1.0000
  H   H2797     1.0  0.25147  0.92819  0.61416  1.0000
  H   H2798     1.0  0.24833  0.93099  0.63600  1.0000
  H   H2799     1.0  0.23145  0.91255  0.65381  1.0000
  H   H2800     1.0  0.21747  0.89089  0.65025  1.0000
  H   H2801     1.0  0.19984  0.91623  0.61494  1.0000
  H   H2802     1.0  0.19057  0.92825  0.59468  1.0000
  H   H2803     1.0  0.19569  0.90868  0.57976  1.0000
  H   H2804     1.0  0.21057  0.87701  0.58531  1.0000
  H   H2805     1.0  0.22034  0.86484  0.60548  1.0000
  C   C3474     1.0  0.34379  0.90258  0.67172  1.0000
  C   C3475     1.0  0.33530  0.88951  0.68017  1.0000
  C   C3476     1.0  0.47349  0.89968  0.52758  1.0000
  H   H2806     1.0  0.27833  0.85236  0.69676  1.0000
  C   C3477     1.0  0.25439  0.87254  0.69885  1.0000
  C   C3478     1.0  0.24709  0.89062  0.69792  1.0000
  C   C3479     1.0  0.31387  0.83388  0.69037  1.0000
  C   C3480     1.0  0.27692  0.89647  0.69125  1.0000
  C   C3481     1.0  0.20510  0.85094  0.71566  1.0000
  C   C3482     1.0  0.12292  0.75956  0.63897  1.0000
  H   H2807     1.0  0.24571  0.86325  0.70168  1.0000
  H   H2808     1.0  0.02947  0.84265  0.65058  1.0000
  C   C3483     1.0  0.19635  0.74295  0.62860  1.0000
  H   H2809     1.0  0.03443  0.78113  0.63618  1.0000
  H   H2810     1.0  0.18993  0.75536  0.70321  1.0000
  C   C3484     1.0  0.05674  0.95095  0.64323  1.0000
  H   H2811     1.0  0.05444  0.90694  0.61192  1.0000
  H   H2812     1.0  0.22161  0.86205  0.72231  1.0000
  H   H2813     1.0  0.29036  0.76261  0.66682  1.0000
  H   H2814     1.0  0.04276  0.79045  0.59705  1.0000
  H   H2815     1.0  0.19206  0.77140  0.65332  1.0000
  C   C3485     1.0  0.29386  0.75387  0.69741  1.0000
  H   H2816     1.0  0.09661  0.95321  0.64754  1.0000
  C   C3486     1.0  0.19101  0.78550  0.64957  1.0000
  H   H2817     1.0  0.18964  0.83671  0.71093  1.0000
  C   C3487     1.0  0.17692  0.79906  0.69179  1.0000
  C   C3488     1.0  0.19073  0.80765  0.69009  1.0000
  C   C3489     1.0  0.19686  0.80797  0.70051  1.0000
  H   H2818     1.0  0.15531  0.74745  0.57703  1.0000
  S   S485      1.0  0.17048  0.75855  0.68003  1.0000
  H   H2819     1.0  0.13891  0.78661  0.61964  1.0000
  C   C3490     1.0  0.27130  0.83145  0.72477  1.0000
  H   H2820     1.0  0.45253  0.96010  0.59505  1.0000
  H   H2821     1.0  0.40307  0.89822  0.59278  1.0000
  C   C3491     1.0  0.32189  0.83994  0.60675  1.0000
  H   H2822     1.0  0.37849  0.96913  0.59078  1.0000
  H   H2823     1.0  0.01449  0.80435  0.58957  1.0000
  C   C3492     1.0  0.01408  0.77060  0.62183  1.0000
  H   H2824     1.0  0.48047  0.93427  0.51771  1.0000
  C   C3493     1.0  0.06112  0.95237  0.63015  1.0000
  H   H2825     1.0  0.03723  0.81317  0.67339  1.0000
  C   C3494     1.0  0.02146  0.84663  0.65919  1.0000
  C   C3495     1.0  0.22871  0.98669  0.64864  1.0000
  H   H2826     1.0  0.19652  0.79007  0.66588  1.0000
  H   H2827     1.0  0.17224  0.79860  0.68375  1.0000
  H   H2828     1.0  0.19689  0.81395  0.68072  1.0000
  H   H2829     1.0  0.20790  0.81420  0.69901  1.0000
  C   C3496     1.0  0.33663  0.90753  0.61048  1.0000
  H   H2830     1.0  0.17212  0.88481  0.61361  1.0000
  C   C3497     1.0  0.34639  0.87571  0.61628  1.0000
  H   H2831     1.0  0.06281  0.77762  0.64240  1.0000
  C   C3498     1.0  0.02081  0.79888  0.66915  1.0000
  C   C3499     1.0  0.31659  0.85250  0.66933  1.0000
  H   H2832     1.0  0.19013  0.85429  0.61699  1.0000
  C   C3500     1.0  0.12464  0.74076  0.62109  1.0000
  C   C3501     1.0  0.22558  0.83470  0.58813  1.0000
  C   C3502     1.0  0.24060  0.82372  0.59250  1.0000
  C   C3503     1.0  0.23845  0.81151  0.60401  1.0000
  C   C3504     1.0  0.22130  0.81037  0.61124  1.0000
  C   C3505     1.0  0.20616  0.82166  0.60707  1.0000
  C   C3506     1.0  0.20840  0.83363  0.59535  1.0000
  P   P110      1.0  0.18394  0.82035  0.61633  1.0000
  C   C3507     1.0  0.18589  0.81132  0.63260  1.0000
  C   C3508     1.0  0.18727  0.79307  0.63760  1.0000
  C   C3509     1.0  0.33756  0.84624  0.71643  1.0000
  H   H2833     1.0  0.47971  0.96604  0.50922  1.0000
  C   C3510     1.0  0.19205  0.81417  0.65184  1.0000
  C   C3511     1.0  0.18811  0.82185  0.63992  1.0000
  C   C3512     1.0  0.17033  0.84262  0.61427  1.0000
  C   C3513     1.0  0.15353  0.84637  0.61114  1.0000
  C   C3514     1.0  0.14353  0.86375  0.60913  1.0000
  C   C3515     1.0  0.15027  0.87755  0.61002  1.0000
  C   C3516     1.0  0.16699  0.87403  0.61297  1.0000
  C   C3517     1.0  0.17703  0.85667  0.61501  1.0000
  H   H2834     1.0  0.22724  0.84396  0.57910  1.0000
  H   H2835     1.0  0.25391  0.82455  0.58691  1.0000
  H   H2836     1.0  0.25009  0.80286  0.60736  1.0000
  H   H2837     1.0  0.21998  0.80070  0.62008  1.0000
  H   H2838     1.0  0.19687  0.84207  0.59177  1.0000
  H   H2839     1.0  0.18560  0.78456  0.63228  1.0000
  H   H2840     1.0  0.04282  0.76827  0.61696  1.0000
  C   C3518     1.0  0.10901  0.75290  0.62483  1.0000
  H   H2841     1.0  0.19408  0.82226  0.65734  1.0000
  H   H2842     1.0  0.18682  0.83593  0.63655  1.0000
  H   H2843     1.0  0.19601  0.80295  0.59458  1.0000
  H   H2844     1.0  0.14794  0.83606  0.61023  1.0000
  H   H2845     1.0  0.13045  0.86654  0.60691  1.0000
  H   H2846     1.0  0.14252  0.89099  0.60841  1.0000
  H   H2847     1.0  0.32250  0.83895  0.65416  1.0000
  C   C3519     1.0  0.32045  0.83750  0.66426  1.0000
  C   C3520     1.0  0.21645  0.75749  0.70303  1.0000
  H   H2848     1.0  0.31539  0.91857  0.65147  1.0000
  H   H2849     1.0  0.32967  0.81814  0.59740  1.0000
  C   C3521     1.0  0.17485  0.80590  0.61121  1.0000
  C   C3522     1.0  0.01456  0.86642  0.67346  1.0000
  C   C3523     1.0  0.36679  0.89861  0.58154  1.0000
  C   C3524     1.0  0.27293  0.86641  0.69595  1.0000
  C   C3525     1.0  0.31958  0.88680  0.67831  1.0000
  H   H2850     1.0  0.31564  0.86533  0.66297  1.0000
  C   C3526     1.0  0.28434  0.87830  0.69210  1.0000
  C   C3527     1.0  0.18365  0.79940  0.60024  1.0000
  H   H2851     1.0  0.31625  0.86343  0.61380  1.0000
  C   C3528     1.0  0.07045  0.94483  0.60191  1.0000
  H   H2852     1.0  0.15179  0.80579  0.62681  1.0000
  C   C3529     1.0  0.37891  0.90548  0.57098  1.0000
  H   H2853     1.0  0.33810  0.92214  0.62341  1.0000
  C   C3530     1.0  0.21261  0.76422  0.73313  1.0000
  C   C3531     1.0  0.34033  0.90912  0.62150  1.0000
  C   C3532     1.0  0.15882  0.80096  0.61831  1.0000
  C   C3533     1.0  0.05684  0.76629  0.64444  1.0000
  H   H2854     1.0  0.48512  0.97121  0.55807  1.0000
  Fe  Fe241     1.0  0.29403  0.98680  0.62072  1.0000
  C   C3534     1.0  0.34672  0.89400  0.63004  1.0000
  H   H2855     1.0  0.34100  0.88169  0.68816  1.0000
  H   H2856     1.0  0.01960  0.82580  0.61001  1.0000
  C   C3535     1.0  0.34989  0.87731  0.62738  1.0000
  C   C3536     1.0  0.15156  0.78996  0.61437  1.0000
  H   H2857     1.0  0.34930  0.89521  0.63867  1.0000
  C   C3537     1.0  0.43851  0.96720  0.57973  1.0000
  C   C3538     1.0  0.48673  0.89962  0.51640  1.0000
  H   H2858     1.0  0.08406  0.77731  0.60583  1.0000
  C   C3539     1.0  0.47022  0.96552  0.57715  1.0000
  C   C3540     1.0  0.28377  0.74088  0.70253  1.0000
  C   C3541     1.0  0.22035  0.75578  0.67025  1.0000
  C   C3542     1.0  0.00849  0.83746  0.66715  1.0000
  C   C3543     1.0  0.01196  0.87705  0.61826  1.0000
  C   C3544     1.0  0.24447  0.75173  0.72939  1.0000
  C   C3545     1.0  0.25835  0.90260  0.69402  1.0000
  C   C3546     1.0  0.04923  0.76700  0.57262  1.0000
  P   P111      1.0  0.03094  0.75825  0.55798  1.0000
  H   H2859     1.0  0.21255  0.77134  0.70331  1.0000
  C   C3547     1.0  0.47204  0.97046  0.56407  1.0000
  H   H2860     1.0  0.14804  0.95774  0.59624  1.0000
  C   C3548     1.0  0.29772  0.80988  0.72971  1.0000
  H   H2861     1.0  0.45878  0.97688  0.54859  1.0000
  C   C3549     1.0  0.05392  0.94257  0.58738  1.0000
  C   C3550     1.0  0.12006  0.95721  0.60033  1.0000
  H   H2862     1.0  0.07237  0.92269  0.61793  1.0000
  C   C3551     1.0  0.33666  0.91305  0.66137  1.0000
  H   H2863     1.0  0.43806  0.89841  0.51669  1.0000
  C   C3552     1.0  0.45351  0.96400  0.58498  1.0000
  P   P112      1.0  0.30829  0.87006  0.68914  1.0000
  C   C3553     1.0  0.08080  0.76740  0.56655  1.0000
  C   C3554     1.0  0.49250  0.93837  0.51188  1.0000
  C   C3555     1.0  0.06716  0.92849  0.60944  1.0000
  H   H2864     1.0  0.35584  0.90464  0.67327  1.0000
  C   C3556     1.0  0.27108  0.82276  0.71555  1.0000
  C   C3557     1.0  0.06520  0.74974  0.65058  1.0000
  H   H2865     1.0  0.42592  0.91028  0.57498  1.0000
  H   H2866     1.0  0.43177  0.93920  0.57342  1.0000
  C   C3558     1.0  0.38233  0.98141  0.58551  1.0000
  C   C3559     1.0  0.32107  0.91041  0.65944  1.0000
  C   C3560     1.0  0.07849  0.95377  0.62324  1.0000
  H   H2867     1.0  0.31786  0.80600  0.69145  1.0000
  C   C3561     1.0  0.03310  0.75357  0.64319  1.0000
  C   C3562     1.0  0.03193  0.76413  0.54117  1.0000
  C   C3563     1.0  0.02592  0.75929  0.52251  1.0000
  C   C3564     1.0  0.42179  0.93429  0.58128  1.0000
  C   C3565     1.0  0.41850  0.91776  0.58216  1.0000
  C   C3566     1.0  0.04605  0.76856  0.67716  1.0000
  P   P113      1.0  0.19734  0.80007  0.72610  1.0000
  H   H2868     1.0  0.01081  0.75384  0.58387  1.0000
  H   H2869     1.0  0.03691  0.76802  0.57972  1.0000
  C   C3567     1.0  0.40627  0.98150  0.61033  1.0000
  H   H2870     1.0  0.32209  0.98001  0.66982  1.0000
  H   H2871     1.0  0.40204  0.90859  0.48471  1.0000
  H   H2872     1.0  0.46085  0.89960  0.49676  1.0000
  H   H2873     1.0  0.24395  0.75597  0.70233  1.0000
  C   C3568     1.0  0.41235  0.94414  0.59049  1.0000
  H   H2874     1.0  0.32362  0.80921  0.66827  1.0000
  P   P114      1.0  0.41673  0.96536  0.58966  1.0000
  C   C3569     1.0  0.40565  0.91100  0.59216  1.0000
  H   H2875     1.0  0.30763  0.78942  0.71903  1.0000
  H   H2876     1.0  0.02084  0.75174  0.51820  1.0000
  P   P115      1.0  0.01327  0.75604  0.63734  1.0000
  S   S486      1.0  0.44711  0.92624  0.54965  1.0000
  C   C3570     1.0  0.07841  0.97956  0.59917  1.0000
  H   H2877     1.0  0.14959  0.74527  0.63975  1.0000
  H   H2878     1.0  0.09737  0.75446  0.62114  1.0000
  C   C3571     1.0  0.04793  0.78528  0.67725  1.0000
  C   C3572     1.0  0.19893  0.83583  0.71662  1.0000
  C   C3573     1.0  0.14401  0.93560  0.59092  1.0000
  H   H2879     1.0  0.29917  0.75852  0.70349  1.0000
  H   H2880     1.0  0.15814  0.93061  0.58754  1.0000
  H   H2881     1.0  0.30046  0.89558  0.66625  1.0000
  C   C3574     1.0  0.31555  0.86350  0.70393  1.0000
  C   C3575     1.0  0.00173  0.85727  0.68152  1.0000
  P   P116      1.0  0.00493  0.81836  0.66347  1.0000
  H   H2882     1.0  0.15455  0.77522  0.60040  1.0000
  C   C3576     1.0  0.41595  0.96641  0.60560  1.0000
  C   C3577     1.0  0.39930  0.93734  0.60045  1.0000
  H   H2883     1.0  0.43179  0.93983  0.61014  1.0000
  C   C3578     1.0  0.02544  0.75440  0.53548  1.0000
  C   C3579     1.0  0.21633  0.81952  0.73239  1.0000
  C   C3580     1.0  0.42439  0.95168  0.61359  1.0000
  P   P117      1.0  0.08382  0.95623  0.60624  1.0000
  H   H2884     1.0  0.20087  0.86307  0.70906  1.0000
  H   H2885     1.0  0.23196  0.97238  0.64999  1.0000
  C   C3581     1.0  0.39593  0.92086  0.60124  1.0000
  C   C3582     1.0  0.01674  0.82412  0.62017  1.0000
  H   H2886     1.0  0.05092  0.95243  0.62546  1.0000
  H   H2887     1.0  0.39149  0.94487  0.60750  1.0000
  H   H2888     1.0  0.03314  0.77774  0.50511  1.0000
  C   C3583     1.0  0.05020  0.76264  0.56117  1.0000
  C   C3584     1.0  0.20499  0.81983  0.72468  1.0000
  H   H2889     1.0  0.17387  0.75250  0.61969  1.0000
  C   C3585     1.0  0.33223  0.85200  0.70487  1.0000
  C   C3586     1.0  0.03023  0.77472  0.61421  1.0000
  C   C3587     1.0  0.00842  0.87331  0.63144  1.0000
  C   C3588     1.0  0.16941  0.79063  0.70390  1.0000
  H   H2890     1.0  0.38555  0.91591  0.60877  1.0000
  S   S487      1.0  0.11169  0.75482  0.58954  1.0000
  C   C3589     1.0  0.21684  0.85035  0.72306  1.0000
  H   H2891     1.0  0.18309  0.78338  0.58789  1.0000
  H   H2892     1.0  0.31078  0.83219  0.70054  1.0000
  C   C3590     1.0  0.06953  0.95124  0.64949  1.0000
  H   H2893     1.0  0.09621  0.77210  0.63640  1.0000
  C   C3591     1.0  0.13146  0.92666  0.59051  1.0000
  C   C3592     1.0  0.10739  0.94803  0.60029  1.0000
  H   H2894     1.0  0.34097  0.84724  0.69672  1.0000
  C   C3593     1.0  0.03861  0.77900  0.53372  1.0000
  C   C3594     1.0  0.01443  0.79490  0.59851  1.0000
  H   H2895     1.0  0.47626  0.90112  0.53608  1.0000
  C   C3595     1.0  0.21583  0.78112  0.72711  1.0000
  H   H2896     1.0  0.46218  0.91176  0.57119  1.0000
  H   H2897     1.0  0.09481  0.76048  0.54878  1.0000
  C   C3596     1.0  0.03172  0.76697  0.67294  1.0000
  C   C3597     1.0  0.28409  0.80748  0.71354  1.0000
  C   C3598     1.0  0.31777  0.81895  0.68525  1.0000
  Fe  Fe242     1.0  0.15084  0.75997  0.66875  1.0000
  H   H2898     1.0  0.23293  0.98637  0.66676  1.0000
  C   C3599     1.0  0.03531  0.80038  0.67335  1.0000
  H   H2899     1.0  0.39117  0.90771  0.57205  1.0000
  H   H2900     1.0  0.23270  0.89540  0.70002  1.0000
  H   H2901     1.0  0.09266  0.76892  0.56876  1.0000
  H   H2902     1.0  0.19879  0.75599  0.62722  1.0000
  C   C3600     1.0  0.46663  0.92900  0.55283  1.0000
  H   H2903     1.0  0.06624  0.95005  0.65962  1.0000
  H   H2904     1.0  0.26141  0.77010  0.71901  1.0000
  C   C3601     1.0  0.05046  0.92648  0.59506  1.0000
  H   H2905     1.0  0.04888  0.94790  0.57880  1.0000
  C   C3602     1.0  0.29644  0.76153  0.68454  1.0000
  H   H2906     1.0  0.06653  0.96407  0.58463  1.0000
  C   C3603     1.0  0.30438  0.86925  0.71470  1.0000
  H   H2907     1.0  0.11587  0.96918  0.60397  1.0000
  C   C3604     1.0  0.16584  0.74491  0.73348  1.0000
  C   C3605     1.0  0.49367  0.94071  0.54733  1.0000
  H   H2908     1.0  0.35023  0.83705  0.71721  1.0000
  H   H2909     1.0  0.10384  0.92547  0.59498  1.0000
  H   H2910     1.0  0.29132  0.87782  0.71437  1.0000
  C   C3606     1.0  0.00927  0.82052  0.64652  1.0000
  C   C3607     1.0  0.08199  0.76264  0.55529  1.0000
  H   H2911     1.0  0.01855  0.87323  0.63618  1.0000
  C   C3608     1.0  0.49744  0.93198  0.55926  1.0000
  H   H2912     1.0  0.16986  0.78396  0.72357  1.0000
  C   C3609     1.0  0.00361  0.76555  0.57848  1.0000
  C   C3610     1.0  0.29746  0.80116  0.72058  1.0000
  C   C3611     1.0  0.28889  0.75622  0.67675  1.0000
  H   H2913     1.0  0.01695  0.87761  0.67583  1.0000
  C   C3612     1.0  0.24778  0.76841  0.72295  1.0000
  H   H2914     1.0  0.30554  0.98945  0.56869  1.0000
  C   C3613     1.0  0.18224  0.74092  0.62435  1.0000
  H   H2915     1.0  0.14788  0.74799  0.59947  1.0000
  C   C3614     1.0  0.03281  0.77395  0.51515  1.0000
  H   H2916     1.0  0.09711  0.97713  0.58139  1.0000
  H   H2917     1.0  0.10471  0.95503  0.62476  1.0000
  C   C3615     1.0  0.08667  0.95300  0.64268  1.0000
  C   C3616     1.0  0.06681  0.76011  0.55265  1.0000
  C   C3617     1.0  0.08716  0.98603  0.58679  1.0000
  C   C3618     1.0  0.23432  0.74866  0.70249  1.0000
  H   H2918     1.0  0.46148  0.98570  0.48929  1.0000
  C   C3619     1.0  0.00099  0.78665  0.55879  1.0000
  H   H2919     1.0  0.06815  0.75581  0.54409  1.0000
  H   H2920     1.0  0.05835  0.98679  0.61537  1.0000
  H   H2921     1.0  0.34772  0.74291  0.70510  1.0000
  Fe  Fe243     1.0  0.15307  0.74320  0.69595  1.0000
  C   C3620     1.0  0.25153  0.75366  0.65140  1.0000
  C   C3621     1.0  0.49202  0.95641  0.50708  1.0000
  H   H2922     1.0  0.26114  0.84314  0.72641  1.0000
  H   H2923     1.0  0.00588  0.79144  0.54884  1.0000
  H   H2924     1.0  0.38739  0.98901  0.48505  1.0000
  C   C3622     1.0  0.20376  0.74852  0.70295  1.0000
  C   C3623     1.0  0.28439  0.82477  0.73208  1.0000
  H   H2925     1.0  0.01990  0.74310  0.54099  1.0000
  C   C3624     1.0  0.34524  0.74224  0.72471  1.0000
  C   C3625     1.0  0.27890  0.74311  0.68181  1.0000
  C   C3626     1.0  0.22540  0.74207  0.66369  1.0000
  C   C3627     1.0  0.40004  0.94601  0.48433  1.0000
  C   C3628     1.0  0.24109  0.74105  0.65431  1.0000
  C   C3629     1.0  0.34218  0.98989  0.48540  1.0000
  H   H2926     1.0  0.25550  0.74047  0.73059  1.0000
  Fe  Fe244     1.0  0.39701  0.96223  0.91789  1.0000
  S   S488      1.0  0.37653  0.94539  0.92354  1.0000
  Fe  Fe245     1.0  0.42825  0.93047  0.91810  1.0000
  S   S489      1.0  0.41051  0.91101  0.92387  1.0000
  S   S490      1.0  0.45809  0.92029  0.91459  1.0000
  Fe  Fe246     1.0  0.39523  0.92942  0.90955  1.0000
  S   S491      1.0  0.39001  0.92210  0.89280  1.0000
  Fe  Fe247     1.0  0.39359  0.92840  0.93731  1.0000
  S   S492      1.0  0.41435  0.94792  0.90286  1.0000
  S   S493      1.0  0.41265  0.94626  0.93256  1.0000
  C   C3630     1.0  0.44963  0.76269  0.90535  1.0000
  C   C3631     1.0  0.14874  0.80710  0.75068  1.0000
  S   S494      1.0  0.21112  0.76900  0.77541  1.0000
  C   C3632     1.0  0.49453  0.96659  0.87384  1.0000
  Fe  Fe248     1.0  0.29694  0.78702  0.78153  1.0000
  S   S495      1.0  0.30229  0.78747  0.76104  1.0000
  H   H2927     1.0  0.23137  0.83421  0.73731  1.0000
  Fe  Fe249     1.0  0.32266  0.81101  0.77785  1.0000
  S   S496      1.0  0.32935  0.81379  0.75671  1.0000
  S   S497      1.0  0.34081  0.82131  0.78531  1.0000
  Fe  Fe250     1.0  0.30004  0.81648  0.75836  1.0000
  S   S498      1.0  0.28352  0.83463  0.74449  1.0000
  Fe  Fe251     1.0  0.33105  0.78460  0.76105  1.0000
  S   S499      1.0  0.35217  0.76736  0.74907  1.0000
  S   S500      1.0  0.29289  0.81645  0.77914  1.0000
  S   S501      1.0  0.32602  0.78148  0.78195  1.0000
  H   H2928     1.0  0.12109  0.76711  0.74469  1.0000
  S   S502      1.0  0.47253  0.87512  0.85510  1.0000
  H   H2929     1.0  0.39833  0.90656  0.87153  1.0000
  Fe  Fe252     1.0  0.37373  0.84844  0.86455  1.0000
  S   S503      1.0  0.37326  0.86536  0.84504  1.0000
  S   S504      1.0  0.36572  0.85837  0.88299  1.0000
  Fe  Fe253     1.0  0.38594  0.81399  0.85441  1.0000
  S   S505      1.0  0.38740  0.82870  0.83429  1.0000
  S   S506      1.0  0.39185  0.78392  0.85976  1.0000
  Fe  Fe254     1.0  0.39956  0.84713  0.83944  1.0000
  S   S507      1.0  0.42363  0.85707  0.82665  1.0000
  Fe  Fe255     1.0  0.36094  0.84526  0.84174  1.0000
  S   S508      1.0  0.33626  0.85061  0.83352  1.0000
  S   S509      1.0  0.40064  0.83094  0.85898  1.0000
  S   S510      1.0  0.35903  0.82987  0.86182  1.0000
  C   C3633     1.0  0.45913  0.86997  0.84713  1.0000
  C   C3634     1.0  0.44151  0.86866  0.85315  1.0000
  C   C3635     1.0  0.43061  0.86445  0.84700  1.0000
  C   C3636     1.0  0.43708  0.86223  0.83457  1.0000
  C   C3637     1.0  0.45447  0.86427  0.82834  1.0000
  C   C3638     1.0  0.46555  0.86800  0.83464  1.0000
  H   H2930     1.0  0.43633  0.87068  0.86266  1.0000
  H   H2931     1.0  0.41708  0.86328  0.85179  1.0000
  H   H2932     1.0  0.45948  0.86269  0.81869  1.0000
  H   H2933     1.0  0.47904  0.86933  0.82985  1.0000
  C   C3639     1.0  0.33884  0.82821  0.79938  1.0000
  C   C3640     1.0  0.35459  0.82842  0.80263  1.0000
  C   C3641     1.0  0.35393  0.83471  0.81326  1.0000
  C   C3642     1.0  0.33747  0.84121  0.82068  1.0000
  C   C3643     1.0  0.32164  0.84085  0.81751  1.0000
  C   C3644     1.0  0.32231  0.83426  0.80696  1.0000
  H   H2934     1.0  0.36743  0.82394  0.79678  1.0000
  H   H2935     1.0  0.36620  0.83506  0.81544  1.0000
  H   H2936     1.0  0.30884  0.84594  0.82314  1.0000
  H   H2937     1.0  0.31009  0.83440  0.80445  1.0000
  C   C3645     1.0  0.48898  0.93196  0.90934  1.0000
  C   C3646     1.0  0.48735  0.92693  0.85278  1.0000
  C   C3647     1.0  0.36748  0.75034  0.75662  1.0000
  C   C3648     1.0  0.25575  0.75110  0.75540  1.0000
  H   H2938     1.0  0.46816  0.96897  0.92823  1.0000
  H   H2939     1.0  0.45657  0.74669  0.92281  1.0000
  H   H2940     1.0  0.35983  0.75883  0.77417  1.0000
  C   C3649     1.0  0.49652  0.83535  0.93992  1.0000
  H   H2941     1.0  0.25081  0.77028  0.84703  1.0000
  C   C3650     1.0  0.37924  0.77443  0.82999  1.0000
  C   C3651     1.0  0.38128  0.78299  0.83863  1.0000
  C   C3652     1.0  0.38857  0.77321  0.84905  1.0000
  C   C3653     1.0  0.39344  0.75466  0.85086  1.0000
  H   H2942     1.0  0.45483  0.98033  0.97378  1.0000
  H   H2943     1.0  0.37367  0.78222  0.82193  1.0000
  H   H2944     1.0  0.37697  0.79717  0.83725  1.0000
  H   H2945     1.0  0.49514  0.81154  0.80737  1.0000
  C   C3654     1.0  0.15278  0.79711  0.76222  1.0000
  C   C3655     1.0  0.23054  0.76851  0.78028  1.0000
  C   C3656     1.0  0.32888  0.77162  0.82724  1.0000
  C   C3657     1.0  0.14557  0.74567  0.85966  1.0000
  C   C3658     1.0  0.26111  0.76855  0.78828  1.0000
  C   C3659     1.0  0.25394  0.78310  0.77967  1.0000
  C   C3660     1.0  0.23842  0.78327  0.77592  1.0000
  H   H2946     1.0  0.32203  0.77564  0.83599  1.0000
  C   C3661     1.0  0.48615  0.92277  0.84177  1.0000
  H   H2947     1.0  0.26011  0.79442  0.77616  1.0000
  H   H2948     1.0  0.23268  0.79473  0.76949  1.0000
  C   C3662     1.0  0.49215  0.95588  0.91722  1.0000
  H   H2949     1.0  0.30970  0.98591  0.84330  1.0000
  H   H2950     1.0  0.19909  0.76235  0.73698  1.0000
  C   C3663     1.0  0.43045  0.94310  0.97742  1.0000
  H   H2951     1.0  0.36410  0.94421  0.82641  1.0000
  H   H2952     1.0  0.30090  0.86747  0.73462  1.0000
  H   H2953     1.0  0.47923  0.91916  0.93776  1.0000
  C   C3664     1.0  0.47068  0.93493  0.91490  1.0000
  H   H2954     1.0  0.29775  0.74682  0.77418  1.0000
  H   H2955     1.0  0.46787  0.94100  0.95120  1.0000
  H   H2956     1.0  0.45636  0.92571  0.97524  1.0000
  C   C3665     1.0  0.47383  0.95903  0.92261  1.0000
  C   C3666     1.0  0.46304  0.94870  0.92135  1.0000
  H   H2957     1.0  0.48217  0.74117  0.80573  1.0000
  P   P118      1.0  0.44419  0.76068  0.80695  1.0000
  H   H2958     1.0  0.14238  0.79649  0.77075  1.0000
  H   H2959     1.0  0.44904  0.95093  0.92586  1.0000
  C   C3667     1.0  0.38407  0.90339  0.89081  1.0000
  C   C3668     1.0  0.37288  0.89364  0.90032  1.0000
  C   C3669     1.0  0.36712  0.88013  0.89771  1.0000
  C   C3670     1.0  0.37290  0.87585  0.88572  1.0000
  C   C3671     1.0  0.38432  0.88542  0.87631  1.0000
  C   C3672     1.0  0.38968  0.89915  0.87886  1.0000
  H   H2960     1.0  0.36821  0.89688  0.90952  1.0000
  H   H2961     1.0  0.35825  0.87285  0.90506  1.0000
  H   H2962     1.0  0.38896  0.88233  0.86705  1.0000
  C   C3673     1.0  0.29562  0.75419  0.84530  1.0000
  C   C3674     1.0  0.44910  0.93910  0.97568  1.0000
  C   C3675     1.0  0.46124  0.95741  0.88109  1.0000
  C   C3676     1.0  0.44671  0.91539  0.86568  1.0000
  C   C3677     1.0  0.43608  0.90350  0.87308  1.0000
  C   C3678     1.0  0.43385  0.89938  0.88618  1.0000
  C   C3679     1.0  0.17989  0.79865  0.74022  1.0000
  H   H2963     1.0  0.44817  0.95421  0.88398  1.0000
  H   H2964     1.0  0.44827  0.91834  0.85554  1.0000
  H   H2965     1.0  0.42957  0.89747  0.86865  1.0000
  H   H2966     1.0  0.42520  0.89055  0.89190  1.0000
  S   S511      1.0  0.49949  0.83603  0.87619  1.0000
  C   C3680     1.0  0.42608  0.97135  0.84625  1.0000
  C   C3681     1.0  0.49070  0.88501  0.90158  1.0000
  H   H2967     1.0  0.42615  0.97846  0.91622  1.0000
  H   H2968     1.0  0.33957  0.79523  0.81965  1.0000
  H   H2969     1.0  0.48768  0.80788  0.83062  1.0000
  C   C3682     1.0  0.40450  0.79812  0.88611  1.0000
  C   C3683     1.0  0.42079  0.96040  0.97770  1.0000
  C   C3684     1.0  0.48883  0.96894  0.96322  1.0000
  H   H2970     1.0  0.35601  0.94751  0.95905  1.0000
  C   C3685     1.0  0.44025  0.83676  0.94683  1.0000
  C   C3686     1.0  0.43394  0.86870  0.94035  1.0000
  C   C3687     1.0  0.44206  0.86741  0.92787  1.0000
  C   C3688     1.0  0.44962  0.85076  0.92481  1.0000
  C   C3689     1.0  0.44847  0.83542  0.93436  1.0000
  P   P119      1.0  0.45944  0.84915  0.90859  1.0000
  C   C3690     1.0  0.47183  0.86637  0.90074  1.0000
  C   C3691     1.0  0.47532  0.82824  0.90828  1.0000
  H   H2971     1.0  0.32074  0.95773  0.85727  1.0000
  H   H2972     1.0  0.33649  0.91043  0.87951  1.0000
  C   C3692     1.0  0.45336  0.97783  0.83182  1.0000
  C   C3693     1.0  0.48286  0.79792  0.90558  1.0000
  C   C3694     1.0  0.47012  0.81346  0.90723  1.0000
  C   C3695     1.0  0.47507  0.87214  0.88757  1.0000
  C   C3696     1.0  0.48248  0.97103  0.88467  1.0000
  H   H2973     1.0  0.33375  0.91675  0.90002  1.0000
  H   H2974     1.0  0.39870  0.74693  0.85901  1.0000
  C   C3697     1.0  0.47967  0.87303  0.90768  1.0000
  C   C3698     1.0  0.44227  0.85006  0.90057  1.0000
  C   C3699     1.0  0.42410  0.85537  0.90605  1.0000
  C   C3700     1.0  0.41089  0.85478  0.90028  1.0000
  C   C3701     1.0  0.41562  0.84897  0.88898  1.0000
  C   C3702     1.0  0.43361  0.84361  0.88349  1.0000
  C   C3703     1.0  0.44690  0.84428  0.88918  1.0000
  H   H2975     1.0  0.42821  0.88162  0.94266  1.0000
  H   H2976     1.0  0.44246  0.87943  0.92062  1.0000
  H   H2977     1.0  0.45378  0.82244  0.93220  1.0000
  C   C3704     1.0  0.46346  0.96523  0.83994  1.0000
  C   C3705     1.0  0.18389  0.78904  0.75189  1.0000
  C   C3706     1.0  0.28941  0.75920  0.74896  1.0000
  H   H2978     1.0  0.47895  0.78686  0.90418  1.0000
  H   H2979     1.0  0.45635  0.81406  0.90731  1.0000
  H   H2980     1.0  0.46908  0.86752  0.88194  1.0000
  C   C3707     1.0  0.48638  0.88392  0.88145  1.0000
  C   C3708     1.0  0.16227  0.80799  0.73972  1.0000
  C   C3709     1.0  0.33887  0.78281  0.81800  1.0000
  H   H2981     1.0  0.47763  0.86876  0.91779  1.0000
  H   H2982     1.0  0.42001  0.85998  0.91477  1.0000
  H   H2983     1.0  0.39694  0.85875  0.90460  1.0000
  H   H2984     1.0  0.40536  0.84848  0.88451  1.0000
  H   H2985     1.0  0.43722  0.83914  0.87472  1.0000
  H   H2986     1.0  0.46076  0.84007  0.88473  1.0000
  Fe  Fe256     1.0  0.49828  0.85524  0.85766  1.0000
  C   C3710     1.0  0.49002  0.95741  0.86669  1.0000
  H   H2987     1.0  0.15801  0.75776  0.73489  1.0000
  C   C3711     1.0  0.36280  0.94621  0.96646  1.0000
  H   H2988     1.0  0.45625  0.97036  0.89649  1.0000
  C   C3712     1.0  0.46414  0.75981  0.79441  1.0000
  H   H2989     1.0  0.19572  0.86658  0.82602  1.0000
  C   C3713     1.0  0.45520  0.92329  0.87137  1.0000
  C   C3714     1.0  0.43302  0.85340  0.94982  1.0000
  H   H2990     1.0  0.17362  0.78064  0.77178  1.0000
  H   H2991     1.0  0.40444  0.79343  0.87800  1.0000
  C   C3715     1.0  0.23828  0.75356  0.78837  1.0000
  H   H2992     1.0  0.43933  0.82490  0.95417  1.0000
  H   H2993     1.0  0.22290  0.74611  0.82071  1.0000
  C   C3716     1.0  0.45374  0.91829  0.88446  1.0000
  S   S512      1.0  0.38545  0.91709  0.95818  1.0000
  H   H2994     1.0  0.43540  0.76503  0.90939  1.0000
  C   C3717     1.0  0.44280  0.90667  0.89186  1.0000
  H   H2995     1.0  0.25458  0.78381  0.86318  1.0000
  H   H2996     1.0  0.47792  0.96304  0.83743  1.0000
  C   C3718     1.0  0.17035  0.78815  0.76282  1.0000
  H   H2997     1.0  0.46121  0.92307  0.88900  1.0000
  C   C3719     1.0  0.13100  0.75747  0.76182  1.0000
  C   C3720     1.0  0.38199  0.98105  0.94909  1.0000
  H   H2998     1.0  0.14386  0.75928  0.86023  1.0000
  C   C3721     1.0  0.46158  0.75216  0.91296  1.0000
  H   H2999     1.0  0.45691  0.74665  0.85029  1.0000
  H   H3000     1.0  0.41669  0.92130  0.84707  1.0000
  C   C3722     1.0  0.12506  0.75561  0.75179  1.0000
  H   H3001     1.0  0.47398  0.85742  0.94141  1.0000
  C   C3723     1.0  0.21740  0.79069  0.81636  1.0000
  C   C3724     1.0  0.23427  0.79138  0.81762  1.0000
  C   C3725     1.0  0.24679  0.77550  0.82032  1.0000
  P   P120      1.0  0.23946  0.81257  0.81583  1.0000
  C   C3726     1.0  0.22117  0.82493  0.82564  1.0000
  C   C3727     1.0  0.26007  0.80981  0.82072  1.0000
  C   C3728     1.0  0.26016  0.81509  0.83159  1.0000
  C   C3729     1.0  0.27640  0.81409  0.83461  1.0000
  C   C3730     1.0  0.29259  0.80788  0.82681  1.0000
  C   C3731     1.0  0.29259  0.80242  0.81607  1.0000
  C   C3732     1.0  0.27642  0.80336  0.81306  1.0000
  C   C3733     1.0  0.21472  0.84314  0.82149  1.0000
  C   C3734     1.0  0.20065  0.85253  0.82928  1.0000
  C   C3735     1.0  0.19294  0.84382  0.84124  1.0000
  C   C3736     1.0  0.19930  0.82569  0.84544  1.0000
  C   C3737     1.0  0.21336  0.81626  0.83768  1.0000
  C   C3738     1.0  0.24246  0.82462  0.79955  1.0000
  C   C3739     1.0  0.23605  0.82021  0.79064  1.0000
  C   C3740     1.0  0.23902  0.82936  0.77802  1.0000
  C   C3741     1.0  0.24835  0.84296  0.77421  1.0000
  C   C3742     1.0  0.25448  0.84765  0.78305  1.0000
  C   C3743     1.0  0.25162  0.83850  0.79566  1.0000
  C   C3744     1.0  0.49127  0.93332  0.95944  1.0000
  S   S513      1.0  0.27891  0.76922  0.79450  1.0000
  H   H3002     1.0  0.30516  0.79783  0.80989  1.0000
  H   H3003     1.0  0.20757  0.80277  0.81419  1.0000
  H   H3004     1.0  0.26005  0.77556  0.82098  1.0000
  H   H3005     1.0  0.24784  0.82034  0.83761  1.0000
  H   H3006     1.0  0.27650  0.81847  0.84285  1.0000
  H   H3007     1.0  0.30514  0.80763  0.82895  1.0000
  C   C3745     1.0  0.25747  0.76859  0.75047  1.0000
  H   H3008     1.0  0.27663  0.79929  0.80462  1.0000
  H   H3009     1.0  0.22047  0.85017  0.81227  1.0000
  H   H3010     1.0  0.19332  0.81894  0.85472  1.0000
  H   H3011     1.0  0.21821  0.80223  0.84107  1.0000
  H   H3012     1.0  0.22925  0.80942  0.79322  1.0000
  H   H3013     1.0  0.23458  0.82552  0.77110  1.0000
  H   H3014     1.0  0.25123  0.84955  0.76433  1.0000
  H   H3015     1.0  0.26205  0.85796  0.78002  1.0000
  H   H3016     1.0  0.25691  0.84203  0.80230  1.0000
  H   H3017     1.0  0.41050  0.97444  0.94748  1.0000
  C   C3746     1.0  0.46568  0.96679  0.88813  1.0000
  H   H3018     1.0  0.25254  0.74709  0.82330  1.0000
  C   C3747     1.0  0.47445  0.76553  0.88742  1.0000
  C   C3748     1.0  0.49322  0.82679  0.90851  1.0000
  H   H3019     1.0  0.46116  0.76839  0.86018  1.0000
  C   C3749     1.0  0.41181  0.75473  0.78646  1.0000
  C   C3750     1.0  0.39730  0.76908  0.78772  1.0000
  C   C3751     1.0  0.39686  0.78083  0.79497  1.0000
  C   C3752     1.0  0.41081  0.77820  0.80105  1.0000
  C   C3753     1.0  0.42592  0.75219  0.79239  1.0000
  C   C3754     1.0  0.43150  0.77930  0.82618  1.0000
  C   C3755     1.0  0.42796  0.79424  0.83121  1.0000
  C   C3756     1.0  0.43377  0.80942  0.82381  1.0000
  C   C3757     1.0  0.44359  0.80959  0.81148  1.0000
  C   C3758     1.0  0.44736  0.79460  0.80644  1.0000
  H   H3020     1.0  0.48895  0.88807  0.87126  1.0000
  H   H3021     1.0  0.38631  0.77098  0.78321  1.0000
  H   H3022     1.0  0.38554  0.79186  0.79606  1.0000
  H   H3023     1.0  0.40990  0.78729  0.80682  1.0000
  C   C3759     1.0  0.29750  0.76159  0.85467  1.0000
  H   H3024     1.0  0.34375  0.96754  0.97409  1.0000
  H   H3025     1.0  0.42023  0.79423  0.84072  1.0000
  H   H3026     1.0  0.43026  0.82120  0.82755  1.0000
  H   H3027     1.0  0.42652  0.85449  0.95946  1.0000
  P   P121      1.0  0.46798  0.93945  0.86171  1.0000
  C   C3760     1.0  0.48739  0.92010  0.94370  1.0000
  H   H3028     1.0  0.48602  0.96898  0.94467  1.0000
  H   H3029     1.0  0.37682  0.82448  0.90569  1.0000
  C   C3761     1.0  0.45491  0.95547  0.85120  1.0000
  H   H3030     1.0  0.31339  0.74802  0.78993  1.0000
  C   C3762     1.0  0.34595  0.96918  0.82240  1.0000
  C   C3763     1.0  0.49965  0.94252  0.91040  1.0000
  H   H3031     1.0  0.20056  0.77398  0.81603  1.0000
  P   P122      1.0  0.48255  0.94789  0.97041  1.0000
  H   H3032     1.0  0.35331  0.89112  0.86569  1.0000
  C   C3764     1.0  0.28277  0.77228  0.86104  1.0000
  C   C3765     1.0  0.35583  0.95749  0.97502  1.0000
  H   H3033     1.0  0.37696  0.81216  0.88782  1.0000
  H   H3034     1.0  0.24258  0.74825  0.75796  1.0000
  H   H3035     1.0  0.13518  0.81433  0.75027  1.0000
  C   C3766     1.0  0.40442  0.81201  0.90628  1.0000
  H   H3036     1.0  0.35682  0.96207  0.88198  1.0000
  H   H3037     1.0  0.46773  0.74469  0.82508  1.0000
  H   H3038     1.0  0.25903  0.74225  0.79899  1.0000
  C   C3767     1.0  0.42016  0.79414  0.89072  1.0000
  C   C3768     1.0  0.42013  0.80152  0.90065  1.0000
  P   P123      1.0  0.44083  0.78247  0.88244  1.0000
  C   C3769     1.0  0.45605  0.76976  0.89257  1.0000
  C   C3770     1.0  0.43764  0.76643  0.87530  1.0000
  C   C3771     1.0  0.22587  0.75869  0.82020  1.0000
  H   H3039     1.0  0.38189  0.96994  0.94547  1.0000
  H   H3040     1.0  0.49495  0.92148  0.90422  1.0000
  H   H3041     1.0  0.40024  0.89307  0.82655  1.0000
  C   C3772     1.0  0.49593  0.74873  0.78679  1.0000
  H   H3042     1.0  0.35611  0.78648  0.79956  1.0000
  C   C3773     1.0  0.34819  0.76151  0.80471  1.0000
  H   H3043     1.0  0.38527  0.93305  0.85621  1.0000
  C   C3774     1.0  0.38883  0.81576  0.90171  1.0000
  C   C3775     1.0  0.38889  0.80882  0.89163  1.0000
  C   C3776     1.0  0.45024  0.79918  0.87026  1.0000
  C   C3777     1.0  0.44452  0.80515  0.85879  1.0000
  C   C3778     1.0  0.45239  0.81752  0.84909  1.0000
  C   C3779     1.0  0.46588  0.82401  0.85081  1.0000
  C   C3780     1.0  0.47099  0.81875  0.86237  1.0000
  C   C3781     1.0  0.46314  0.80649  0.87213  1.0000
  H   H3044     1.0  0.40446  0.81780  0.91388  1.0000
  H   H3045     1.0  0.44788  0.82153  0.80578  1.0000
  C   C3782     1.0  0.33063  0.98098  0.82710  1.0000
  C   C3783     1.0  0.44762  0.74961  0.85882  1.0000
  H   H3046     1.0  0.43232  0.79954  0.90384  1.0000
  H   H3047     1.0  0.41160  0.97374  0.84875  1.0000
  H   H3048     1.0  0.19749  0.78234  0.75262  1.0000
  C   C3784     1.0  0.38436  0.75597  0.83166  1.0000
  H   H3049     1.0  0.49763  0.83790  0.90937  1.0000
  H   H3050     1.0  0.49944  0.95441  0.85822  1.0000
  C   C3785     1.0  0.45828  0.95244  0.97414  1.0000
  C   C3786     1.0  0.44835  0.96974  0.97468  1.0000
  H   H3051     1.0  0.34411  0.94237  0.90143  1.0000
  H   H3052     1.0  0.22066  0.80751  0.73903  1.0000
  C   C3787     1.0  0.43468  0.98087  0.83496  1.0000
  H   H3053     1.0  0.43412  0.80013  0.85729  1.0000
  H   H3054     1.0  0.44811  0.82214  0.84022  1.0000
  H   H3055     1.0  0.47245  0.83310  0.84319  1.0000
  H   H3056     1.0  0.48129  0.82395  0.86366  1.0000
  H   H3057     1.0  0.46747  0.80254  0.88099  1.0000
  C   C3788     1.0  0.24255  0.75924  0.82169  1.0000
  C   C3789     1.0  0.34834  0.77784  0.80669  1.0000
  H   H3058     1.0  0.42613  0.76795  0.83192  1.0000
  C   C3790     1.0  0.42552  0.76390  0.79974  1.0000
  C   C3791     1.0  0.47369  0.95190  0.87065  1.0000
  C   C3792     1.0  0.43614  0.95872  0.85438  1.0000
  C   C3793     1.0  0.49889  0.86532  0.93806  1.0000
  H   H3059     1.0  0.31045  0.75925  0.85696  1.0000
  C   C3794     1.0  0.37816  0.93289  0.96775  1.0000
  H   H3060     1.0  0.44151  0.90317  0.90197  1.0000
  C   C3795     1.0  0.42975  0.97367  0.97638  1.0000
  C   C3796     1.0  0.36827  0.74889  0.76912  1.0000
  H   H3061     1.0  0.32167  0.93023  0.84107  1.0000
  H   H3062     1.0  0.40635  0.96356  0.97897  1.0000
  H   H3063     1.0  0.45052  0.77827  0.78022  1.0000
  H   H3064     1.0  0.47376  0.92714  0.83848  1.0000
  C   C3797     1.0  0.47835  0.76944  0.77240  1.0000
  H   H3065     1.0  0.42921  0.95164  0.86317  1.0000
  H   H3066     1.0  0.18204  0.85112  0.84726  1.0000
  H   H3067     1.0  0.42347  0.93284  0.97845  1.0000
  C   C3798     1.0  0.44123  0.77937  0.81374  1.0000
  H   H3068     1.0  0.42433  0.90128  0.83224  1.0000
  H   H3069     1.0  0.45463  0.79512  0.79678  1.0000
  H   H3070     1.0  0.41202  0.74547  0.78099  1.0000
  H   H3071     1.0  0.47740  0.77723  0.76301  1.0000
  H   H3072     1.0  0.43707  0.74100  0.79136  1.0000
  H   H3073     1.0  0.35626  0.75733  0.79620  1.0000
  H   H3074     1.0  0.35942  0.95627  0.86109  1.0000
  H   H3075     1.0  0.18059  0.74150  0.74766  1.0000
  C   C3799     1.0  0.48091  0.93233  0.95148  1.0000
  C   C3800     1.0  0.46311  0.76994  0.78219  1.0000
  C   C3801     1.0  0.31611  0.90432  0.84666  1.0000
  C   C3802     1.0  0.32031  0.88706  0.85367  1.0000
  C   C3803     1.0  0.33335  0.88255  0.86081  1.0000
  C   C3804     1.0  0.34260  0.89511  0.86063  1.0000
  C   C3805     1.0  0.33837  0.91252  0.85375  1.0000
  C   C3806     1.0  0.32501  0.91706  0.84673  1.0000
  P   P124      1.0  0.35114  0.92829  0.85319  1.0000
  C   C3807     1.0  0.34839  0.93277  0.86859  1.0000
  C   C3808     1.0  0.37441  0.91981  0.84661  1.0000
  C   C3809     1.0  0.38818  0.92462  0.84961  1.0000
  C   C3810     1.0  0.40611  0.91799  0.84442  1.0000
  C   C3811     1.0  0.41044  0.90668  0.83609  1.0000
  C   C3812     1.0  0.39684  0.90205  0.83290  1.0000
  C   C3813     1.0  0.37891  0.90865  0.83806  1.0000
  C   C3814     1.0  0.35367  0.94759  0.86950  1.0000
  C   C3815     1.0  0.35201  0.95109  0.88129  1.0000
  C   C3816     1.0  0.34478  0.94002  0.89228  1.0000
  C   C3817     1.0  0.33904  0.92554  0.89148  1.0000
  C   C3818     1.0  0.34083  0.92189  0.87971  1.0000
  C   C3819     1.0  0.34342  0.94902  0.84295  1.0000
  C   C3820     1.0  0.32796  0.96087  0.84757  1.0000
  H   H3076     1.0  0.36861  0.90490  0.83541  1.0000
  C   C3821     1.0  0.32164  0.97682  0.83967  1.0000
  C   C3822     1.0  0.35232  0.95323  0.83028  1.0000
  H   H3077     1.0  0.30617  0.90768  0.84098  1.0000
  H   H3078     1.0  0.31379  0.87704  0.85336  1.0000
  H   H3079     1.0  0.33680  0.86911  0.86616  1.0000
  C   C3823     1.0  0.22688  0.74962  0.73438  1.0000
  H   H3080     1.0  0.49964  0.90880  0.82683  1.0000
  H   H3081     1.0  0.35285  0.97234  0.81262  1.0000
  H   H3082     1.0  0.47964  0.77031  0.87749  1.0000
  C   C3824     1.0  0.38660  0.93107  0.97761  1.0000
  H   H3083     1.0  0.27553  0.78628  0.74367  1.0000
  H   H3084     1.0  0.49252  0.87913  0.93789  1.0000
  C   C3825     1.0  0.27859  0.75725  0.84272  1.0000
  C   C3826     1.0  0.39144  0.74605  0.84216  1.0000
  H   H3085     1.0  0.13158  0.77041  0.76256  1.0000
  H   H3086     1.0  0.24570  0.77902  0.74930  1.0000
  C   C3827     1.0  0.48074  0.74928  0.79659  1.0000
  H   H3087     1.0  0.28445  0.77810  0.86814  1.0000
  C   C3828     1.0  0.13630  0.74256  0.77089  1.0000
  C   C3829     1.0  0.21330  0.77442  0.81752  1.0000
  C   C3830     1.0  0.27428  0.77265  0.74730  1.0000
  Fe  Fe257     1.0  0.20448  0.74227  0.77927  1.0000
  C   C3831     1.0  0.28781  0.74155  0.75400  1.0000
  H   H3088     1.0  0.41423  0.76035  0.88937  1.0000
  H   H3089     1.0  0.36330  0.90308  0.98184  1.0000
  C   C3832     1.0  0.44502  0.74118  0.81966  1.0000
  C   C3833     1.0  0.49427  0.89027  0.88846  1.0000
  C   C3834     1.0  0.26597  0.77550  0.85825  1.0000
  C   C3835     1.0  0.26387  0.76791  0.84913  1.0000
  H   H3090     1.0  0.49674  0.88999  0.90703  1.0000
  C   C3836     1.0  0.25342  0.75367  0.79247  1.0000
  H   H3091     1.0  0.30240  0.76259  0.74629  1.0000
  C   C3837     1.0  0.44988  0.76210  0.86441  1.0000
  C   C3838     1.0  0.47996  0.74838  0.90779  1.0000
  C   C3839     1.0  0.48637  0.75504  0.89500  1.0000
  H   H3092     1.0  0.42654  0.98157  0.87111  1.0000
  C   C3840     1.0  0.49108  0.97925  0.97066  1.0000
  H   H3093     1.0  0.29665  0.74943  0.81607  1.0000
  C   C3841     1.0  0.32808  0.75548  0.82512  1.0000
  H   H3094     1.0  0.42230  0.98706  0.97672  1.0000
  H   H3095     1.0  0.49060  0.97412  0.98061  1.0000
  C   C3842     1.0  0.49476  0.75882  0.77470  1.0000
  C   C3843     1.0  0.33809  0.75038  0.81385  1.0000
  C   C3844     1.0  0.39807  0.98359  0.95024  1.0000
  H   H3096     1.0  0.23242  0.74204  0.79169  1.0000
  C   C3845     1.0  0.48840  0.85308  0.93999  1.0000
  H   H3097     1.0  0.33027  0.84725  0.73612  1.0000
  H   H3098     1.0  0.46003  0.98521  0.82306  1.0000
  H   H3099     1.0  0.48624  0.97754  0.89046  1.0000
  S   S514      1.0  0.38117  0.74613  0.82048  1.0000
  C   C3846     1.0  0.48842  0.97641  0.95048  1.0000
  H   H3100     1.0  0.48838  0.82592  0.94127  1.0000
  H   H3101     1.0  0.30823  0.80497  0.73496  1.0000
  C   C3847     1.0  0.42148  0.74489  0.87527  1.0000
  C   C3848     1.0  0.42363  0.75749  0.88085  1.0000
  H   H3102     1.0  0.27652  0.75141  0.83584  1.0000
  H   H3103     1.0  0.11731  0.74716  0.86272  1.0000
  H   H3104     1.0  0.14083  0.74391  0.77874  1.0000
  H   H3105     1.0  0.39821  0.92050  0.97884  1.0000
  C   C3849     1.0  0.43339  0.74106  0.86420  1.0000
  H   H3106     1.0  0.33931  0.74060  0.74462  1.0000
  P   P125      1.0  0.31508  0.74093  0.83688  1.0000
  Fe  Fe258     1.0  0.59288  0.11586  0.00905  1.0000
  S   S515      1.0  0.57034  0.10342  0.01020  1.0000
  Fe  Fe259     1.0  0.57998  0.12225  0.03603  1.0000
  S   S516      1.0  0.55649  0.10997  0.03911  1.0000
  S   S517      1.0  0.57947  0.13132  0.05370  1.0000
  Fe  Fe260     1.0  0.57531  0.08889  0.02943  1.0000
  S   S518      1.0  0.57456  0.06005  0.03863  1.0000
  Fe  Fe261     1.0  0.55366  0.12546  0.01975  1.0000
  S   S519      1.0  0.52707  0.14132  0.01565  1.0000
  S   S520      1.0  0.59923  0.09984  0.02777  1.0000
  S   S521      1.0  0.57576  0.13919  0.01715  1.0000
  H   H3107     1.0  0.81405  0.13349  0.22040  1.0000
  H   H3108     1.0  0.73112  0.12479  0.23264  1.0000
  C   C3850     1.0  0.51220  0.01170  0.06183  1.0000
  Fe  Fe262     1.0  0.60095  0.20253  0.08068  1.0000
  S   S522      1.0  0.59190  0.19046  0.10124  1.0000
  S   S523      1.0  0.61197  0.18897  0.06393  1.0000
  Fe  Fe263     1.0  0.56915  0.21416  0.10103  1.0000
  S   S524      1.0  0.54093  0.21247  0.11129  1.0000
  Fe  Fe264     1.0  0.60665  0.20786  0.10530  1.0000
  S   S525      1.0  0.61904  0.19788  0.12256  1.0000
  S   S526      1.0  0.57700  0.22510  0.08031  1.0000
  S   S527      1.0  0.61792  0.21791  0.08472  1.0000
  C   C3851     1.0  0.50122  0.03240  0.03811  1.0000
  C   C3852     1.0  0.51001  0.07853  0.01262  1.0000
  H   H3109     1.0  0.58155  0.19189  0.13987  1.0000
  C   C3853     1.0  0.62703  0.08217  0.13506  1.0000
  H   H3110     1.0  0.63088  0.07050  0.14212  1.0000
  C   C3854     1.0  0.79465  0.23295  0.22168  1.0000
  H   H3111     1.0  0.51306  0.07992  0.09499  1.0000
  H   H3112     1.0  0.86450  0.19517  0.20025  1.0000
  H   H3113     1.0  0.52426  0.15149  0.10977  1.0000
  H   H3114     1.0  0.73834  0.12242  0.21030  1.0000
  C   C3855     1.0  0.58406  0.14780  0.12241  1.0000
  C   C3856     1.0  0.71007  0.23263  0.22481  1.0000
  H   H3115     1.0  0.63985  0.11753  0.06284  1.0000
  H   H3116     1.0  0.64040  0.18009  0.07874  1.0000
  H   H3117     1.0  0.53625  0.06910  0.01674  1.0000
  H   H3118     1.0  0.55315  0.14401  0.98432  1.0000
  H   H3119     1.0  0.65210  0.18302  0.09620  1.0000
  C   C3857     1.0  0.64015  0.09004  0.12607  1.0000
  C   C3858     1.0  0.56864  0.03921  0.01139  1.0000
  S   S528      1.0  0.58310  0.23072  0.10644  1.0000
  H   H3120     1.0  0.53146  0.14180  0.08963  1.0000
  H   H3121     1.0  0.72350  0.05845  0.23225  1.0000
  C   C3859     1.0  0.64486  0.17277  0.09768  1.0000
  C   C3860     1.0  0.52739  0.08958  0.98772  1.0000
  H   H3122     1.0  0.58688  0.11524  0.09828  1.0000
  C   C3861     1.0  0.56333  0.23580  0.13772  1.0000
  C   C3862     1.0  0.63823  0.17115  0.08789  1.0000
  C   C3863     1.0  0.63287  0.20869  0.12635  1.0000
  C   C3864     1.0  0.64538  0.21704  0.11703  1.0000
  C   C3865     1.0  0.65787  0.22330  0.12048  1.0000
  C   C3866     1.0  0.65769  0.22163  0.13326  1.0000
  C   C3867     1.0  0.64460  0.21409  0.14256  1.0000
  C   C3868     1.0  0.63245  0.20740  0.13911  1.0000
  H   H3123     1.0  0.64601  0.21791  0.10718  1.0000
  H   H3124     1.0  0.66795  0.22912  0.11324  1.0000
  C   C3869     1.0  0.50405  0.14925  0.08736  1.0000
  C   C3870     1.0  0.50486  0.04988  0.05734  1.0000
  C   C3871     1.0  0.52915  0.20681  0.10247  1.0000
  H   H3125     1.0  0.69210  0.17313  0.22376  1.0000
  C   C3872     1.0  0.54442  0.17500  0.05319  1.0000
  H   H3126     1.0  0.50418  0.01746  0.08047  1.0000
  C   C3873     1.0  0.52771  0.19929  0.08343  1.0000
  C   C3874     1.0  0.53757  0.20287  0.09065  1.0000
  C   C3875     1.0  0.55360  0.20398  0.14038  1.0000
  H   H3127     1.0  0.50956  0.08551  0.03707  1.0000
  H   H3128     1.0  0.53427  0.19656  0.07422  1.0000
  H   H3129     1.0  0.55165  0.20264  0.08703  1.0000
  C   C3876     1.0  0.57055  0.04595  0.03059  1.0000
  C   C3877     1.0  0.57116  0.05092  0.01764  1.0000
  C   C3878     1.0  0.56716  0.02923  0.03724  1.0000
  H   H3130     1.0  0.57395  0.06364  0.01238  1.0000
  H   H3131     1.0  0.56689  0.02519  0.04725  1.0000
  C   C3879     1.0  0.58775  0.14860  0.05559  1.0000
  C   C3880     1.0  0.60261  0.15436  0.04723  1.0000
  C   C3881     1.0  0.60982  0.16681  0.04986  1.0000
  C   C3882     1.0  0.60203  0.17390  0.06071  1.0000
  C   C3883     1.0  0.58673  0.16872  0.06876  1.0000
  C   C3884     1.0  0.57988  0.15585  0.06637  1.0000
  H   H3132     1.0  0.60891  0.14879  0.03897  1.0000
  H   H3133     1.0  0.62161  0.17083  0.04352  1.0000
  H   H3134     1.0  0.58036  0.17449  0.07692  1.0000
  H   H3135     1.0  0.56836  0.15151  0.07287  1.0000
  C   C3885     1.0  0.58863  0.14381  0.11041  1.0000
  C   C3886     1.0  0.50482  0.09936  0.03326  1.0000
  C   C3887     1.0  0.51134  0.12804  0.02260  1.0000
  C   C3888     1.0  0.51711  0.11024  0.02796  1.0000
  C   C3889     1.0  0.51688  0.21987  0.04860  1.0000
  S   S529      1.0  0.56438  0.00780  0.00913  1.0000
  C   C3890     1.0  0.60895  0.08926  0.13487  1.0000
  H   H3136     1.0  0.53113  0.10463  0.02772  1.0000
  C   C3891     1.0  0.57633  0.15070  0.10251  1.0000
  C   C3892     1.0  0.79411  0.21890  0.21675  1.0000
  C   C3893     1.0  0.56731  0.15827  0.12649  1.0000
  C   C3894     1.0  0.85553  0.18317  0.21974  1.0000
  C   C3895     1.0  0.57136  0.20404  0.13976  1.0000
  C   C3896     1.0  0.51118  0.20898  0.04347  1.0000
  C   C3897     1.0  0.52412  0.15484  0.06023  1.0000
  C   C3898     1.0  0.76175  0.22696  0.22120  1.0000
  C   C3899     1.0  0.77770  0.21593  0.21654  1.0000
  C   C3900     1.0  0.51365  0.15257  0.10513  1.0000
  C   C3901     1.0  0.52180  0.23553  0.04108  1.0000
  C   C3902     1.0  0.52695  0.15321  0.04770  1.0000
  H   H3137     1.0  0.54596  0.12286  0.06350  1.0000
  C   C3903     1.0  0.63156  0.14882  0.11168  1.0000
  C   C3904     1.0  0.50939  0.19977  0.08795  1.0000
  S   S530      1.0  0.67479  0.22791  0.13721  1.0000
  C   C3905     1.0  0.53277  0.16601  0.06287  1.0000
  H   H3138     1.0  0.50448  0.20952  0.11640  1.0000
  P   P126      1.0  0.61083  0.13155  0.10484  1.0000
  H   H3139     1.0  0.86802  0.23849  0.23100  1.0000
  H   H3140     1.0  0.53160  0.03895  0.01020  1.0000
  C   C3906     1.0  0.54732  0.17312  0.04080  1.0000
  H   H3141     1.0  0.72259  0.14532  0.19484  1.0000
  H   H3142     1.0  0.52680  0.04006  0.03256  1.0000
  H   H3143     1.0  0.58993  0.10947  0.12560  1.0000
  H   H3144     1.0  0.54049  0.16103  0.02843  1.0000
  C   C3907     1.0  0.54724  0.09591  0.07342  1.0000
  C   C3908     1.0  0.55962  0.16118  0.10659  1.0000
  H   H3145     1.0  0.57975  0.14845  0.09307  1.0000
  H   H3146     1.0  0.61444  0.10649  0.06142  1.0000
  C   C3909     1.0  0.64151  0.16162  0.10957  1.0000
  H   H3147     1.0  0.52457  0.00261  0.04443  1.0000
  C   C3910     1.0  0.63295  0.06911  0.99489  1.0000
  C   C3911     1.0  0.52310  0.04946  0.05564  1.0000
  C   C3912     1.0  0.50112  0.20314  0.09995  1.0000
  H   H3148     1.0  0.54479  0.06996  0.08460  1.0000
  C   C3913     1.0  0.54064  0.21980  0.13977  1.0000
  H   H3149     1.0  0.56203  0.00466  0.03612  1.0000
  C   C3914     1.0  0.62809  0.15851  0.09001  1.0000
  H   H3150     1.0  0.58821  0.10515  0.07916  1.0000
  C   C3915     1.0  0.63521  0.10509  0.11694  1.0000
  C   C3916     1.0  0.51072  0.21344  0.03068  1.0000
  H   H3151     1.0  0.74903  0.22455  0.22118  1.0000
  H   H3152     1.0  0.52045  0.14470  0.04535  1.0000
  H   H3153     1.0  0.71355  0.19377  0.21678  1.0000
  H   H3154     1.0  0.83860  0.10842  0.22646  1.0000
  C   C3917     1.0  0.52850  0.06339  0.05769  1.0000
  H   H3155     1.0  0.50320  0.07370  0.02216  1.0000
  C   C3918     1.0  0.71052  0.14867  0.23010  1.0000
  C   C3919     1.0  0.52302  0.99253  0.08024  1.0000
  H   H3156     1.0  0.64437  0.21268  0.15241  1.0000
  C   C3920     1.0  0.84388  0.21350  0.20998  1.0000
  H   H3157     1.0  0.60339  0.22554  0.04782  1.0000
  H   H3158     1.0  0.86437  0.17038  0.21908  1.0000
  H   H3159     1.0  0.62293  0.20083  0.14639  1.0000
  H   H3160     1.0  0.84361  0.22386  0.20152  1.0000
  H   H3161     1.0  0.55139  0.18324  0.05535  1.0000
  H   H3162     1.0  0.62638  0.07512  0.01326  1.0000
  H   H3163     1.0  0.52002  0.08905  0.06230  1.0000
  C   C3921     1.0  0.51587  0.22889  0.02304  1.0000
  C   C3922     1.0  0.52019  0.08936  0.08813  1.0000
  H   H3164     1.0  0.54258  0.06318  0.05611  1.0000
  C   C3923     1.0  0.81110  0.12253  0.22814  1.0000
  C   C3924     1.0  0.62498  0.14700  0.10184  1.0000
  C   C3925     1.0  0.62581  0.06615  0.00784  1.0000
  H   H3165     1.0  0.87179  0.20755  0.22922  1.0000
  Fe  Fe265     1.0  0.67126  0.23581  0.15578  1.0000
  C   C3926     1.0  0.72802  0.13325  0.21341  1.0000
  C   C3927     1.0  0.60397  0.10432  0.12575  1.0000
  H   H3166     1.0  0.58680  0.20583  0.04464  1.0000
  H   H3167     1.0  0.53061  0.16790  0.07231  1.0000
  H   H3168     1.0  0.63891  0.12763  0.08178  1.0000
  C   C3928     1.0  0.85561  0.19714  0.20917  1.0000
  H   H3169     1.0  0.53319  0.03843  0.05265  1.0000
  P   P127      1.0  0.81576  0.23664  0.22230  1.0000
  H   H3170     1.0  0.56108  0.09165  0.06881  1.0000
  C   C3929     1.0  0.53839  0.16243  0.03804  1.0000
  C   C3930     1.0  0.62839  0.11693  0.07066  1.0000
  H   H3171     1.0  0.52715  0.21937  0.13993  1.0000
  H   H3172     1.0  0.55657  0.17985  0.03336  1.0000
  C   C3931     1.0  0.53807  0.08374  0.08232  1.0000
  H   H3173     1.0  0.78288  0.13358  0.23219  1.0000
  C   C3932     1.0  0.70617  0.16033  0.20859  1.0000
  C   C3933     1.0  0.56530  0.02251  0.01795  1.0000
  S   S531      1.0  0.65848  0.22403  0.17560  1.0000
  C   C3934     1.0  0.51669  0.03664  0.02950  1.0000
  H   H3174     1.0  0.77731  0.20491  0.21294  1.0000
  H   H3175     1.0  0.54993  0.19178  0.14093  1.0000
  H   H3176     1.0  0.69965  0.17065  0.20176  1.0000
  H   H3177     1.0  0.73620  0.16720  0.23150  1.0000
  H   H3178     1.0  0.59879  0.08303  0.14174  1.0000
  H   H3179     1.0  0.62229  0.15810  0.08250  1.0000
  C   C3935     1.0  0.52058  0.11935  0.07595  1.0000
  H   H3180     1.0  0.60104  0.00822  0.00586  1.0000
  H   H3181     1.0  0.72099  0.20542  0.23247  1.0000
  C   C3936     1.0  0.52375  0.99994  0.05444  1.0000
  C   C3937     1.0  0.51768  0.14722  0.09369  1.0000
  C   C3938     1.0  0.84376  0.18559  0.23115  1.0000
  H   H3182     1.0  0.56399  0.16158  0.13564  1.0000
  P   P128      1.0  0.50953  0.14239  0.07252  1.0000
  C   C3939     1.0  0.82492  0.10842  0.23153  1.0000
  C   C3940     1.0  0.53856  0.11365  0.07031  1.0000
  S   S532      1.0  0.69564  0.21072  0.19615  1.0000
  H   H3183     1.0  0.61019  0.02958  0.01151  1.0000
  C   C3941     1.0  0.50861  0.09345  0.99103  1.0000
  Fe  Fe266     1.0  0.68060  0.23008  0.18163  1.0000
  C   C3942     1.0  0.51577  0.07784  0.06145  1.0000
  C   C3943     1.0  0.51946  0.03610  0.01678  1.0000
  H   H3184     1.0  0.80627  0.21001  0.21325  1.0000
  H   H3185     1.0  0.50640  0.20487  0.02672  1.0000
  C   C3944     1.0  0.70183  0.16163  0.22122  1.0000
  C   C3945     1.0  0.70162  0.21939  0.20687  1.0000
  C   C3946     1.0  0.61689  0.04032  0.00670  1.0000
  H   H3186     1.0  0.51552  0.23230  0.01311  1.0000
  H   H3187     1.0  0.59360  0.14321  0.12848  1.0000
  C   C3947     1.0  0.51100  0.20662  0.10722  1.0000
  C   C3948     1.0  0.71446  0.21443  0.22524  1.0000
  C   C3949     1.0  0.55510  0.16498  0.11857  1.0000
  H   H3188     1.0  0.64605  0.16341  0.11728  1.0000
  C   C3950     1.0  0.59933  0.10985  0.07992  1.0000
  H   H3189     1.0  0.62860  0.14076  0.12108  1.0000
  S   S533      1.0  0.61416  0.12047  0.99131  1.0000
  C   C3951     1.0  0.61761  0.05186  0.01372  1.0000
  C   C3952     1.0  0.71022  0.20784  0.21632  1.0000
  H   H3190     1.0  0.59003  0.22000  0.13783  1.0000
  C   C3953     1.0  0.62428  0.04303  0.99366  1.0000
  H   H3191     1.0  0.64552  0.11092  0.10991  1.0000
  H   H3192     1.0  0.55039  0.16681  0.10030  1.0000
  H   H3193     1.0  0.56931  0.04310  0.00138  1.0000
  C   C3954     1.0  0.59852  0.11584  0.09062  1.0000
  C   C3955     1.0  0.61417  0.11056  0.06989  1.0000
  H   H3194     1.0  0.65418  0.08443  0.12612  1.0000
  C   C3956     1.0  0.52864  0.07568  0.00948  1.0000
  H   H3195     1.0  0.50718  0.19702  0.04945  1.0000
  C   C3957     1.0  0.51148  0.10712  0.08498  1.0000
  H   H3196     1.0  0.54234  0.17355  0.12156  1.0000
  C   C3958     1.0  0.61238  0.12305  0.09122  1.0000
  C   C3959     1.0  0.62765  0.12292  0.08135  1.0000
  C   C3960     1.0  0.61706  0.11256  0.11691  1.0000
  C   C3961     1.0  0.56434  0.01759  0.03097  1.0000
  C   C3962     1.0  0.51237  0.00816  0.07471  1.0000
  C   C3963     1.0  0.61414  0.99972  0.00388  1.0000
  C   C3964     1.0  0.53737  0.08102  0.99700  1.0000
  C   C3965     1.0  0.50669  0.03175  0.01249  1.0000
  C   C3966     1.0  0.57992  0.21910  0.04583  1.0000
  H   H3197     1.0  0.61158  0.04986  0.02373  1.0000
  C   C3967     1.0  0.71919  0.14613  0.20468  1.0000
  H   H3198     1.0  0.50895  0.03115  0.00267  1.0000
  C   C3968     1.0  0.83224  0.21616  0.22151  1.0000
  C   C3969     1.0  0.56163  0.22485  0.04595  1.0000
  C   C3970     1.0  0.72382  0.13458  0.22605  1.0000
  C   C3971     1.0  0.58932  0.23027  0.04757  1.0000
  C   C3972     1.0  0.57617  0.21993  0.13857  1.0000
  H   H3199     1.0  0.55463  0.21584  0.04477  1.0000
  C   C3973     1.0  0.64440  0.99430  0.99152  1.0000
  H   H3200     1.0  0.51745  0.21609  0.05846  1.0000
  H   H3201     1.0  0.63910  0.08033  0.99038  1.0000
  S   S534      1.0  0.69488  0.23914  0.16161  1.0000
  C   C3974     1.0  0.54538  0.23590  0.13838  1.0000
  C   C3975     1.0  0.83224  0.20201  0.23207  1.0000
  C   C3976     1.0  0.62748  0.00562  0.99380  1.0000
  C   C3977     1.0  0.52138  0.23994  0.02821  1.0000
  H   H3202     1.0  0.55185  0.07842  0.99457  1.0000
  C   C3978     1.0  0.63179  0.05791  0.98774  1.0000
  C   C3979     1.0  0.69790  0.23761  0.20618  1.0000
  P   P129      1.0  0.62327  0.02803  0.98460  1.0000
  H   H3203     1.0  0.65506  0.99854  0.98397  1.0000
  Fe  Fe267     1.0  0.59310  0.23960  0.08575  1.0000
  H   H3204     1.0  0.57850  0.13538  0.46081  1.0000
  C   C3980     1.0  0.78975  0.10876  0.24509  1.0000
  Fe  Fe268     1.0  0.52655  0.09075  0.43552  1.0000
  S   S535      1.0  0.51866  0.10372  0.41695  1.0000
  H   H3205     1.0  0.57416  0.07259  0.47483  1.0000
  H   H3206     1.0  0.58244  0.03206  0.32796  1.0000
  C   C3981     1.0  0.72068  0.03956  0.26347  1.0000
  Fe  Fe269     1.0  0.54678  0.10783  0.41034  1.0000
  S   S536      1.0  0.56165  0.10473  0.39068  1.0000
  S   S537      1.0  0.55541  0.09243  0.42836  1.0000
  H   H3207     1.0  0.59573  0.13792  0.38622  1.0000
  C   C3982     1.0  0.55364  0.00260  0.38213  1.0000
  S   S538      1.0  0.78953  0.19167  0.24925  1.0000
  H   H3208     1.0  0.51694  0.00781  0.40606  1.0000
  C   C3983     1.0  0.57866  0.02312  0.34818  1.0000
  S   S539      1.0  0.74011  0.19570  0.25238  1.0000
  Fe  Fe270     1.0  0.83138  0.10371  0.28727  1.0000
  S   S540      1.0  0.82779  0.12111  0.30058  1.0000
  S   S541      1.0  0.83051  0.11318  0.26670  1.0000
  Fe  Fe271     1.0  0.83875  0.06949  0.30678  1.0000
  S   S542      1.0  0.83588  0.08398  0.32207  1.0000
  S   S543      1.0  0.84659  0.03956  0.30866  1.0000
  Fe  Fe272     1.0  0.81224  0.10184  0.31444  1.0000
  S   S544      1.0  0.78580  0.11400  0.32547  1.0000
  Fe  Fe273     1.0  0.85167  0.10224  0.30711  1.0000
  S   S545      1.0  0.87492  0.11262  0.30828  1.0000
  S   S546      1.0  0.81379  0.08602  0.30051  1.0000
  S   S547      1.0  0.85666  0.08622  0.29249  1.0000
  Fe  Fe274     1.0  0.88345  0.18471  0.34093  1.0000
  S   S548      1.0  0.91104  0.18387  0.32910  1.0000
  S   S549      1.0  0.86527  0.16596  0.34343  1.0000
  Fe  Fe275     1.0  0.88342  0.21761  0.34969  1.0000
  S   S550      1.0  0.91089  0.21985  0.33824  1.0000
  C   C3984     1.0  0.78404  0.00670  0.36872  1.0000
  Fe  Fe276     1.0  0.90211  0.21327  0.32306  1.0000
  C   C3985     1.0  0.82714  0.04675  0.25958  1.0000
  Fe  Fe277     1.0  0.91836  0.19037  0.34485  1.0000
  S   S551      1.0  0.94468  0.17622  0.35072  1.0000
  S   S552      1.0  0.87366  0.21384  0.33380  1.0000
  S   S553      1.0  0.89144  0.18841  0.35753  1.0000
  Fe  Fe278     1.0  0.51240  0.12880  0.42371  1.0000
  S   S554      1.0  0.62994  0.01593  0.32810  1.0000
  Fe  Fe279     1.0  0.67974  0.11816  0.34323  1.0000
  S   S555      1.0  0.68730  0.10199  0.36132  1.0000
  S   S556      1.0  0.68008  0.14709  0.33770  1.0000
  Fe  Fe280     1.0  0.67140  0.08721  0.33706  1.0000
  S   S557      1.0  0.67802  0.06828  0.35475  1.0000
  S   S558      1.0  0.66112  0.08307  0.32158  1.0000
  Fe  Fe281     1.0  0.66314  0.09100  0.36423  1.0000
  S   S559      1.0  0.64544  0.08972  0.38367  1.0000
  Fe  Fe282     1.0  0.70149  0.08108  0.35027  1.0000
  S   S560      1.0  0.72937  0.06571  0.35132  1.0000
  S   S561      1.0  0.65450  0.10876  0.34696  1.0000
  S   S562      1.0  0.69612  0.09815  0.33182  1.0000
  H   H3209     1.0  0.77610  0.10920  0.25037  1.0000
  C   C3986     1.0  0.61233  0.01731  0.41283  1.0000
  H   H3210     1.0  0.79149  0.04056  0.27236  1.0000
  H   H3211     1.0  0.91325  0.09117  0.30946  1.0000
  H   H3212     1.0  0.74347  0.10376  0.28237  1.0000
  C   C3987     1.0  0.85631  0.21955  0.26210  1.0000
  H   H3213     1.0  0.69185  0.10062  0.30645  1.0000
  H   H3214     1.0  0.67875  0.10227  0.39027  1.0000
  C   C3988     1.0  0.64949  0.00879  0.41008  1.0000
  C   C3989     1.0  0.63938  0.03402  0.32654  1.0000
  C   C3990     1.0  0.63221  0.05041  0.31950  1.0000
  C   C3991     1.0  0.63929  0.06518  0.31790  1.0000
  C   C3992     1.0  0.65299  0.06395  0.32386  1.0000
  C   C3993     1.0  0.66004  0.04767  0.33113  1.0000
  C   C3994     1.0  0.65357  0.03256  0.33218  1.0000
  H   H3215     1.0  0.62138  0.05160  0.31504  1.0000
  H   H3216     1.0  0.63390  0.07769  0.31218  1.0000
  H   H3217     1.0  0.67055  0.04670  0.33581  1.0000
  H   H3218     1.0  0.65919  0.01995  0.33764  1.0000
  C   C3995     1.0  0.96039  0.18956  0.34743  1.0000
  C   C3996     1.0  0.97491  0.18377  0.35343  1.0000
  C   C3997     1.0  0.98702  0.19466  0.35136  1.0000
  C   C3998     1.0  0.98457  0.21142  0.34333  1.0000
  C   C3999     1.0  0.97036  0.21696  0.33708  1.0000
  C   C4000     1.0  0.95841  0.20602  0.33905  1.0000
  H   H3219     1.0  0.97657  0.17106  0.35993  1.0000
  H   H3220     1.0  0.84332  0.99160  0.29058  1.0000
  H   H3221     1.0  0.73755  0.22766  0.35470  1.0000
  H   H3222     1.0  0.94772  0.21036  0.33402  1.0000
  C   C4001     1.0  0.83598  0.02919  0.30167  1.0000
  C   C4002     1.0  0.84446  0.01245  0.29891  1.0000
  C   C4003     1.0  0.83646  0.00423  0.29299  1.0000
  C   C4004     1.0  0.81980  0.01262  0.28995  1.0000
  C   C4005     1.0  0.81111  0.02897  0.29319  1.0000
  C   C4006     1.0  0.81913  0.03727  0.29894  1.0000
  H   H3223     1.0  0.85744  0.00603  0.30109  1.0000
  H   H3224     1.0  0.54243  0.02155  0.39413  1.0000
  H   H3225     1.0  0.79804  0.03522  0.29134  1.0000
  H   H3226     1.0  0.81224  0.04991  0.30127  1.0000
  C   C4007     1.0  0.87178  0.12792  0.31777  1.0000
  C   C4008     1.0  0.88518  0.13723  0.31595  1.0000
  C   C4009     1.0  0.88341  0.14893  0.32370  1.0000
  C   C4010     1.0  0.86821  0.15138  0.33339  1.0000
  C   C4011     1.0  0.85476  0.14220  0.33512  1.0000
  C   C4012     1.0  0.85650  0.13056  0.32733  1.0000
  H   H3227     1.0  0.89699  0.13535  0.30853  1.0000
  H   H3228     1.0  0.89372  0.15615  0.32210  1.0000
  H   H3229     1.0  0.84293  0.14408  0.34254  1.0000
  H   H3230     1.0  0.84617  0.12337  0.32886  1.0000
  C   C4013     1.0  0.77031  0.10028  0.33202  1.0000
  C   C4014     1.0  0.75216  0.10803  0.33558  1.0000
  C   C4015     1.0  0.73953  0.09744  0.34121  1.0000
  C   C4016     1.0  0.74505  0.07900  0.34358  1.0000
  C   C4017     1.0  0.76320  0.07118  0.33993  1.0000
  C   C4018     1.0  0.77580  0.08183  0.33400  1.0000
  H   H3231     1.0  0.74784  0.12230  0.33401  1.0000
  H   H3232     1.0  0.72557  0.10359  0.34397  1.0000
  H   H3233     1.0  0.76754  0.05692  0.34174  1.0000
  H   H3234     1.0  0.78981  0.07578  0.33126  1.0000
  C   C4019     1.0  0.79969  0.16954  0.25450  1.0000
  C   C4020     1.0  0.81177  0.16041  0.24564  1.0000
  C   C4021     1.0  0.82087  0.14302  0.24952  1.0000
  C   C4022     1.0  0.81818  0.13473  0.26231  1.0000
  C   C4023     1.0  0.80598  0.14376  0.27123  1.0000
  C   C4024     1.0  0.79653  0.16114  0.26729  1.0000
  C   C4025     1.0  0.90323  0.23850  0.27999  1.0000
  H   H3235     1.0  0.82055  0.04293  0.25386  1.0000
  H   H3236     1.0  0.80384  0.13737  0.28113  1.0000
  H   H3237     1.0  0.78716  0.16818  0.27416  1.0000
  C   C4026     1.0  0.70258  0.16273  0.29544  1.0000
  C   C4027     1.0  0.70344  0.17276  0.30352  1.0000
  C   C4028     1.0  0.69626  0.16810  0.31653  1.0000
  C   C4029     1.0  0.68854  0.15326  0.32143  1.0000
  C   C4030     1.0  0.68748  0.14344  0.31329  1.0000
  C   C4031     1.0  0.69435  0.14828  0.30031  1.0000
  C   C4032     1.0  0.83097  0.18747  0.28255  1.0000
  H   H3238     1.0  0.69705  0.17575  0.32281  1.0000
  H   H3239     1.0  0.68103  0.13234  0.31697  1.0000
  H   H3240     1.0  0.69331  0.14078  0.29405  1.0000
  C   C4033     1.0  0.58489  0.10152  0.38847  1.0000
  C   C4034     1.0  0.59252  0.10065  0.39845  1.0000
  C   C4035     1.0  0.61113  0.09751  0.39671  1.0000
  C   C4036     1.0  0.62220  0.09520  0.38504  1.0000
  C   C4037     1.0  0.61458  0.09691  0.37487  1.0000
  C   C4038     1.0  0.59592  0.09985  0.37663  1.0000
  H   H3241     1.0  0.58412  0.10240  0.40751  1.0000
  H   H3242     1.0  0.61693  0.09713  0.40436  1.0000
  H   H3243     1.0  0.62305  0.09604  0.36570  1.0000
  H   H3244     1.0  0.59005  0.10083  0.36884  1.0000
  C   C4039     1.0  0.55990  0.01663  0.44307  1.0000
  C   C4040     1.0  0.54188  0.01615  0.44522  1.0000
  C   C4041     1.0  0.52860  0.03134  0.44694  1.0000
  C   C4042     1.0  0.53329  0.04718  0.44616  1.0000
  C   C4043     1.0  0.55127  0.04741  0.44461  1.0000
  C   C4044     1.0  0.56455  0.03206  0.44323  1.0000
  H   H3245     1.0  0.53815  0.00424  0.44523  1.0000
  H   H3246     1.0  0.51477  0.03085  0.44844  1.0000
  H   H3247     1.0  0.55490  0.05932  0.44467  1.0000
  H   H3248     1.0  0.57840  0.03213  0.44218  1.0000
  C   C4045     1.0  0.88301  0.13378  0.27650  1.0000
  C   C4046     1.0  0.57467  0.08643  0.47198  1.0000
  C   C4047     1.0  0.56784  0.09712  0.46144  1.0000
  C   C4048     1.0  0.56908  0.11488  0.45746  1.0000
  C   C4049     1.0  0.51143  0.05124  0.41068  1.0000
  H   H3249     1.0  0.92240  0.20012  0.36721  1.0000
  H   H3250     1.0  0.69598  0.01801  0.37371  1.0000
  H   H3251     1.0  0.56190  0.09158  0.45628  1.0000
  H   H3252     1.0  0.57151  0.00200  0.40165  1.0000
  H   H3253     1.0  0.76514  0.99395  0.28888  1.0000
  H   H3254     1.0  0.70368  0.06001  0.38662  1.0000
  H   H3255     1.0  0.65429  0.18404  0.31545  1.0000
  C   C4050     1.0  0.86733  0.21092  0.23840  1.0000
  H   H3256     1.0  0.64013  0.00733  0.36865  1.0000
  C   C4051     1.0  0.60563  0.14049  0.37757  1.0000
  C   C4052     1.0  0.72790  0.14961  0.24928  1.0000
  C   C4053     1.0  0.55078  0.06417  0.37102  1.0000
  H   H3257     1.0  0.54338  0.04098  0.36992  1.0000
  C   C4054     1.0  0.62740  0.15078  0.31495  1.0000
  H   H3258     1.0  0.93276  0.17993  0.29434  1.0000
  H   H3259     1.0  0.89300  0.12456  0.28138  1.0000
  C   C4055     1.0  0.72305  0.05347  0.26770  1.0000
  S   S563      1.0  0.80954  0.00366  0.28175  1.0000
  H   H3260     1.0  0.79342  0.21896  0.28996  1.0000
  C   C4056     1.0  0.77773  0.99929  0.36137  1.0000
  C   C4057     1.0  0.52276  0.19289  0.44493  1.0000
  C   C4058     1.0  0.58508  0.99696  0.39706  1.0000
  C   C4059     1.0  0.56919  0.19545  0.34476  1.0000
  C   C4060     1.0  0.85807  0.20201  0.26123  1.0000
  H   H3261     1.0  0.72371  0.13265  0.26797  1.0000
  C   C4061     1.0  0.52495  0.11822  0.47775  1.0000
  C   C4062     1.0  0.72105  0.04130  0.25073  1.0000
  C   C4063     1.0  0.78538  0.00413  0.33048  1.0000
  C   C4064     1.0  0.62332  0.13906  0.37808  1.0000
  H   H3262     1.0  0.52267  0.19301  0.42578  1.0000
  C   C4065     1.0  0.73344  0.08119  0.28301  1.0000
  H   H3263     1.0  0.96390  0.18611  0.31784  1.0000
  S   S564      1.0  0.99890  0.22579  0.34096  1.0000
  C   C4066     1.0  0.63374  0.16961  0.32589  1.0000
  C   C4067     1.0  0.53858  0.06279  0.40302  1.0000
  C   C4068     1.0  0.54824  0.04694  0.40899  1.0000
  H   H3264     1.0  0.65006  0.14020  0.36724  1.0000
  H   H3265     1.0  0.54745  0.20810  0.33518  1.0000
  H   H3266     1.0  0.54518  0.07362  0.39800  1.0000
  H   H3267     1.0  0.56235  0.04541  0.40853  1.0000
  C   C4069     1.0  0.83028  0.20331  0.35485  1.0000
  C   C4070     1.0  0.76049  0.00677  0.29138  1.0000
  C   C4071     1.0  0.58397  0.18134  0.34592  1.0000
  C   C4072     1.0  0.74559  0.22368  0.34609  1.0000
  C   C4073     1.0  0.80789  0.21206  0.34206  1.0000
  C   C4074     1.0  0.82157  0.19925  0.34714  1.0000
  P   P130      1.0  0.79878  0.20801  0.33039  1.0000
  C   C4075     1.0  0.58367  0.02074  0.33576  1.0000
  C   C4076     1.0  0.80947  0.22037  0.31570  1.0000
  C   C4077     1.0  0.81201  0.23303  0.35241  1.0000
  C   C4078     1.0  0.63841  0.00562  0.42207  1.0000
  H   H3268     1.0  0.66389  0.00538  0.40913  1.0000
  H   H3269     1.0  0.54967  0.15921  0.46454  1.0000
  H   H3270     1.0  0.79574  0.22492  0.24786  1.0000
  H   H3271     1.0  0.54207  0.01103  0.47020  1.0000
  H   H3272     1.0  0.71928  0.03042  0.24758  1.0000
  C   C4079     1.0  0.89788  0.23575  0.29314  1.0000
  P   P131      1.0  0.75381  0.99859  0.34754  1.0000
  H   H3273     1.0  0.68165  0.01023  0.36102  1.0000
  C   C4080     1.0  0.80359  0.18457  0.33092  1.0000
  C   C4081     1.0  0.79649  0.17323  0.34192  1.0000
  C   C4082     1.0  0.79911  0.15519  0.34230  1.0000
  C   C4083     1.0  0.80896  0.14833  0.33174  1.0000
  C   C4084     1.0  0.81628  0.15948  0.32083  1.0000
  C   C4085     1.0  0.81338  0.17760  0.32034  1.0000
  H   H3274     1.0  0.84114  0.19349  0.35848  1.0000
  H   H3275     1.0  0.71840  0.99967  0.34288  1.0000
  H   H3276     1.0  0.93865  0.10464  0.29623  1.0000
  H   H3277     1.0  0.64259  0.01432  0.44786  1.0000
  H   H3278     1.0  0.82606  0.18630  0.34484  1.0000
  C   C4086     1.0  0.66872  0.99842  0.37985  1.0000
  H   H3279     1.0  0.64188  0.14699  0.34680  1.0000
  C   C4087     1.0  0.76836  0.01075  0.29960  1.0000
  H   H3280     1.0  0.51418  0.16397  0.43143  1.0000
  C   C4088     1.0  0.98524  0.09040  0.34308  1.0000
  C   C4089     1.0  0.62400  0.00120  0.46274  1.0000
  P   P132      1.0  0.60752  0.15057  0.33970  1.0000
  C   C4090     1.0  0.67985  0.99804  0.36783  1.0000
  C   C4091     1.0  0.58203  0.09363  0.47891  1.0000
  H   H3281     1.0  0.99805  0.19021  0.35615  1.0000
  H   H3282     1.0  0.78871  0.17838  0.35015  1.0000
  H   H3283     1.0  0.79341  0.14649  0.35073  1.0000
  H   H3284     1.0  0.81084  0.13436  0.33198  1.0000
  H   H3285     1.0  0.82410  0.15399  0.31276  1.0000
  H   H3286     1.0  0.81847  0.18612  0.31165  1.0000
  H   H3287     1.0  0.61358  0.05562  0.34786  1.0000
  C   C4092     1.0  0.53967  0.03311  0.41559  1.0000
  C   C4093     1.0  0.74925  0.13946  0.26296  1.0000
  C   C4094     1.0  0.94118  0.19100  0.37943  1.0000
  H   H3288     1.0  0.57473  0.00626  0.46681  1.0000
  H   H3289     1.0  0.57366  0.13849  0.34873  1.0000
  H   H3290     1.0  0.94066  0.17724  0.38103  1.0000
  H   H3291     1.0  0.87962  0.11440  0.26793  1.0000
  C   C4095     1.0  0.82818  0.21637  0.31203  1.0000
  H   H3292     1.0  0.78237  0.01687  0.33297  1.0000
  S   S565      1.0  0.51791  0.11561  0.44294  1.0000
  H   H3293     1.0  0.98627  0.07870  0.35063  1.0000
  C   C4096     1.0  0.61375  0.14696  0.35463  1.0000
  H   H3294     1.0  0.63130  0.17517  0.33409  1.0000
  C   C4097     1.0  0.74655  0.01918  0.28650  1.0000
  H   H3295     1.0  0.79684  0.00050  0.37130  1.0000
  C   C4098     1.0  0.62727  0.10240  0.47025  1.0000
  P   P133      1.0  0.57358  0.01128  0.37447  1.0000
  H   H3296     1.0  0.98116  0.23072  0.36794  1.0000
  H   H3297     1.0  0.88781  0.19730  0.27106  1.0000
  C   C4099     1.0  0.79407  0.19124  0.29310  1.0000
  C   C4100     1.0  0.86522  0.22833  0.23938  1.0000
  C   C4101     1.0  0.51311  0.16020  0.45126  1.0000
  H   H3298     1.0  0.90248  0.09313  0.33185  1.0000
  C   C4102     1.0  0.58280  0.11149  0.47510  1.0000
  H   H3299     1.0  0.50975  0.14745  0.45335  1.0000
  C   C4103     1.0  0.76145  0.00763  0.35761  1.0000
  H   H3300     1.0  0.62852  0.11737  0.33217  1.0000
  H   H3301     1.0  0.65999  0.17223  0.29632  1.0000
  H   H3302     1.0  0.52672  0.20546  0.44243  1.0000
  H   H3303     1.0  0.65870  0.21711  0.25111  1.0000
  C   C4104     1.0  0.82553  0.22017  0.35748  1.0000
  H   H3304     1.0  0.96853  0.22977  0.33071  1.0000
  C   C4105     1.0  0.71765  0.10390  0.29482  1.0000
  H   H3305     1.0  0.53540  0.06100  0.46764  1.0000
  C   C4106     1.0  0.60155  0.13039  0.33983  1.0000
  H   H3306     1.0  0.96005  0.18593  0.39119  1.0000
  C   C4107     1.0  0.76242  0.02719  0.30289  1.0000
  H   H3307     1.0  0.83597  0.20566  0.31781  1.0000
  C   C4108     1.0  0.56317  0.15570  0.47938  1.0000
  C   C4109     1.0  0.52040  0.06478  0.40353  1.0000
  C   C4110     1.0  0.86032  0.18376  0.29912  1.0000
  H   H3308     1.0  0.66583  0.08586  0.43711  1.0000
  H   H3309     1.0  0.62431  0.16228  0.40503  1.0000
  H   H3310     1.0  0.64096  0.13419  0.41588  1.0000
  C   C4111     1.0  0.74045  0.03582  0.28972  1.0000
  H   H3311     1.0  0.82306  0.20345  0.24096  1.0000
  H   H3312     1.0  0.84467  0.16546  0.26109  1.0000
  C   C4112     1.0  0.80481  0.17452  0.29219  1.0000
  C   C4113     1.0  0.77690  0.03575  0.26084  1.0000
  C   C4114     1.0  0.68733  0.01974  0.30721  1.0000
  C   C4115     1.0  0.67190  0.02682  0.30233  1.0000
  C   C4116     1.0  0.67095  0.04214  0.29280  1.0000
  C   C4117     1.0  0.68575  0.04996  0.28775  1.0000
  C   C4118     1.0  0.70162  0.04241  0.29221  1.0000
  C   C4119     1.0  0.70217  0.02747  0.30220  1.0000
  H   H3313     1.0  0.68784  0.00811  0.31482  1.0000
  H   H3314     1.0  0.66059  0.02049  0.30603  1.0000
  H   H3315     1.0  0.65876  0.04782  0.28930  1.0000
  H   H3316     1.0  0.68497  0.06164  0.28019  1.0000
  H   H3317     1.0  0.67169  0.06607  0.39733  1.0000
  C   C4120     1.0  0.65823  0.10144  0.40728  1.0000
  C   C4121     1.0  0.81949  0.06199  0.26462  1.0000
  C   C4122     1.0  0.82885  0.06671  0.27162  1.0000
  C   C4123     1.0  0.84532  0.05616  0.27385  1.0000
  C   C4124     1.0  0.85252  0.04072  0.26921  1.0000
  C   C4125     1.0  0.84345  0.03603  0.26205  1.0000
  C   C4126     1.0  0.66165  0.19095  0.24824  1.0000
  H   H3318     1.0  0.74535  0.07568  0.27670  1.0000
  H   H3319     1.0  0.70366  0.08956  0.40160  1.0000
  C   C4127     1.0  0.78602  0.06349  0.25742  1.0000
  C   C4128     1.0  0.62174  0.03293  0.45712  1.0000
  H   H3320     1.0  0.82342  0.07851  0.27539  1.0000
  H   H3321     1.0  0.85222  0.05964  0.27958  1.0000
  H   H3322     1.0  0.86492  0.03221  0.27141  1.0000
  H   H3323     1.0  0.84887  0.02389  0.25863  1.0000
  H   H3324     1.0  0.62479  0.12979  0.44163  1.0000
  H   H3325     1.0  0.69706  0.08133  0.42504  1.0000
  C   C4129     1.0  0.68993  0.09157  0.40690  1.0000
  C   C4130     1.0  0.60842  0.00333  0.47222  1.0000
  H   H3326     1.0  0.65137  0.04917  0.39555  1.0000
  C   C4131     1.0  0.62204  0.08190  0.42939  1.0000
  C   C4132     1.0  0.63057  0.07030  0.42116  1.0000
  C   C4133     1.0  0.62243  0.05714  0.42084  1.0000
  C   C4134     1.0  0.60591  0.05532  0.42879  1.0000
  C   C4135     1.0  0.59767  0.06633  0.43735  1.0000
  C   C4136     1.0  0.60575  0.07951  0.43770  1.0000
  H   H3327     1.0  0.59402  0.11217  0.42524  1.0000
  H   H3328     1.0  0.64302  0.07187  0.41453  1.0000
  H   H3329     1.0  0.62864  0.04869  0.41415  1.0000
  H   H3330     1.0  0.59941  0.04555  0.42814  1.0000
  H   H3331     1.0  0.58484  0.06492  0.44355  1.0000
  H   H3332     1.0  0.59904  0.08823  0.44418  1.0000
  H   H3333     1.0  0.64755  0.10690  0.40215  1.0000
  C   C4137     1.0  0.50657  0.09968  0.47621  1.0000
  C   C4138     1.0  0.53186  0.05184  0.47648  1.0000
  H   H3334     1.0  0.70970  0.18401  0.29979  1.0000
  C   C4139     1.0  0.75638  0.15871  0.24253  1.0000
  C   C4140     1.0  0.77405  0.02236  0.37246  1.0000
  C   C4141     1.0  0.75760  0.03040  0.36906  1.0000
  C   C4142     1.0  0.75124  0.02290  0.36181  1.0000
  H   H3335     1.0  0.52250  0.18887  0.46460  1.0000
  C   C4143     1.0  0.64019  0.15622  0.30430  1.0000
  C   C4144     1.0  0.63145  0.14570  0.35524  1.0000
  C   C4145     1.0  0.93975  0.17436  0.30201  1.0000
  C   C4146     1.0  0.73795  0.01562  0.33938  1.0000
  C   C4147     1.0  0.72179  0.01236  0.33873  1.0000
  C   C4148     1.0  0.70953  0.02565  0.33266  1.0000
  C   C4149     1.0  0.71300  0.04253  0.32742  1.0000
  C   C4150     1.0  0.72893  0.04601  0.32808  1.0000
  C   C4151     1.0  0.74146  0.03259  0.33386  1.0000
  H   H3336     1.0  0.79892  0.16296  0.29554  1.0000
  H   H3337     1.0  0.57774  0.14018  0.41459  1.0000
  C   C4152     1.0  0.57960  0.05952  0.37610  1.0000
  Fe  Fe283     1.0  0.73506  0.22159  0.27771  1.0000
  H   H3338     1.0  0.58964  0.06479  0.37785  1.0000
  C   C4153     1.0  0.95217  0.19590  0.38505  1.0000
  H   H3339     1.0  0.70109  0.11652  0.24440  1.0000
  C   C4154     1.0  0.52051  0.18590  0.43555  1.0000
  H   H3340     1.0  0.59516  0.00201  0.32371  1.0000
  C   C4155     1.0  0.63621  0.14174  0.36692  1.0000
  H   H3341     1.0  0.77913  0.02838  0.37787  1.0000
  H   H3342     1.0  0.74995  0.04273  0.37172  1.0000
  H   H3343     1.0  0.73861  0.02929  0.35914  1.0000
  C   C4156     1.0  0.62443  0.15705  0.32599  1.0000
  H   H3344     1.0  0.71031  0.18294  0.25205  1.0000
  H   H3345     1.0  0.69727  0.02279  0.33208  1.0000
  H   H3346     1.0  0.70325  0.05295  0.32301  1.0000
  H   H3347     1.0  0.73142  0.05925  0.32440  1.0000
  H   H3348     1.0  0.75351  0.03577  0.33445  1.0000
  C   C4157     1.0  0.68517  0.20134  0.25191  1.0000
  C   C4158     1.0  0.95304  0.21367  0.38272  1.0000
  C   C4159     1.0  0.58848  0.99161  0.35572  1.0000
  C   C4160     1.0  0.94921  0.18452  0.30486  1.0000
  C   C4161     1.0  0.69686  0.18504  0.25085  1.0000
  C   C4162     1.0  0.56343  0.18482  0.32847  1.0000
  C   C4163     1.0  0.64657  0.17495  0.31526  1.0000
  C   C4164     1.0  0.67332  0.17461  0.24723  1.0000
  C   C4165     1.0  0.51034  0.13274  0.47755  1.0000
  C   C4166     1.0  0.93389  0.10564  0.30602  1.0000
  C   C4167     1.0  0.72336  0.05710  0.24211  1.0000
  C   C4168     1.0  0.94168  0.11490  0.31113  1.0000
  C   C4169     1.0  0.93507  0.11682  0.32368  1.0000
  C   C4170     1.0  0.92142  0.10820  0.33129  1.0000
  P   P134      1.0  0.94509  0.12923  0.32997  1.0000
  C   C4171     1.0  0.96694  0.11588  0.33170  1.0000
  C   C4172     1.0  0.94689  0.15064  0.31980  1.0000
  C   C4173     1.0  0.93842  0.15754  0.30951  1.0000
  C   C4174     1.0  0.78505  0.04630  0.26447  1.0000
  C   C4175     1.0  0.70347  0.09521  0.29987  1.0000
  H   H3349     1.0  0.86620  0.18438  0.24823  1.0000
  C   C4176     1.0  0.95614  0.16106  0.32268  1.0000
  H   H3350     1.0  0.74115  0.21573  0.31908  1.0000
  H   H3351     1.0  0.53423  0.09049  0.47753  1.0000
  C   C4177     1.0  0.98256  0.12060  0.32359  1.0000
  C   C4178     1.0  0.77362  0.99251  0.33576  1.0000
  C   C4179     1.0  0.96839  0.10052  0.34131  1.0000
  C   C4180     1.0  0.93228  0.13376  0.34510  1.0000
  C   C4181     1.0  0.91357  0.13915  0.34726  1.0000
  C   C4182     1.0  0.90367  0.14289  0.35888  1.0000
  C   C4183     1.0  0.91240  0.14191  0.36832  1.0000
  C   C4184     1.0  0.93105  0.13709  0.36614  1.0000
  C   C4185     1.0  0.94097  0.13310  0.35458  1.0000
  H   H3352     1.0  0.50627  0.05245  0.47335  1.0000
  H   H3353     1.0  0.95266  0.12084  0.30523  1.0000
  H   H3354     1.0  0.91658  0.10860  0.34116  1.0000
  H   H3355     1.0  0.93018  0.15040  0.30754  1.0000
  C   C4186     1.0  0.76924  0.04234  0.25028  1.0000
  C   C4187     1.0  0.57819  0.17069  0.32961  1.0000
  H   H3356     1.0  0.96193  0.15641  0.33096  1.0000
  C   C4188     1.0  0.51533  0.04700  0.47976  1.0000
  H   H3357     1.0  0.53786  0.11960  0.47829  1.0000
  H   H3358     1.0  0.55666  0.04851  0.48198  1.0000
  C   C4189     1.0  0.61985  0.00987  0.42345  1.0000
  H   H3359     1.0  0.95647  0.09654  0.34753  1.0000
  H   H3360     1.0  0.90658  0.14063  0.33994  1.0000
  H   H3361     1.0  0.88922  0.14705  0.36044  1.0000
  H   H3362     1.0  0.90473  0.14543  0.37715  1.0000
  H   H3363     1.0  0.93787  0.13714  0.37322  1.0000
  H   H3364     1.0  0.95542  0.13020  0.35293  1.0000
  C   C4190     1.0  0.62855  0.05851  0.36020  1.0000
  C   C4191     1.0  0.62161  0.04887  0.35484  1.0000
  C   C4192     1.0  0.62555  0.03043  0.35815  1.0000
  C   C4193     1.0  0.63675  0.02162  0.36660  1.0000
  C   C4194     1.0  0.64370  0.03119  0.37212  1.0000
  C   C4195     1.0  0.63926  0.04976  0.36902  1.0000
  P   P135      1.0  0.65675  0.01943  0.38392  1.0000
  C   C4196     1.0  0.64207  0.01599  0.39933  1.0000
  H   H3365     1.0  0.58805  0.02225  0.48178  1.0000
  C   C4197     1.0  0.69541  0.11842  0.25391  1.0000
  C   C4198     1.0  0.93099  0.20387  0.37154  1.0000
  S   S566      1.0  0.74876  0.19276  0.27988  1.0000
  C   C4199     1.0  0.61033  0.10017  0.33679  1.0000
  S   S567      1.0  0.51659  0.06650  0.44716  1.0000
  P   P136      1.0  0.70634  0.15084  0.24627  1.0000
  C   C4200     1.0  0.62338  0.02033  0.40078  1.0000
  C   C4201     1.0  0.76101  0.14900  0.25394  1.0000
  H   H3366     1.0  0.77354  0.14921  0.25591  1.0000
  H   H3367     1.0  0.82560  0.21588  0.28054  1.0000
  C   C4202     1.0  0.67197  0.03208  0.38462  1.0000
  C   C4203     1.0  0.66545  0.04569  0.39134  1.0000
  C   C4204     1.0  0.67693  0.05540  0.39232  1.0000
  C   C4205     1.0  0.69493  0.05197  0.38634  1.0000
  C   C4206     1.0  0.70158  0.03843  0.37970  1.0000
  C   C4207     1.0  0.69027  0.02839  0.37890  1.0000
  H   H3368     1.0  0.62581  0.07277  0.35735  1.0000
  Fe  Fe284     1.0  0.72694  0.22392  0.25223  1.0000
  H   H3369     1.0  0.64419  0.05755  0.37322  1.0000
  C   C4208     1.0  0.60088  0.14426  0.36591  1.0000
  C   C4209     1.0  0.59981  0.02037  0.47427  1.0000
  C   C4210     1.0  0.95734  0.17790  0.31523  1.0000
  H   H3370     1.0  0.96109  0.21726  0.38754  1.0000
  H   H3371     1.0  0.64270  0.15108  0.29591  1.0000
  C   C4211     1.0  0.69115  0.17168  0.24825  1.0000
  C   C4212     1.0  0.52025  0.18351  0.45749  1.0000
  C   C4213     1.0  0.55350  0.04601  0.37177  1.0000
  H   H3372     1.0  0.71405  0.02144  0.30604  1.0000
  H   H3373     1.0  0.77982  0.19268  0.29701  1.0000
  C   C4214     1.0  0.52128  0.03531  0.41666  1.0000
  H   H3374     1.0  0.63434  0.07275  0.45211  1.0000
  H   H3375     1.0  0.55555  0.18623  0.32165  1.0000
  Fe  Fe285     1.0  0.72605  0.19029  0.27271  1.0000
  H   H3376     1.0  0.83028  0.13606  0.24262  1.0000
  C   C4215     1.0  0.51573  0.16954  0.43872  1.0000
  H   H3377     1.0  0.54729  0.02073  0.42002  1.0000
  C   C4216     1.0  0.60102  0.12278  0.42079  1.0000
  P   P137      1.0  0.63131  0.10020  0.42909  1.0000
  C   C4217     1.0  0.63190  0.08548  0.45445  1.0000
  C   C4218     1.0  0.67594  0.09882  0.40051  1.0000
  C   C4219     1.0  0.61475  0.11617  0.33592  1.0000
  C   C4220     1.0  0.88238  0.19440  0.28112  1.0000
  H   H3378     1.0  0.89157  0.19588  0.30847  1.0000
  C   C4221     1.0  0.62987  0.10117  0.44516  1.0000
  C   C4222     1.0  0.63050  0.08613  0.46695  1.0000
  C   C4223     1.0  0.65433  0.09686  0.42053  1.0000
  H   H3379     1.0  0.99459  0.15478  0.32310  1.0000
  P   P138      1.0  0.51296  0.15453  0.47696  1.0000
  C   C4224     1.0  0.72506  0.06945  0.25897  1.0000
  C   C4225     1.0  0.66844  0.08954  0.42691  1.0000
  H   H3380     1.0  0.91837  0.23433  0.39423  1.0000
  C   C4226     1.0  0.61899  0.12077  0.42111  1.0000
  C   C4227     1.0  0.59001  0.99926  0.38386  1.0000
  C   C4228     1.0  0.62663  0.11749  0.44854  1.0000
  H   H3381     1.0  0.71549  0.03600  0.37498  1.0000
  C   C4229     1.0  0.57689  0.12188  0.46417  1.0000
  H   H3382     1.0  0.62049  0.02294  0.35376  1.0000
  H   H3383     1.0  0.69326  0.07276  0.30088  1.0000
  H   H3384     1.0  0.68987  0.21171  0.25365  1.0000
  H   H3385     1.0  0.77918  0.00107  0.30333  1.0000
  C   C4230     1.0  0.88473  0.19347  0.30222  1.0000
  H   H3386     1.0  0.72280  0.22538  0.33860  1.0000
  C   C4231     1.0  0.59165  0.13878  0.41468  1.0000
  C   C4232     1.0  0.62540  0.11807  0.46104  1.0000
  H   H3387     1.0  0.62254  0.13069  0.46368  1.0000
  C   C4233     1.0  0.59083  0.00380  0.33334  1.0000
  H   H3388     1.0  0.58167  0.16130  0.32358  1.0000
  H   H3389     1.0  0.61985  0.14178  0.31447  1.0000
  H   H3390     1.0  0.56171  0.08498  0.37265  1.0000
  H   H3391     1.0  0.61726  0.02583  0.39269  1.0000
  C   C4234     1.0  0.60004  0.15298  0.40896  1.0000
  C   C4235     1.0  0.62724  0.13525  0.41553  1.0000
  C   C4236     1.0  0.68619  0.08693  0.42009  1.0000
  H   H3392     1.0  0.79344  0.11024  0.26860  1.0000
  C   C4237     1.0  0.64983  0.16823  0.30448  1.0000
  H   H3393     1.0  0.59269  0.16536  0.40427  1.0000
  C   C4238     1.0  0.61782  0.15124  0.40941  1.0000
  S   S568      1.0  0.54001  0.13404  0.41573  1.0000
  H   H3394     1.0  0.62687  0.04435  0.45127  1.0000
  C   C4239     1.0  0.54088  0.01011  0.39165  1.0000
  H   H3395     1.0  0.62717  0.13530  0.38710  1.0000
  S   S569      1.0  0.71120  0.21837  0.27214  1.0000
  H   H3396     1.0  0.92426  0.23119  0.36268  1.0000
  C   C4240     1.0  0.79965  0.23520  0.30865  1.0000
  Fe  Fe286     1.0  0.54618  0.11838  0.43443  1.0000
  C   C4241     1.0  0.51532  0.16708  0.46079  1.0000
  C   C4242     1.0  0.70427  0.07943  0.29659  1.0000
  H   H3397     1.0  0.76862  0.03021  0.30925  1.0000
  H   H3398     1.0  0.74376  0.05201  0.30114  1.0000
  P   P139      1.0  0.79850  0.07617  0.26147  1.0000
  H   H3399     1.0  0.72616  0.08074  0.26187  1.0000
  H   H3400     1.0  0.63135  0.07406  0.47421  1.0000
  C   C4243     1.0  0.83693  0.22646  0.30113  1.0000
  H   H3401     1.0  0.76338  0.07095  0.30554  1.0000
  C   C4244     1.0  0.77768  0.07366  0.28607  1.0000
  C   C4245     1.0  0.76951  0.07961  0.29728  1.0000
  H   H3402     1.0  0.76347  0.10121  0.30671  1.0000
  C   C4246     1.0  0.76951  0.09669  0.29795  1.0000
  H   H3403     1.0  0.77754  0.06042  0.28580  1.0000
  C   C4247     1.0  0.73249  0.09702  0.28625  1.0000
  C   C4248     1.0  0.57952  0.11209  0.34582  1.0000
  C   C4249     1.0  0.74845  0.03963  0.29807  1.0000
  H   H3404     1.0  0.50896  0.02021  0.47149  1.0000
  H   H3405     1.0  0.74045  0.01547  0.28046  1.0000
  C   C4250     1.0  0.78631  0.10171  0.27633  1.0000
  C   C4251     1.0  0.78623  0.08460  0.27549  1.0000
  C   C4252     1.0  0.77779  0.10776  0.28745  1.0000
  H   H3406     1.0  0.77825  0.12081  0.28813  1.0000
  C   C4253     1.0  0.82007  0.20421  0.28371  1.0000
  P   P140      1.0  0.72127  0.05130  0.28442  1.0000
  C   C4254     1.0  0.71927  0.07233  0.28809  1.0000
  Fe  Fe287     1.0  0.76139  0.20084  0.25941  1.0000
  C   C4255     1.0  0.58238  0.04137  0.37681  1.0000
  H   H3407     1.0  0.57544  0.15839  0.47293  1.0000
  H   H3408     1.0  0.71729  0.11582  0.29767  1.0000
  H   H3409     1.0  0.71804  0.02746  0.27004  1.0000
  C   C4256     1.0  0.93225  0.22153  0.36888  1.0000
  H   H3410     1.0  0.59982  0.04823  0.46839  1.0000
  H   H3411     1.0  0.77406  0.20865  0.31548  1.0000
  C   C4257     1.0  0.56732  0.00008  0.47574  1.0000
  C   C4258     1.0  0.91361  0.09903  0.32614  1.0000
  H   H3412     1.0  0.58869  0.11709  0.48025  1.0000
  S   S570      1.0  0.56116  0.12877  0.44416  1.0000
  H   H3413     1.0  0.50515  0.00038  0.45955  1.0000
  C   C4259     1.0  0.86352  0.16293  0.27249  1.0000
  C   C4260     1.0  0.80352  0.09436  0.24844  1.0000
  H   H3414     1.0  0.58725  0.14461  0.36572  1.0000
  S   S571      1.0  0.71160  0.16789  0.27920  1.0000
  H   H3415     1.0  0.51474  0.02461  0.42219  1.0000
  C   C4261     1.0  0.55889  0.19716  0.33607  1.0000
  H   H3416     1.0  0.56594  0.11041  0.34991  1.0000
  S   S572      1.0  0.74943  0.22993  0.25775  1.0000
  C   C4262     1.0  0.73281  0.13962  0.26063  1.0000
  C   C4263     1.0  0.56932  0.03446  0.37470  1.0000
  C   C4264     1.0  0.53244  0.15283  0.48295  1.0000
  H   H3417     1.0  0.51359  0.07696  0.39835  1.0000
  H   H3418     1.0  0.57327  0.03639  0.34973  1.0000
  C   C4265     1.0  0.87713  0.15115  0.27826  1.0000
  H   H3419     1.0  0.59479  0.03282  0.37891  1.0000
  C   C4266     1.0  0.77822  0.07004  0.24680  1.0000
  H   H3420     1.0  0.98183  0.13208  0.31588  1.0000
  H   H3421     1.0  0.68700  0.09355  0.26010  1.0000
  H   H3422     1.0  0.77715  0.02219  0.26602  1.0000
  H   H3423     1.0  0.90364  0.20195  0.28545  1.0000
  H   H3424     1.0  0.75254  0.13258  0.27201  1.0000
  C   C4267     1.0  0.85583  0.15694  0.26506  1.0000
  C   C4268     1.0  0.86391  0.19779  0.24927  1.0000
  C   C4269     1.0  0.68735  0.10536  0.26279  1.0000
  H   H3425     1.0  0.59790  0.02043  0.41395  1.0000
  H   H3426     1.0  0.62067  0.08932  0.33373  1.0000
  H   H3427     1.0  0.84875  0.17794  0.30313  1.0000
  C   C4270     1.0  0.80175  0.20604  0.28904  1.0000
  H   H3428     1.0  0.85282  0.22314  0.27119  1.0000
  H   H3429     1.0  0.67341  0.09745  0.28205  1.0000
  C   C4271     1.0  0.59272  0.09813  0.34169  1.0000
  C   C4272     1.0  0.69579  0.13380  0.25736  1.0000
  C   C4273     1.0  0.54882  0.00250  0.47750  1.0000
  C   C4274     1.0  0.72520  0.07122  0.24625  1.0000
  C   C4275     1.0  0.67962  0.10756  0.27513  1.0000
  C   C4276     1.0  0.87543  0.12802  0.26897  1.0000
  H   H3430     1.0  0.58936  0.08567  0.34243  1.0000
  H   H3431     1.0  0.81077  0.00801  0.31855  1.0000
  H   H3432     1.0  0.86412  0.18404  0.31726  1.0000
  C   C4277     1.0  0.56387  0.07093  0.37312  1.0000
  H   H3433     1.0  0.53851  0.07303  0.36885  1.0000
  C   C4278     1.0  0.86200  0.13967  0.26314  1.0000
  H   H3434     1.0  0.94952  0.19787  0.29940  1.0000
  H   H3435     1.0  0.50514  0.08699  0.47555  1.0000
  C   C4279     1.0  0.58839  0.16871  0.33848  1.0000
  C   C4280     1.0  0.58395  0.12808  0.34506  1.0000
  C   C4281     1.0  0.67988  0.12285  0.27860  1.0000
  C   C4282     1.0  0.68794  0.13591  0.26977  1.0000
  H   H3436     1.0  0.88287  0.15503  0.28448  1.0000
  H   H3437     1.0  0.85596  0.13507  0.25748  1.0000
  H   H3438     1.0  0.83111  0.15939  0.28676  1.0000
  H   H3439     1.0  0.68820  0.14765  0.27262  1.0000
  H   H3440     1.0  0.67398  0.12452  0.28819  1.0000
  C   C4283     1.0  0.94350  0.22657  0.37429  1.0000
  C   C4284     1.0  0.82317  0.17259  0.28707  1.0000
  S   S573      1.0  0.57661  0.99823  0.43973  1.0000
  C   C4285     1.0  0.91971  0.09789  0.31348  1.0000
  P   P141      1.0  0.85472  0.18499  0.27549  1.0000
  C   C4286     1.0  0.86641  0.18827  0.28602  1.0000
  C   C4287     1.0  0.86922  0.18682  0.30716  1.0000
  C   C4288     1.0  0.89147  0.19698  0.28923  1.0000
  H   H3441     1.0  0.59195  0.18040  0.35256  1.0000
  H   H3442     1.0  0.77900  0.08300  0.24095  1.0000
  H   H3443     1.0  0.64805  0.19331  0.24711  1.0000
  H   H3444     1.0  0.56577  0.20511  0.35058  1.0000
  C   C4289     1.0  0.74760  0.21688  0.32607  1.0000
  H   H3445     1.0  0.76314  0.03401  0.24741  1.0000
  H   H3446     1.0  0.62567  0.10284  0.48003  1.0000
  C   C4290     1.0  0.80159  0.99917  0.32229  1.0000
  H   H3447     1.0  0.76432  0.06444  0.23490  1.0000
  C   C4291     1.0  0.58089  0.00851  0.35831  1.0000
  C   C4292     1.0  0.77473  0.21449  0.33295  1.0000
  C   C4293     1.0  0.76624  0.21298  0.32401  1.0000
  C   C4294     1.0  0.73726  0.22234  0.33707  1.0000
  C   C4295     1.0  0.63055  0.01599  0.45516  1.0000
  H   H3448     1.0  0.61124  0.00730  0.43274  1.0000
  H   H3449     1.0  0.64422  0.99967  0.43029  1.0000
  C   C4296     1.0  0.76428  0.21962  0.34411  1.0000
  C   C4297     1.0  0.54840  0.15634  0.47466  1.0000
  H   H3450     1.0  0.85141  0.22341  0.29837  1.0000
  C   C4298     1.0  0.60643  0.03512  0.46671  1.0000
  C   C4299     1.0  0.76990  0.05949  0.24326  1.0000
  C   C4300     1.0  0.52298  0.10169  0.47724  1.0000
  C   C4301     1.0  0.52636  0.00242  0.39841  1.0000
  H   H3451     1.0  0.84334  0.17464  0.23926  1.0000
  C   C4302     1.0  0.66762  0.20436  0.25050  1.0000
  S   S574      1.0  0.91327  0.22298  0.30242  1.0000
  H   H3452     1.0  0.99312  0.14682  0.34614  1.0000
  H   H3453     1.0  0.72673  0.08357  0.23959  1.0000
  H   H3454     1.0  0.91681  0.23297  0.27568  1.0000
  H   H3455     1.0  0.77044  0.22021  0.35138  1.0000
  C   C4303     1.0  0.85987  0.23258  0.25123  1.0000
  H   H3456     1.0  0.66859  0.16439  0.24535  1.0000
  C   C4304     1.0  0.82117  0.09435  0.24159  1.0000
  S   S575      1.0  0.86620  0.23213  0.36491  1.0000
  H   H3457     1.0  0.61216  0.99438  0.36808  1.0000
  C   C4305     1.0  0.60782  0.99274  0.37822  1.0000
  C   C4306     1.0  0.73987  0.15908  0.24020  1.0000
  C   C4307     1.0  0.80266  0.23458  0.24816  1.0000
  H   H3458     1.0  0.83269  0.22332  0.36320  1.0000
  H   H3459     1.0  0.83218  0.08368  0.24406  1.0000
  C   C4308     1.0  0.80341  0.22909  0.34456  1.0000
  S   S576      1.0  0.72969  0.23570  0.29356  1.0000
  H   H3460     1.0  0.79238  0.23265  0.26806  1.0000
  H   H3461     1.0  0.81411  0.16683  0.23575  1.0000
  C   C4309     1.0  0.79353  0.12265  0.23487  1.0000
  H   H3462     1.0  0.76530  0.16656  0.23572  1.0000
  C   C4310     1.0  0.80079  0.23889  0.25970  1.0000
  H   H3463     1.0  0.79364  0.23947  0.34015  1.0000
  H   H3464     1.0  0.78530  0.23934  0.31163  1.0000
  H   H3465     1.0  0.82794  0.23801  0.38160  1.0000
  C   C4311     1.0  0.99938  0.11049  0.32543  1.0000
  H   H3466     1.0  0.61982  0.03304  0.54075  1.0000
  S   S577      1.0  0.58451  0.11415  0.51480  1.0000
  Fe  Fe288     1.0  0.58352  0.06811  0.53687  1.0000
  S   S578      1.0  0.60768  0.07371  0.52223  1.0000
  S   S579      1.0  0.58265  0.04116  0.54891  1.0000
  Fe  Fe289     1.0  0.60183  0.09900  0.52902  1.0000
  S   S580      1.0  0.62611  0.10613  0.53198  1.0000
  Fe  Fe290     1.0  0.58834  0.08801  0.50956  1.0000
  S   S581      1.0  0.57881  0.09214  0.54469  1.0000
  S   S582      1.0  0.56460  0.08039  0.52397  1.0000
  C   C4312     1.0  0.94861  0.11501  0.68468  1.0000
  H   H3467     1.0  0.65146  0.15610  0.53844  1.0000
  H   H3468     1.0  0.77462  0.02939  0.58063  1.0000
  C   C4313     1.0  0.84985  0.17131  0.66048  1.0000
  Fe  Fe291     1.0  0.79883  0.11921  0.61101  1.0000
  S   S583      1.0  0.79587  0.09301  0.62401  1.0000
  S   S584      1.0  0.78705  0.13521  0.59414  1.0000
  Fe  Fe292     1.0  0.82867  0.12270  0.62222  1.0000
  S   S585      1.0  0.82877  0.09652  0.63607  1.0000
  S   S586      1.0  0.84484  0.14365  0.61820  1.0000
  Fe  Fe293     1.0  0.82589  0.08627  0.62021  1.0000
  S   S587      1.0  0.84157  0.06121  0.61374  1.0000
  Fe  Fe294     1.0  0.79882  0.10510  0.63895  1.0000
  S   S588      1.0  0.78070  0.10278  0.65817  1.0000
  S   S589      1.0  0.82870  0.11157  0.60610  1.0000
  S   S590      1.0  0.79884  0.13191  0.62631  1.0000
  Fe  Fe295     1.0  0.90545  0.16276  0.65341  1.0000
  S   S591      1.0  0.90615  0.16403  0.67285  1.0000
  S   S592      1.0  0.89880  0.13779  0.65220  1.0000
  Fe  Fe296     1.0  0.93104  0.17447  0.66397  1.0000
  S   S593      1.0  0.95648  0.16308  0.67134  1.0000
  S   S594      1.0  0.93173  0.17085  0.64482  1.0000
  C   C4314     1.0  0.54381  0.11403  0.61114  1.0000
  H   H3469     1.0  0.70154  0.02210  0.68668  1.0000
  S   S595      1.0  0.55179  0.99876  0.52340  1.0000
  H   H3470     1.0  0.97445  0.15741  0.64687  1.0000
  C   C4315     1.0  0.70454  0.23424  0.72376  1.0000
  H   H3471     1.0  0.69082  0.23578  0.63541  1.0000
  H   H3472     1.0  0.97139  0.12587  0.62278  1.0000
  S   S596      1.0  0.63768  0.02796  0.60398  1.0000
  C   C4316     1.0  0.81767  0.21089  0.62295  1.0000
  Fe  Fe297     1.0  0.65875  0.12231  0.58955  1.0000
  S   S597      1.0  0.65213  0.11860  0.61072  1.0000
  S   S598      1.0  0.63457  0.12368  0.58172  1.0000
  Fe  Fe298     1.0  0.69818  0.12010  0.58873  1.0000
  S   S599      1.0  0.69459  0.11531  0.60970  1.0000
  S   S600      1.0  0.72483  0.12157  0.57537  1.0000
  Fe  Fe299     1.0  0.67713  0.09739  0.61005  1.0000
  S   S601      1.0  0.67703  0.07064  0.62304  1.0000
  Fe  Fe300     1.0  0.67002  0.13703  0.60854  1.0000
  C   C4317     1.0  0.54747  0.06385  0.56807  1.0000
  S   S602      1.0  0.68303  0.10012  0.58906  1.0000
  S   S603      1.0  0.67444  0.14292  0.58734  1.0000
  C   C4318     1.0  0.54504  0.04649  0.57264  1.0000
  H   H3473     1.0  0.71577  0.14139  0.55059  1.0000
  H   H3474     1.0  0.63496  0.01150  0.50761  1.0000
  H   H3475     1.0  0.84252  0.14338  0.68787  1.0000
  H   H3476     1.0  0.75368  0.01300  0.53942  1.0000
  H   H3477     1.0  0.71424  0.00277  0.56641  1.0000
  H   H3478     1.0  0.95995  0.13693  0.64258  1.0000
  H   H3479     1.0  0.53973  0.03997  0.63899  1.0000
  H   H3480     1.0  0.85277  0.20546  0.72965  1.0000
  H   H3481     1.0  0.72972  0.99451  0.65561  1.0000
  H   H3482     1.0  0.51632  0.06900  0.50214  1.0000
  H   H3483     1.0  0.62296  0.06118  0.63573  1.0000
  C   C4319     1.0  0.97231  0.19570  0.63722  1.0000
  C   C4320     1.0  0.64772  0.03989  0.60989  1.0000
  C   C4321     1.0  0.64844  0.05739  0.60371  1.0000
  C   C4322     1.0  0.65719  0.06693  0.60787  1.0000
  C   C4323     1.0  0.66518  0.05905  0.61825  1.0000
  C   C4324     1.0  0.66398  0.04172  0.62468  1.0000
  C   C4325     1.0  0.65539  0.03207  0.62044  1.0000
  H   H3484     1.0  0.64227  0.06358  0.59568  1.0000
  H   H3485     1.0  0.65735  0.08050  0.60315  1.0000
  H   H3486     1.0  0.66966  0.03574  0.63294  1.0000
  H   H3487     1.0  0.65456  0.01867  0.62539  1.0000
  C   C4326     1.0  0.96528  0.17723  0.67630  1.0000
  C   C4327     1.0  0.98311  0.17215  0.67764  1.0000
  H   H3488     1.0  0.83869  0.15345  0.70749  1.0000
  C   C4328     1.0  0.98004  0.19934  0.68423  1.0000
  C   C4329     1.0  0.96207  0.20424  0.68319  1.0000
  C   C4330     1.0  0.95479  0.19333  0.67906  1.0000
  C   C4331     1.0  0.87107  0.13389  0.68576  1.0000
  C   C4332     1.0  0.69966  0.00163  0.63205  1.0000
  H   H3489     1.0  0.95390  0.21669  0.68525  1.0000
  H   H3490     1.0  0.94106  0.19733  0.67803  1.0000
  C   C4333     1.0  0.83263  0.04239  0.62144  1.0000
  C   C4334     1.0  0.83693  0.02808  0.61553  1.0000
  C   C4335     1.0  0.82998  0.01289  0.62158  1.0000
  C   C4336     1.0  0.81925  0.01172  0.63375  1.0000
  C   C4337     1.0  0.81517  0.02594  0.63971  1.0000
  C   C4338     1.0  0.82153  0.04140  0.63347  1.0000
  H   H3491     1.0  0.84561  0.02877  0.60625  1.0000
  H   H3492     1.0  0.99762  0.22668  0.70696  1.0000
  H   H3493     1.0  0.80701  0.02502  0.64916  1.0000
  H   H3494     1.0  0.81823  0.05236  0.63811  1.0000
  C   C4339     1.0  0.85986  0.14173  0.62769  1.0000
  C   C4340     1.0  0.86852  0.15561  0.62563  1.0000
  C   C4341     1.0  0.88034  0.15465  0.63319  1.0000
  C   C4342     1.0  0.88389  0.13958  0.64265  1.0000
  C   C4343     1.0  0.87544  0.12559  0.64458  1.0000
  C   C4344     1.0  0.86324  0.12677  0.63726  1.0000
  H   H3495     1.0  0.86598  0.16720  0.61824  1.0000
  H   H3496     1.0  0.88681  0.16548  0.63162  1.0000
  H   H3497     1.0  0.87811  0.11391  0.65191  1.0000
  H   H3498     1.0  0.85654  0.11607  0.63895  1.0000
  C   C4345     1.0  0.76964  0.13061  0.58956  1.0000
  C   C4346     1.0  0.75740  0.12093  0.59797  1.0000
  C   C4347     1.0  0.74322  0.11846  0.59382  1.0000
  C   C4348     1.0  0.74177  0.12500  0.58119  1.0000
  C   C4349     1.0  0.75434  0.13420  0.57278  1.0000
  C   C4350     1.0  0.76794  0.13733  0.57701  1.0000
  H   H3499     1.0  0.75873  0.11568  0.60765  1.0000
  H   H3500     1.0  0.73352  0.11138  0.60031  1.0000
  H   H3501     1.0  0.75333  0.13928  0.56302  1.0000
  H   H3502     1.0  0.77732  0.14485  0.57048  1.0000
  Fe  Fe301     1.0  0.56186  0.10518  0.53018  1.0000
  C   C4351     1.0  0.90883  0.15568  0.70646  1.0000
  C   C4352     1.0  0.92196  0.11973  0.70125  1.0000
  P   P142      1.0  0.64337  0.17969  0.55622  1.0000
  C   C4353     1.0  0.75874  0.21812  0.70936  1.0000
  C   C4354     1.0  0.76453  0.23163  0.71174  1.0000
  C   C4355     1.0  0.91295  0.13239  0.55184  1.0000
  C   C4356     1.0  0.76831  0.15566  0.66977  1.0000
  C   C4357     1.0  0.78474  0.15011  0.66191  1.0000
  C   C4358     1.0  0.78873  0.13374  0.65847  1.0000
  C   C4359     1.0  0.77649  0.12267  0.66318  1.0000
  C   C4360     1.0  0.76048  0.12782  0.67159  1.0000
  C   C4361     1.0  0.75622  0.14446  0.67466  1.0000
  H   H3503     1.0  0.79418  0.15865  0.65825  1.0000
  H   H3504     1.0  0.80132  0.12964  0.65224  1.0000
  H   H3505     1.0  0.75110  0.11922  0.67539  1.0000
  H   H3506     1.0  0.74364  0.14854  0.68088  1.0000
  H   H3507     1.0  0.53839  0.11117  0.58290  1.0000
  H   H3508     1.0  0.80924  0.19093  0.67340  1.0000
  C   C4362     1.0  0.97145  0.14102  0.63580  1.0000
  C   C4363     1.0  0.54381  0.10786  0.59131  1.0000
  C   C4364     1.0  0.69147  0.03200  0.59098  1.0000
  C   C4365     1.0  0.70021  0.22455  0.63208  1.0000
  H   H3509     1.0  0.94397  0.17232  0.70641  1.0000
  C   C4366     1.0  0.56026  0.01070  0.53048  1.0000
  C   C4367     1.0  0.55950  0.00604  0.54347  1.0000
  C   C4368     1.0  0.56655  0.01532  0.54907  1.0000
  C   C4369     1.0  0.57442  0.02934  0.54170  1.0000
  C   C4370     1.0  0.57532  0.03401  0.52868  1.0000
  C   C4371     1.0  0.56814  0.02479  0.52308  1.0000
  H   H3510     1.0  0.51999  0.14463  0.50268  1.0000
  H   H3511     1.0  0.56562  0.01183  0.55915  1.0000
  H   H3512     1.0  0.58171  0.04462  0.52287  1.0000
  H   H3513     1.0  0.56908  0.02839  0.51301  1.0000
  C   C4372     1.0  0.62830  0.10967  0.54633  1.0000
  C   C4373     1.0  0.64544  0.10890  0.54797  1.0000
  C   C4374     1.0  0.64772  0.11248  0.55893  1.0000
  C   C4375     1.0  0.63279  0.11743  0.56823  1.0000
  C   C4376     1.0  0.61567  0.11808  0.56664  1.0000
  C   C4377     1.0  0.61343  0.11407  0.55582  1.0000
  H   H3514     1.0  0.65703  0.10560  0.54066  1.0000
  H   H3515     1.0  0.66097  0.11175  0.56006  1.0000
  H   H3516     1.0  0.60402  0.12187  0.57376  1.0000
  H   H3517     1.0  0.60016  0.11479  0.55469  1.0000
  C   C4378     1.0  0.86035  0.06482  0.58053  1.0000
  C   C4379     1.0  0.87463  0.05498  0.57322  1.0000
  C   C4380     1.0  0.89068  0.06073  0.56818  1.0000
  C   C4381     1.0  0.89251  0.07629  0.57052  1.0000
  C   C4382     1.0  0.87819  0.08629  0.57784  1.0000
  C   C4383     1.0  0.86211  0.08042  0.58279  1.0000
  P   P143      1.0  0.88052  0.10595  0.58155  1.0000
  C   C4384     1.0  0.59989  0.16919  0.54923  1.0000
  C   C4385     1.0  0.86090  0.12343  0.57964  1.0000
  C   C4386     1.0  0.86011  0.22822  0.66288  1.0000
  H   H3518     1.0  0.94510  0.10556  0.56730  1.0000
  H   H3519     1.0  0.63215  0.14456  0.53042  1.0000
  C   C4387     1.0  0.83432  0.13643  0.57082  1.0000
  C   C4388     1.0  0.85003  0.12343  0.57169  1.0000
  C   C4389     1.0  0.88337  0.10120  0.59763  1.0000
  C   C4390     1.0  0.89107  0.11218  0.60136  1.0000
  C   C4391     1.0  0.89298  0.10878  0.61382  1.0000
  C   C4392     1.0  0.88722  0.09441  0.62266  1.0000
  C   C4393     1.0  0.87952  0.08345  0.61906  1.0000
  C   C4394     1.0  0.87767  0.08677  0.60660  1.0000
  H   H3520     1.0  0.87331  0.04277  0.57160  1.0000
  H   H3521     1.0  0.90179  0.05300  0.56260  1.0000
  C   C4395     1.0  0.76803  0.99036  0.57128  1.0000
  H   H3522     1.0  0.85107  0.08765  0.58874  1.0000
  H   H3523     1.0  0.54608  0.14300  0.51075  1.0000
  H   H3524     1.0  0.82561  0.13604  0.56506  1.0000
  H   H3525     1.0  0.85345  0.11324  0.56633  1.0000
  H   H3526     1.0  0.84804  0.06016  0.58475  1.0000
  H   H3527     1.0  0.89531  0.12358  0.59471  1.0000
  H   H3528     1.0  0.89846  0.11757  0.61674  1.0000
  H   H3529     1.0  0.88838  0.09201  0.63237  1.0000
  H   H3530     1.0  0.87468  0.07250  0.62595  1.0000
  H   H3531     1.0  0.87161  0.07807  0.60416  1.0000
  H   H3532     1.0  0.99128  0.15969  0.67557  1.0000
  C   C4396     1.0  0.70602  0.01569  0.63295  1.0000
  C   C4397     1.0  0.71684  0.01295  0.64148  1.0000
  H   H3533     1.0  0.72448  0.99788  0.60983  1.0000
  C   C4398     1.0  0.83098  0.20250  0.61411  1.0000
  C   C4399     1.0  0.88595  0.13176  0.69078  1.0000
  C   C4400     1.0  0.50363  0.01346  0.57179  1.0000
  C   C4401     1.0  0.88393  0.13757  0.70185  1.0000
  H   H3534     1.0  0.59928  0.15244  0.53740  1.0000
  C   C4402     1.0  0.72470  0.19488  0.62447  1.0000
  C   C4403     1.0  0.72321  0.16149  0.60744  1.0000
  C   C4404     1.0  0.98212  0.21156  0.65268  1.0000
  C   C4405     1.0  0.73751  0.18323  0.72058  1.0000
  H   H3535     1.0  0.99784  0.13509  0.60733  1.0000
  C   C4406     1.0  0.63741  0.01163  0.51658  1.0000
  C   C4407     1.0  0.66411  0.17693  0.63600  1.0000
  H   H3536     1.0  0.70913  0.05648  0.64048  1.0000
  H   H3537     1.0  0.87287  0.12961  0.67709  1.0000
  C   C4408     1.0  0.97792  0.13477  0.62465  1.0000
  C   C4409     1.0  0.99054  0.18326  0.68144  1.0000
  C   C4410     1.0  0.51429  0.01281  0.54960  1.0000
  H   H3538     1.0  0.53782  0.05032  0.53555  1.0000
  H   H3539     1.0  0.77301  0.17063  0.59951  1.0000
  C   C4411     1.0  0.85189  0.14736  0.70286  1.0000
  H   H3540     1.0  0.69743  0.03220  0.55187  1.0000
  C   C4412     1.0  0.50512  0.99512  0.57474  1.0000
  H   H3541     1.0  0.70271  0.02867  0.62696  1.0000
  H   H3542     1.0  0.72206  0.02374  0.64202  1.0000
  C   C4413     1.0  0.50838  0.02242  0.55920  1.0000
  H   H3543     1.0  0.68995  0.99396  0.58410  1.0000
  S   S604      1.0  0.72138  0.21314  0.68275  1.0000
  C   C4414     1.0  0.70716  0.10915  0.68114  1.0000
  H   H3544     1.0  0.84828  0.22299  0.70855  1.0000
  P   P144      1.0  0.90300  0.13464  0.70860  1.0000
  C   C4415     1.0  0.96000  0.20914  0.64261  1.0000
  H   H3545     1.0  0.79582  0.00685  0.56966  1.0000
  C   C4416     1.0  0.69825  0.16724  0.54805  1.0000
  C   C4417     1.0  0.81775  0.00646  0.57746  1.0000
  C   C4418     1.0  0.70628  0.19547  0.62754  1.0000
  H   H3546     1.0  0.58837  0.99082  0.57015  1.0000
  C   C4419     1.0  0.60763  0.15788  0.54083  1.0000
  C   C4420     1.0  0.51822  0.11543  0.52914  1.0000
  C   C4421     1.0  0.69394  0.00623  0.58303  1.0000
  C   C4422     1.0  0.61463  0.07031  0.57051  1.0000
  C   C4423     1.0  0.60799  0.05912  0.56630  1.0000
  C   C4424     1.0  0.59479  0.05058  0.57443  1.0000
  C   C4425     1.0  0.58801  0.05340  0.58666  1.0000
  C   C4426     1.0  0.59461  0.06464  0.59098  1.0000
  C   C4427     1.0  0.60803  0.07307  0.58280  1.0000
  P   P145      1.0  0.58371  0.07026  0.60607  1.0000
  C   C4428     1.0  0.56522  0.08895  0.60381  1.0000
  C   C4429     1.0  0.57581  0.05130  0.61667  1.0000
  C   C4430     1.0  0.58673  0.03428  0.61679  1.0000
  C   C4431     1.0  0.56232  0.15098  0.49237  1.0000
  C   C4432     1.0  0.64889  0.20665  0.53504  1.0000
  C   C4433     1.0  0.55284  0.03840  0.63276  1.0000
  C   C4434     1.0  0.55881  0.05327  0.62474  1.0000
  C   C4435     1.0  0.55801  0.09945  0.61286  1.0000
  C   C4436     1.0  0.55799  0.09327  0.59301  1.0000
  C   C4437     1.0  0.59882  0.07646  0.61267  1.0000
  C   C4438     1.0  0.60612  0.06492  0.62274  1.0000
  C   C4439     1.0  0.61697  0.07031  0.62820  1.0000
  C   C4440     1.0  0.62075  0.08715  0.62360  1.0000
  C   C4441     1.0  0.61374  0.09862  0.61348  1.0000
  C   C4442     1.0  0.60278  0.09334  0.60806  1.0000
  H   H3547     1.0  0.62473  0.07708  0.56418  1.0000
  H   H3548     1.0  0.61290  0.05717  0.55672  1.0000
  H   H3549     1.0  0.87228  0.22169  0.65753  1.0000
  H   H3550     1.0  0.57738  0.04702  0.59263  1.0000
  H   H3551     1.0  0.61326  0.08198  0.58574  1.0000
  H   H3552     1.0  0.59993  0.03247  0.61071  1.0000
  H   H3553     1.0  0.58547  0.17271  0.55222  1.0000
  C   C4443     1.0  0.79187  0.19238  0.69160  1.0000
  H   H3554     1.0  0.83339  0.00186  0.61700  1.0000
  H   H3555     1.0  0.55011  0.06620  0.62486  1.0000
  H   H3556     1.0  0.56340  0.09637  0.62125  1.0000
  H   H3557     1.0  0.56330  0.08555  0.58580  1.0000
  H   H3558     1.0  0.60378  0.05166  0.62630  1.0000
  H   H3559     1.0  0.55771  0.06789  0.57057  1.0000
  H   H3560     1.0  0.62964  0.09105  0.62760  1.0000
  H   H3561     1.0  0.61707  0.11150  0.60964  1.0000
  H   H3562     1.0  0.59753  0.10243  0.60019  1.0000
  C   C4444     1.0  0.70639  0.03753  0.54347  1.0000
  H   H3563     1.0  0.86252  0.20409  0.62985  1.0000
  C   C4445     1.0  0.76987  0.19178  0.73116  1.0000
  H   H3564     1.0  0.79036  0.22589  0.62667  1.0000
  H   H3565     1.0  0.72195  0.07388  0.66715  1.0000
  C   C4446     1.0  0.77152  0.99188  0.54905  1.0000
  C   C4447     1.0  0.72111  0.99624  0.64924  1.0000
  H   H3566     1.0  0.51921  0.01986  0.50848  1.0000
  H   H3567     1.0  0.78760  0.20365  0.64740  1.0000
  C   C4448     1.0  0.70203  0.14875  0.55125  1.0000
  H   H3568     1.0  0.51738  0.07964  0.54918  1.0000
  C   C4449     1.0  0.72319  0.03950  0.54396  1.0000
  S   S605      1.0  0.66221  0.16033  0.61822  1.0000
  H   H3569     1.0  0.70959  0.15081  0.59815  1.0000
  Fe  Fe302     1.0  0.64561  0.99836  0.61013  1.0000
  H   H3570     1.0  0.62723  0.17080  0.60966  1.0000
  H   H3571     1.0  0.92228  0.20055  0.70135  1.0000
  C   C4450     1.0  0.62079  0.01145  0.57886  1.0000
  H   H3572     1.0  0.70380  0.22836  0.70634  1.0000
  H   H3573     1.0  0.61887  0.16044  0.57669  1.0000
  H   H3574     1.0  0.88556  0.99192  0.62483  1.0000
  C   C4451     1.0  0.71824  0.15973  0.59696  1.0000
  C   C4452     1.0  0.62460  0.00792  0.56676  1.0000
  C   C4453     1.0  0.93063  0.17215  0.70586  1.0000
  H   H3575     1.0  0.80523  0.19438  0.71736  1.0000
  H   H3576     1.0  0.53780  0.10823  0.51292  1.0000
  C   C4454     1.0  0.68793  0.02164  0.67272  1.0000
  H   H3577     1.0  0.91143  0.14269  0.54345  1.0000
  H   H3578     1.0  0.76540  0.03841  0.55988  1.0000
  C   C4455     1.0  0.97968  0.15267  0.63818  1.0000
  C   C4456     1.0  0.98955  0.18982  0.63979  1.0000
  H   H3579     1.0  0.73690  0.05829  0.51292  1.0000
  H   H3580     1.0  0.82693  0.99619  0.57289  1.0000
  C   C4457     1.0  0.53671  0.11824  0.60036  1.0000
  H   H3581     1.0  0.94157  0.12921  0.54812  1.0000
  H   H3582     1.0  0.71289  0.17438  0.72485  1.0000
  C   C4458     1.0  0.83317  0.15882  0.65143  1.0000
  H   H3583     1.0  0.74153  0.21232  0.69990  1.0000
  C   C4459     1.0  0.82755  0.20251  0.60259  1.0000
  C   C4460     1.0  0.76093  0.06541  0.56105  1.0000
  S   S606      1.0  0.76297  0.17666  0.67331  1.0000
  C   C4461     1.0  0.74935  0.13950  0.62863  1.0000
  C   C4462     1.0  0.51045  0.03536  0.49126  1.0000
  C   C4463     1.0  0.79096  0.23770  0.66473  1.0000
  C   C4464     1.0  0.83944  0.22593  0.63138  1.0000
  H   H3584     1.0  0.54832  0.02779  0.50225  1.0000
  H   H3585     1.0  0.83694  0.00856  0.58693  1.0000
  C   C4465     1.0  0.78853  0.21358  0.65187  1.0000
  C   C4466     1.0  0.91843  0.18807  0.70295  1.0000
  P   P146      1.0  0.76892  0.19532  0.71483  1.0000
  C   C4467     1.0  0.75555  0.18082  0.71423  1.0000
  C   C4468     1.0  0.76285  0.16705  0.70767  1.0000
  C   C4469     1.0  0.75206  0.15638  0.70702  1.0000
  H   H3586     1.0  0.88028  0.10954  0.72289  1.0000
  C   C4470     1.0  0.88562  0.11306  0.72951  1.0000
  C   C4471     1.0  0.75415  0.00542  0.57064  1.0000
  C   C4472     1.0  0.79060  0.19270  0.70422  1.0000
  C   C4473     1.0  0.80597  0.19289  0.70798  1.0000
  C   C4474     1.0  0.82249  0.19174  0.69944  1.0000
  C   C4475     1.0  0.82370  0.19091  0.68702  1.0000
  C   C4476     1.0  0.73908  0.15564  0.63158  1.0000
  C   C4477     1.0  0.59370  0.00031  0.58454  1.0000
  H   H3587     1.0  0.57387  0.15012  0.49601  1.0000
  H   H3588     1.0  0.78006  0.19312  0.68827  1.0000
  C   C4478     1.0  0.83876  0.22988  0.68263  1.0000
  P   P147      1.0  0.82317  0.21213  0.63713  1.0000
  H   H3589     1.0  0.77675  0.16453  0.70288  1.0000
  H   H3590     1.0  0.75760  0.14623  0.70153  1.0000
  C   C4479     1.0  0.54380  0.04489  0.48455  1.0000
  C   C4480     1.0  0.51154  0.10646  0.51236  1.0000
  C   C4481     1.0  0.91242  0.23948  0.62533  1.0000
  C   C4482     1.0  0.87027  0.22909  0.62317  1.0000
  C   C4483     1.0  0.73406  0.15904  0.71320  1.0000
  C   C4484     1.0  0.53729  0.07575  0.55976  1.0000
  C   C4485     1.0  0.62606  0.02378  0.52361  1.0000
  C   C4486     1.0  0.85404  0.14168  0.69179  1.0000
  H   H3591     1.0  0.51605  0.10233  0.50348  1.0000
  H   H3592     1.0  0.78961  0.17859  0.63652  1.0000
  H   H3593     1.0  0.66436  0.18980  0.65048  1.0000
  H   H3594     1.0  0.51816  0.01923  0.53980  1.0000
  C   C4487     1.0  0.99455  0.15810  0.62947  1.0000
  C   C4488     1.0  0.60551  0.00751  0.58773  1.0000
  H   H3595     1.0  0.70910  0.17418  0.54486  1.0000
  H   H3596     1.0  0.67542  0.01257  0.59982  1.0000
  H   H3597     1.0  0.62437  0.21340  0.56394  1.0000
  C   C4489     1.0  0.93902  0.08991  0.69996  1.0000
  Fe  Fe303     1.0  0.69847  0.18566  0.67036  1.0000
  C   C4490     1.0  0.61076  0.17582  0.55386  1.0000
  C   C4491     1.0  0.75762  0.00697  0.54835  1.0000
  H   H3598     1.0  0.61249  0.15637  0.59970  1.0000
  H   H3599     1.0  0.77479  0.22848  0.71712  1.0000
  C   C4492     1.0  0.56378  0.02150  0.63277  1.0000
  C   C4493     1.0  0.80533  0.23204  0.65536  1.0000
  H   H3600     1.0  0.83423  0.22437  0.69248  1.0000
  C   C4494     1.0  0.74589  0.22255  0.70202  1.0000
  C   C4495     1.0  0.72686  0.17233  0.72008  1.0000
  H   H3601     1.0  0.89899  0.12587  0.68582  1.0000
  C   C4496     1.0  0.52635  0.05425  0.53121  1.0000
  H   H3602     1.0  0.99815  0.20642  0.61495  1.0000
  H   H3603     1.0  0.84407  0.19598  0.61612  1.0000
  C   C4497     1.0  0.70081  0.04277  0.53202  1.0000
  C   C4498     1.0  0.69409  0.21028  0.63131  1.0000
  H   H3604     1.0  0.94090  0.07573  0.70355  1.0000
  C   C4499     1.0  0.80840  0.19127  0.68309  1.0000
  H   H3605     1.0  0.78432  0.22550  0.60651  1.0000
  H   H3606     1.0  0.76210  0.21414  0.66368  1.0000
  C   C4500     1.0  0.86675  0.14528  0.70790  1.0000
  H   H3607     1.0  0.58676  0.00003  0.50468  1.0000
  C   C4501     1.0  0.80084  0.21927  0.62010  1.0000
  C   C4502     1.0  0.61264  0.00055  0.56370  1.0000
  Fe  Fe304     1.0  0.70796  0.22166  0.66642  1.0000
  H   H3608     1.0  0.54231  0.06016  0.51243  1.0000
  C   C4503     1.0  0.96485  0.21696  0.65044  1.0000
  H   H3609     1.0  0.74747  0.01032  0.57918  1.0000
  H   H3610     1.0  0.72564  0.15094  0.71255  1.0000
  H   H3611     1.0  0.91295  0.13808  0.73109  1.0000
  H   H3612     1.0  0.52576  0.12958  0.59899  1.0000
  H   H3613     1.0  0.88445  0.22315  0.62107  1.0000
  C   C4504     1.0  0.51563  0.99452  0.55258  1.0000
  H   H3614     1.0  0.95524  0.22700  0.65495  1.0000
  C   C4505     1.0  0.62947  0.17080  0.55036  1.0000
  H   H3615     1.0  0.58976  0.04174  0.57125  1.0000
  C   C4506     1.0  0.58070  0.01945  0.62477  1.0000
  H   H3616     1.0  0.55306  0.99561  0.54933  1.0000
  P   P148      1.0  0.64555  0.01070  0.55576  1.0000
  H   H3617     1.0  0.74815  0.19259  0.59274  1.0000
  C   C4507     1.0  0.92587  0.15603  0.70761  1.0000
  C   C4508     1.0  0.89694  0.12514  0.72527  1.0000
  S   S607      1.0  0.98929  0.21385  0.68847  1.0000
  C   C4509     1.0  0.71850  0.22427  0.62873  1.0000
  C   C4510     1.0  0.63712  0.15980  0.54164  1.0000
  C   C4511     1.0  0.65158  0.03048  0.55655  1.0000
  C   C4512     1.0  0.65732  0.03093  0.56717  1.0000
  C   C4513     1.0  0.66155  0.04625  0.56801  1.0000
  C   C4514     1.0  0.66071  0.06109  0.55808  1.0000
  C   C4515     1.0  0.65534  0.06071  0.54737  1.0000
  C   C4516     1.0  0.65079  0.04550  0.54659  1.0000
  H   H3618     1.0  0.60458  0.18471  0.56027  1.0000
  C   C4517     1.0  0.74012  0.18311  0.59397  1.0000
  H   H3619     1.0  0.69151  0.00367  0.62528  1.0000
  H   H3620     1.0  0.58218  0.99673  0.59154  1.0000
  H   H3621     1.0  0.80806  0.21075  0.59095  1.0000
  H   H3622     1.0  0.96825  0.18989  0.63114  1.0000
  H   H3623     1.0  0.62959  0.01694  0.58170  1.0000
  H   H3624     1.0  0.65834  0.01952  0.57494  1.0000
  H   H3625     1.0  0.66509  0.04672  0.57651  1.0000
  H   H3626     1.0  0.66374  0.07303  0.55885  1.0000
  H   H3627     1.0  0.65421  0.07241  0.53980  1.0000
  H   H3628     1.0  0.64650  0.04574  0.53824  1.0000
  C   C4518     1.0  0.66617  0.10716  0.64425  1.0000
  H   H3629     1.0  0.95834  0.23186  0.61776  1.0000
  H   H3630     1.0  0.52479  0.99605  0.49006  1.0000
  C   C4519     1.0  0.63529  0.09911  0.66148  1.0000
  C   C4520     1.0  0.71301  0.02699  0.57174  1.0000
  H   H3631     1.0  0.85892  0.16957  0.66657  1.0000
  C   C4521     1.0  0.79903  0.17450  0.61749  1.0000
  H   H3632     1.0  0.82924  0.14742  0.65051  1.0000
  H   H3633     1.0  0.67122  0.11155  0.66962  1.0000
  C   C4522     1.0  0.71349  0.09806  0.63894  1.0000
  H   H3634     1.0  0.65430  0.18770  0.63200  1.0000
  H   H3635     1.0  0.70790  0.10922  0.64347  1.0000
  C   C4523     1.0  0.84352  0.18817  0.65359  1.0000
  H   H3636     1.0  0.53943  0.08910  0.55595  1.0000
  C   C4524     1.0  0.71422  0.06842  0.63739  1.0000
  H   H3637     1.0  0.68787  0.00766  0.67599  1.0000
  C   C4525     1.0  0.91692  0.10579  0.57348  1.0000
  S   S608      1.0  0.68341  0.21076  0.67712  1.0000
  C   C4526     1.0  0.84459  0.15667  0.65943  1.0000
  P   P149      1.0  0.50582  0.04618  0.55548  1.0000
  C   C4527     1.0  0.52243  0.02870  0.49945  1.0000
  H   H3638     1.0  0.86489  0.14980  0.71647  1.0000
  C   C4528     1.0  0.95110  0.09674  0.68938  1.0000
  C   C4529     1.0  0.67031  0.14923  0.55700  1.0000
  C   C4530     1.0  0.92994  0.12480  0.55447  1.0000
  C   C4531     1.0  0.53181  0.14793  0.49600  1.0000
  C   C4532     1.0  0.52472  0.07033  0.55597  1.0000
  H   H3639     1.0  0.68167  0.12737  0.68102  1.0000
  H   H3640     1.0  0.90514  0.08032  0.56667  1.0000
  H   H3641     1.0  0.71801  0.15405  0.61667  1.0000
  C   C4533     1.0  0.99279  0.14000  0.61595  1.0000
  H   H3642     1.0  0.74477  0.20980  0.62218  1.0000
  C   C4534     1.0  0.72449  0.16934  0.58495  1.0000
  C   C4535     1.0  0.93407  0.12643  0.69055  1.0000
  C   C4536     1.0  0.63099  0.21625  0.55409  1.0000
  H   H3643     1.0  0.55355  0.03705  0.57860  1.0000
  C   C4537     1.0  0.72777  0.09918  0.62853  1.0000
  C   C4538     1.0  0.73559  0.08478  0.62277  1.0000
  C   C4539     1.0  0.72876  0.06946  0.62714  1.0000
  H   H3644     1.0  0.73271  0.11125  0.62493  1.0000
  H   H3645     1.0  0.74687  0.08559  0.61487  1.0000
  H   H3646     1.0  0.73469  0.05832  0.62262  1.0000
  C   C4540     1.0  0.62495  0.16741  0.58073  1.0000
  H   H3647     1.0  0.94665  0.21337  0.64078  1.0000
  C   C4541     1.0  0.80409  0.22032  0.64861  1.0000
  H   H3648     1.0  0.75831  0.11158  0.63578  1.0000
  H   H3649     1.0  0.70739  0.05434  0.51216  1.0000
  C   C4542     1.0  0.73071  0.20959  0.62480  1.0000
  C   C4543     1.0  0.77411  0.21933  0.66122  1.0000
  H   H3650     1.0  0.53835  0.12212  0.61813  1.0000
  H   H3651     1.0  0.65083  0.23122  0.73181  1.0000
  C   C4544     1.0  0.64126  0.20253  0.54798  1.0000
  C   C4545     1.0  0.77344  0.01718  0.63365  1.0000
  C   C4546     1.0  0.77144  0.02887  0.64133  1.0000
  C   C4547     1.0  0.77224  0.04654  0.63591  1.0000
  C   C4548     1.0  0.77507  0.05251  0.62280  1.0000
  C   C4549     1.0  0.77757  0.04072  0.61499  1.0000
  C   C4550     1.0  0.77657  0.02303  0.62054  1.0000
  P   P150      1.0  0.77880  0.04871  0.59826  1.0000
  C   C4551     1.0  0.75581  0.05293  0.59690  1.0000
  C   C4552     1.0  0.78909  0.06764  0.59205  1.0000
  C   C4553     1.0  0.78513  0.08003  0.58115  1.0000
  C   C4554     1.0  0.79326  0.09454  0.57628  1.0000
  C   C4555     1.0  0.80576  0.09655  0.58208  1.0000
  C   C4556     1.0  0.81037  0.08387  0.59257  1.0000
  C   C4557     1.0  0.80224  0.06939  0.59748  1.0000
  C   C4558     1.0  0.74728  0.03869  0.59996  1.0000
  C   C4559     1.0  0.72886  0.04176  0.60089  1.0000
  C   C4560     1.0  0.71874  0.05908  0.59888  1.0000
  C   C4561     1.0  0.72711  0.07330  0.59572  1.0000
  C   C4562     1.0  0.74549  0.07028  0.59486  1.0000
  C   C4563     1.0  0.79367  0.03191  0.59021  1.0000
  C   C4564     1.0  0.81141  0.02605  0.59177  1.0000
  C   C4565     1.0  0.82342  0.01344  0.58537  1.0000
  C   C4566     1.0  0.77533  0.23139  0.66764  1.0000
  C   C4567     1.0  0.80017  0.01236  0.57575  1.0000
  C   C4568     1.0  0.78815  0.02509  0.58206  1.0000
  H   H3652     1.0  0.77313  0.00340  0.63784  1.0000
  H   H3653     1.0  0.76973  0.02407  0.65145  1.0000
  H   H3654     1.0  0.77089  0.05557  0.64186  1.0000
  H   H3655     1.0  0.77530  0.06632  0.61884  1.0000
  H   H3656     1.0  0.77809  0.01371  0.61477  1.0000
  H   H3657     1.0  0.77562  0.07865  0.57647  1.0000
  H   H3658     1.0  0.78962  0.10441  0.56816  1.0000
  H   H3659     1.0  0.81170  0.10804  0.57858  1.0000
  H   H3660     1.0  0.82012  0.08531  0.59703  1.0000
  H   H3661     1.0  0.80626  0.05966  0.60555  1.0000
  H   H3662     1.0  0.75474  0.02516  0.60207  1.0000
  H   H3663     1.0  0.72241  0.03067  0.60347  1.0000
  H   H3664     1.0  0.70436  0.06150  0.59999  1.0000
  H   H3665     1.0  0.71930  0.08675  0.59433  1.0000
  H   H3666     1.0  0.75127  0.08158  0.59321  1.0000
  H   H3667     1.0  0.81589  0.03101  0.59810  1.0000
  H   H3668     1.0  0.67989  0.21062  0.63379  1.0000
  C   C4569     1.0  0.62131  0.16500  0.59387  1.0000
  H   H3669     1.0  0.75820  0.18045  0.63714  1.0000
  C   C4570     1.0  0.53909  0.03327  0.49599  1.0000
  C   C4571     1.0  0.71181  0.05019  0.52101  1.0000
  C   C4572     1.0  0.90151  0.18788  0.70171  1.0000
  H   H3670     1.0  0.68850  0.13615  0.63234  1.0000
  H   H3671     1.0  0.62333  0.09602  0.66818  1.0000
  C   C4573     1.0  0.70662  0.08264  0.64350  1.0000
  H   H3672     1.0  0.62093  0.12161  0.64997  1.0000
  C   C4574     1.0  0.66639  0.16778  0.55360  1.0000
  C   C4575     1.0  0.73871  0.24028  0.69723  1.0000
  H   H3673     1.0  0.75257  0.09290  0.56235  1.0000
  Fe  Fe305     1.0  0.89135  0.19206  0.66805  1.0000
  S   S609      1.0  0.68820  0.16453  0.66592  1.0000
  C   C4576     1.0  0.63392  0.11350  0.65124  1.0000
  C   C4577     1.0  0.64937  0.11759  0.64269  1.0000
  H   H3674     1.0  0.64836  0.12899  0.63491  1.0000
  C   C4578     1.0  0.64691  0.22428  0.52841  1.0000
  H   H3675     1.0  0.67785  0.19106  0.54715  1.0000
  H   H3676     1.0  0.84967  0.14355  0.66455  1.0000
  H   H3677     1.0  0.67790  0.11047  0.63748  1.0000
  H   H3678     1.0  0.67449  0.05703  0.65021  1.0000
  C   C4579     1.0  0.75555  0.05066  0.56030  1.0000
  H   H3679     1.0  0.67425  0.02528  0.65783  1.0000
  C   C4580     1.0  0.66770  0.09281  0.65457  1.0000
  C   C4581     1.0  0.65213  0.08892  0.66324  1.0000
  C   C4582     1.0  0.73042  0.14046  0.65331  1.0000
  H   H3680     1.0  0.77473  0.06431  0.56121  1.0000
  P   P151      1.0  0.68936  0.08085  0.65774  1.0000
  S   S610      1.0  0.72178  0.19750  0.65836  1.0000
  C   C4583     1.0  0.81078  0.21091  0.59981  1.0000
  H   H3681     1.0  0.89511  0.23100  0.64295  1.0000
  C   C4584     1.0  0.68035  0.04957  0.65824  1.0000
  H   H3682     1.0  0.65301  0.07814  0.67142  1.0000
  C   C4585     1.0  0.84153  0.21663  0.72887  1.0000
  H   H3683     1.0  0.73180  0.08955  0.67915  1.0000
  C   C4586     1.0  0.74034  0.12439  0.65025  1.0000
  C   C4587     1.0  0.71841  0.09400  0.67731  1.0000
  H   H3684     1.0  0.91868  0.09537  0.58178  1.0000
  C   C4588     1.0  0.68425  0.10616  0.67194  1.0000
  C   C4589     1.0  0.52193  0.05300  0.56069  1.0000
  H   H3685     1.0  0.74124  0.11238  0.65750  1.0000
  S   S611      1.0  0.91634  0.20286  0.66081  1.0000
  H   H3686     1.0  0.96235  0.08791  0.68479  1.0000
  H   H3687     1.0  0.68543  0.03981  0.59809  1.0000
  S   S612      1.0  0.86782  0.20180  0.68283  1.0000
  S   S613      1.0  0.71135  0.17464  0.68721  1.0000
  C   C4590     1.0  0.73463  0.17284  0.60597  1.0000
  C   C4591     1.0  0.73408  0.04714  0.53288  1.0000
  C   C4592     1.0  0.67061  0.16167  0.63093  1.0000
  C   C4593     1.0  0.68021  0.03157  0.66252  1.0000
  C   C4594     1.0  0.68860  0.14892  0.64687  1.0000
  H   H3688     1.0  0.98578  0.21729  0.65896  1.0000
  C   C4595     1.0  0.79740  0.21920  0.60859  1.0000
  C   C4596     1.0  0.51440  0.06446  0.51229  1.0000
  S   S614      1.0  0.88899  0.19026  0.64903  1.0000
  C   C4597     1.0  0.68316  0.14779  0.63628  1.0000
  C   C4598     1.0  0.68584  0.01663  0.59198  1.0000
  C   C4599     1.0  0.84060  0.15016  0.58524  1.0000
  C   C4600     1.0  0.64316  0.01158  0.54008  1.0000
  H   H3689     1.0  0.61485  0.03309  0.52011  1.0000
  C   C4601     1.0  0.68840  0.05779  0.66404  1.0000
  C   C4602     1.0  0.68049  0.17676  0.54928  1.0000
  C   C4603     1.0  0.85626  0.13715  0.58617  1.0000
  H   H3690     1.0  0.86428  0.13757  0.59238  1.0000
  H   H3691     1.0  0.84723  0.19950  0.65480  1.0000
  C   C4604     1.0  0.82951  0.14967  0.57770  1.0000
  H   H3692     1.0  0.68787  0.04119  0.53169  1.0000
  C   C4605     1.0  0.62891  0.02375  0.53530  1.0000
  H   H3693     1.0  0.69768  0.13779  0.65126  1.0000
  H   H3694     1.0  0.72339  0.14089  0.66295  1.0000
  C   C4606     1.0  0.70484  0.03732  0.58081  1.0000
  H   H3695     1.0  0.70885  0.04928  0.58027  1.0000
  H   H3696     1.0  0.81700  0.15932  0.57737  1.0000
  Fe  Fe306     1.0  0.91539  0.19860  0.64213  1.0000
  H   H3697     1.0  0.83684  0.16019  0.59078  1.0000
  C   C4607     1.0  0.74996  0.12394  0.63795  1.0000
  C   C4608     1.0  0.70767  0.01124  0.57305  1.0000
  C   C4609     1.0  0.72842  0.05241  0.52145  1.0000
  H   H3698     1.0  0.83437  0.19195  0.70229  1.0000
  C   C4610     1.0  0.74855  0.08149  0.56154  1.0000
  C   C4611     1.0  0.83253  0.19032  0.64520  1.0000
  C   C4612     1.0  0.99442  0.19805  0.64743  1.0000
  C   C4613     1.0  0.69567  0.02978  0.67871  1.0000
  C   C4614     1.0  0.73089  0.08294  0.56096  1.0000
  H   H3699     1.0  0.81867  0.17683  0.63800  1.0000
  C   C4615     1.0  0.82727  0.17555  0.64427  1.0000
  C   C4616     1.0  0.69587  0.04780  0.67442  1.0000
  C   C4617     1.0  0.74889  0.01390  0.55914  1.0000
  P   P152      1.0  0.73066  0.03312  0.55865  1.0000
  C   C4618     1.0  0.73774  0.05193  0.55993  1.0000
  C   C4619     1.0  0.69549  0.09092  0.66801  1.0000
  C   C4620     1.0  0.71271  0.08505  0.67062  1.0000
  C   C4621     1.0  0.72557  0.06832  0.55992  1.0000
  C   C4622     1.0  0.89980  0.11346  0.57095  1.0000
  H   H3700     1.0  0.72088  0.16761  0.57684  1.0000
  C   C4623     1.0  0.93192  0.11149  0.56528  1.0000
  H   H3701     1.0  0.71187  0.06972  0.55930  1.0000
  H   H3702     1.0  0.72133  0.09543  0.56136  1.0000
  H   H3703     1.0  0.74695  0.04904  0.53309  1.0000
  H   H3704     1.0  0.70185  0.05379  0.67924  1.0000
  C   C4624     1.0  0.62621  0.15338  0.53692  1.0000
  H   H3705     1.0  0.72217  0.16840  0.64661  1.0000
  H   H3706     1.0  0.76432  0.23559  0.67502  1.0000
  H   H3707     1.0  0.88368  0.17211  0.70210  1.0000
  H   H3708     1.0  0.60308  0.00966  0.59717  1.0000
  C   C4625     1.0  0.69013  0.11524  0.67843  1.0000
  H   H3709     1.0  0.95789  0.12046  0.67647  1.0000
  C   C4626     1.0  0.72976  0.15608  0.64401  1.0000
  S   S615      1.0  0.68458  0.20003  0.71363  1.0000
  H   H3710     1.0  0.75733  0.13907  0.61919  1.0000
  C   C4627     1.0  0.68806  0.13975  0.55573  1.0000
  H   H3711     1.0  0.71177  0.11646  0.68594  1.0000
  H   H3712     1.0  0.88490  0.13274  0.55779  1.0000
  H   H3713     1.0  0.83647  0.19044  0.68040  1.0000
  C   C4628     1.0  0.70045  0.22476  0.71651  1.0000
  C   C4629     1.0  0.53235  0.04105  0.56896  1.0000
  C   C4630     1.0  0.89792  0.12673  0.56003  1.0000
  C   C4631     1.0  0.68228  0.16427  0.65187  1.0000
  H   H3714     1.0  0.69098  0.12545  0.55863  1.0000
  P   P153      1.0  0.74023  0.17564  0.61967  1.0000
  C   C4632     1.0  0.92447  0.10134  0.70587  1.0000
  C   C4633     1.0  0.76805  0.17886  0.62849  1.0000
  H   H3715     1.0  0.70137  0.18439  0.62712  1.0000
  H   H3716     1.0  0.74002  0.18869  0.57416  1.0000
  C   C4634     1.0  0.50905  0.05406  0.53863  1.0000
  C   C4635     1.0  0.79417  0.17251  0.60703  1.0000
  C   C4636     1.0  0.85779  0.21832  0.62833  1.0000
  H   H3717     1.0  0.91521  0.09576  0.71397  1.0000
  C   C4637     1.0  0.76302  0.17694  0.61801  1.0000
  C   C4638     1.0  0.77625  0.17353  0.60732  1.0000
  C   C4639     1.0  0.73533  0.18111  0.58346  1.0000
  H   H3718     1.0  0.65527  0.19345  0.57313  1.0000
  H   H3719     1.0  0.65959  0.14217  0.56097  1.0000
  C   C4640     1.0  0.52898  0.05962  0.51808  1.0000
  H   H3720     1.0  0.83788  0.19584  0.59590  1.0000
  C   C4641     1.0  0.52392  0.10965  0.51779  1.0000
  S   S616      1.0  0.53355  0.12050  0.53564  1.0000
  H   H3721     1.0  0.64857  0.18921  0.59637  1.0000
  C   C4642     1.0  0.78594  0.17776  0.62819  1.0000
  C   C4643     1.0  0.64543  0.18584  0.57880  1.0000
  C   C4644     1.0  0.69137  0.21109  0.72246  1.0000
  C   C4645     1.0  0.54668  0.14699  0.50066  1.0000
  C   C4646     1.0  0.62965  0.17306  0.59947  1.0000
  C   C4647     1.0  0.89670  0.17178  0.70346  1.0000
  C   C4648     1.0  0.63699  0.17790  0.57309  1.0000
  S   S617      1.0  0.92369  0.21784  0.62403  1.0000
  C   C4649     1.0  0.66236  0.99145  0.56042  1.0000
  C   C4650     1.0  0.64167  0.18350  0.59194  1.0000
  C   C4651     1.0  0.66990  0.17823  0.64641  1.0000
  H   H3722     1.0  0.65635  0.19619  0.53008  1.0000
  H   H3723     1.0  0.89223  0.20023  0.69907  1.0000
  H   H3724     1.0  0.81302  0.17268  0.61752  1.0000
  C   C4652     1.0  0.85468  0.22130  0.67570  1.0000
  H   H3725     1.0  0.80439  0.16908  0.59900  1.0000
  Fe  Fe307     1.0  0.73342  0.18816  0.67560  1.0000
  H   H3726     1.0  0.58921  0.00636  0.62477  1.0000
  H   H3727     1.0  0.55919  0.00998  0.63898  1.0000
  H   H3728     1.0  0.93237  0.14050  0.68668  1.0000
  H   H3729     1.0  0.53119  0.02740  0.57227  1.0000
  Fe  Fe308     1.0  0.69812  0.20051  0.69304  1.0000
  C   C4653     1.0  0.53909  0.99397  0.48867  1.0000
  H   H3730     1.0  0.73156  0.19368  0.72577  1.0000
  C   C4654     1.0  0.96873  0.23906  0.61251  1.0000
  H   H3731     1.0  0.68404  0.00529  0.55484  1.0000
  H   H3732     1.0  0.72317  0.23532  0.62948  1.0000
  C   C4655     1.0  0.63705  0.23789  0.53462  1.0000
  C   C4656     1.0  0.68014  0.99272  0.55881  1.0000
  C   C4657     1.0  0.65169  0.99949  0.52122  1.0000
  C   C4658     1.0  0.65459  0.99944  0.53293  1.0000
  H   H3733     1.0  0.93564  0.14385  0.70966  1.0000
  H   H3734     1.0  0.61528  0.99713  0.55464  1.0000
  H   H3735     1.0  0.81752  0.23655  0.65359  1.0000
  H   H3736     1.0  0.65291  0.22738  0.51843  1.0000
  C   C4659     1.0  0.83895  0.22649  0.71696  1.0000
  S   S618      1.0  0.59231  0.07955  0.49117  1.0000
  S   S619      1.0  0.81157  0.99231  0.64200  1.0000
  H   H3737     1.0  0.59764  0.99437  0.52425  1.0000
  C   C4660     1.0  0.62904  0.23387  0.54743  1.0000
  H   H3738     1.0  0.79143  0.16855  0.73080  1.0000
  C   C4661     1.0  0.59723  0.99691  0.57252  1.0000
  H   H3739     1.0  0.96395  0.23978  0.59448  1.0000
  H   H3740     1.0  0.85503  0.99632  0.63832  1.0000
  H   H3741     1.0  0.92524  0.23992  0.64833  1.0000
  Fe  Fe309     1.0  0.59641  0.08343  0.91371  1.0000
  S   S620      1.0  0.58490  0.09222  0.93212  1.0000
  S   S621      1.0  0.59865  0.10058  0.89410  1.0000
  Fe  Fe310     1.0  0.60814  0.04479  0.92628  1.0000
  S   S622      1.0  0.59787  0.05010  0.94570  1.0000
  C   C4662     1.0  0.69972  0.23001  0.73697  1.0000
  Fe  Fe311     1.0  0.57430  0.06740  0.93802  1.0000
  S   S623      1.0  0.54693  0.06558  0.94953  1.0000
  Fe  Fe312     1.0  0.60950  0.07419  0.93830  1.0000
  S   S624      1.0  0.62858  0.07972  0.94759  1.0000
  S   S625      1.0  0.58361  0.06005  0.91912  1.0000
  S   S626      1.0  0.62198  0.06746  0.91931  1.0000
  C   C4663     1.0  0.60826  0.22028  0.76172  1.0000
  H   H3742     1.0  0.61466  0.17835  0.79683  1.0000
  H   H3743     1.0  0.74822  0.20812  0.75752  1.0000
  Fe  Fe313     1.0  0.69004  0.21038  0.79183  1.0000
  C   C4664     1.0  0.54192  0.01001  0.87801  1.0000
  S   S627      1.0  0.68384  0.18368  0.80127  1.0000
  S   S628      1.0  0.74620  0.22768  0.79074  1.0000
  H   H3744     1.0  0.57089  0.13228  0.86500  1.0000
  H   H3745     1.0  0.55140  0.08618  0.88748  1.0000
  S   S629      1.0  0.71523  0.21269  0.77705  1.0000
  H   H3746     1.0  0.54295  0.02567  0.95546  1.0000
  H   H3747     1.0  0.63345  0.18099  0.84996  1.0000
  Fe  Fe314     1.0  0.58034  0.22726  0.85187  1.0000
  S   S630      1.0  0.57622  0.22156  0.83463  1.0000
  C   C4665     1.0  0.52546  0.08459  0.91875  1.0000
  Fe  Fe315     1.0  0.56546  0.19612  0.86953  1.0000
  S   S631      1.0  0.56023  0.18777  0.85377  1.0000
  S   S632      1.0  0.55839  0.18084  0.88952  1.0000
  Fe  Fe316     1.0  0.58711  0.19335  0.84313  1.0000
  S   S633      1.0  0.60649  0.17378  0.83229  1.0000
  Fe  Fe317     1.0  0.54980  0.21674  0.84672  1.0000
  C   C4666     1.0  0.51070  0.13331  0.96429  1.0000
  S   S634      1.0  0.59325  0.19919  0.85955  1.0000
  S   S635      1.0  0.55292  0.22482  0.86340  1.0000
  H   H3748     1.0  0.68753  0.21256  0.75314  1.0000
  C   C4667     1.0  0.51544  0.21345  0.83613  1.0000
  C   C4668     1.0  0.52549  0.19636  0.83563  1.0000
  C   C4669     1.0  0.51813  0.18402  0.83323  1.0000
  H   H3749     1.0  0.67045  0.19821  0.77281  1.0000
  C   C4670     1.0  0.65843  0.17605  0.78275  1.0000
  H   H3750     1.0  0.79246  0.16382  0.75324  1.0000
  H   H3751     1.0  0.53900  0.19265  0.83698  1.0000
  H   H3752     1.0  0.52596  0.17076  0.83294  1.0000
  H   H3753     1.0  0.64651  0.15773  0.88661  1.0000
  P   P154      1.0  0.60510  0.21731  0.78736  1.0000
  H   H3754     1.0  0.67676  0.19870  0.85346  1.0000
  C   C4671     1.0  0.55238  0.99835  0.96404  1.0000
  H   H3755     1.0  0.56913  0.18325  0.82350  1.0000
  H   H3756     1.0  0.56380  0.06291  0.86754  1.0000
  H   H3757     1.0  0.52033  0.10389  0.88975  1.0000
  H   H3758     1.0  0.50287  0.22060  0.77303  1.0000
  H   H3759     1.0  0.66040  0.03285  0.97712  1.0000
  C   C4672     1.0  0.54223  0.02760  0.90461  1.0000
  C   C4673     1.0  0.62605  0.20113  0.78623  1.0000
  C   C4674     1.0  0.52805  0.12847  0.87929  1.0000
  H   H3760     1.0  0.64343  0.21107  0.88876  1.0000
  C   C4675     1.0  0.50336  0.07211  0.93570  1.0000
  H   H3761     1.0  0.52585  0.19497  0.88088  1.0000
  C   C4676     1.0  0.57096  0.18895  0.81345  1.0000
  C   C4677     1.0  0.60416  0.22950  0.77142  1.0000
  C   C4678     1.0  0.55453  0.01495  0.95662  1.0000
  C   C4679     1.0  0.57654  0.20309  0.78744  1.0000
  C   C4680     1.0  0.66238  0.18190  0.81060  1.0000
  C   C4681     1.0  0.65835  0.16513  0.81447  1.0000
  C   C4682     1.0  0.64119  0.16300  0.82111  1.0000
  C   C4683     1.0  0.62796  0.17751  0.82435  1.0000
  C   C4684     1.0  0.63205  0.19431  0.82096  1.0000
  C   C4685     1.0  0.64927  0.19654  0.81395  1.0000
  H   H3762     1.0  0.66841  0.15378  0.81197  1.0000
  H   H3763     1.0  0.63815  0.15000  0.82372  1.0000
  H   H3764     1.0  0.62189  0.20557  0.82351  1.0000
  H   H3765     1.0  0.65242  0.20948  0.81114  1.0000
  C   C4686     1.0  0.53210  0.07152  0.93944  1.0000
  C   C4687     1.0  0.53720  0.08016  0.92690  1.0000
  H   H3766     1.0  0.64305  0.15669  0.79375  1.0000
  H   H3767     1.0  0.55006  0.08373  0.92350  1.0000
  C   C4688     1.0  0.64346  0.15663  0.87811  1.0000
  C   C4689     1.0  0.62290  0.09235  0.95919  1.0000
  H   H3768     1.0  0.55104  0.17769  0.81078  1.0000
  H   H3769     1.0  0.68488  0.21762  0.83249  1.0000
  C   C4690     1.0  0.63507  0.21690  0.84752  1.0000
  H   H3770     1.0  0.52689  0.99350  0.92673  1.0000
  C   C4691     1.0  0.60583  0.09547  0.96700  1.0000
  H   H3771     1.0  0.62112  0.21681  0.85138  1.0000
  C   C4692     1.0  0.55983  0.12610  0.87040  1.0000
  H   H3772     1.0  0.53897  0.03943  0.93209  1.0000
  H   H3773     1.0  0.59518  0.09086  0.96553  1.0000
  C   C4693     1.0  0.58665  0.12262  0.89288  1.0000
  C   C4694     1.0  0.57322  0.12805  0.90288  1.0000
  C   C4695     1.0  0.56430  0.14592  0.90174  1.0000
  C   C4696     1.0  0.56887  0.15837  0.89065  1.0000
  C   C4697     1.0  0.58203  0.15286  0.88059  1.0000
  C   C4698     1.0  0.59088  0.13502  0.88171  1.0000
  H   H3774     1.0  0.56968  0.11849  0.91144  1.0000
  H   H3775     1.0  0.55384  0.15007  0.90942  1.0000
  H   H3776     1.0  0.58559  0.16233  0.87197  1.0000
  H   H3777     1.0  0.60112  0.13085  0.87391  1.0000
  C   C4699     1.0  0.81741  0.20738  0.78328  1.0000
  C   C4700     1.0  0.80394  0.19776  0.78829  1.0000
  H   H3778     1.0  0.54709  0.05018  0.90910  1.0000
  C   C4701     1.0  0.78860  0.21501  0.77155  1.0000
  H   H3779     1.0  0.53431  0.09319  0.97803  1.0000
  H   H3780     1.0  0.61178  0.22229  0.74177  1.0000
  C   C4702     1.0  0.63774  0.13840  0.86642  1.0000
  C   C4703     1.0  0.61918  0.23460  0.79961  1.0000
  C   C4704     1.0  0.53506  0.23115  0.80670  1.0000
  C   C4705     1.0  0.56930  0.04380  0.88455  1.0000
  C   C4706     1.0  0.58379  0.19917  0.80767  1.0000
  C   C4707     1.0  0.63647  0.09884  0.96088  1.0000
  C   C4708     1.0  0.76895  0.24007  0.79851  1.0000
  C   C4709     1.0  0.52473  0.22203  0.80370  1.0000
  H   H3781     1.0  0.54045  0.13834  0.93606  1.0000
  C   C4710     1.0  0.54274  0.03777  0.91278  1.0000
  C   C4711     1.0  0.59270  0.02126  0.98077  1.0000
  H   H3782     1.0  0.74659  0.21260  0.73536  1.0000
  S   S636      1.0  0.69515  0.22686  0.80293  1.0000
  H   H3783     1.0  0.52809  0.01703  0.88005  1.0000
  C   C4712     1.0  0.53132  0.11019  0.88435  1.0000
  C   C4713     1.0  0.58677  0.00425  0.95245  1.0000
  C   C4714     1.0  0.50630  0.20094  0.86957  1.0000
  C   C4715     1.0  0.65808  0.19400  0.77770  1.0000
  H   H3784     1.0  0.59180  0.20117  0.81332  1.0000
  H   H3785     1.0  0.82844  0.20458  0.78793  1.0000
  H   H3786     1.0  0.80445  0.18757  0.79684  1.0000
  H   H3787     1.0  0.53910  0.99607  0.96863  1.0000
  H   H3788     1.0  0.55373  0.04784  0.97381  1.0000
  C   C4716     1.0  0.63975  0.22776  0.83572  1.0000
  C   C4717     1.0  0.62016  0.20331  0.87802  1.0000
  C   C4718     1.0  0.77072  0.18595  0.75672  1.0000
  H   H3789     1.0  0.51945  0.06153  0.89773  1.0000
  C   C4719     1.0  0.80195  0.22490  0.76656  1.0000
  C   C4720     1.0  0.66366  0.03349  0.94632  1.0000
  P   P155      1.0  0.54969  0.03472  0.88772  1.0000
  C   C4721     1.0  0.53249  0.05130  0.88082  1.0000
  H   H3790     1.0  0.62937  0.23588  0.83080  1.0000
  C   C4722     1.0  0.75786  0.19967  0.75162  1.0000
  C   C4723     1.0  0.64050  0.17158  0.86833  1.0000
  H   H3791     1.0  0.63650  0.12564  0.86571  1.0000
  C   C4724     1.0  0.50632  0.07541  0.88244  1.0000
  H   H3792     1.0  0.67686  0.16903  0.87048  1.0000
  C   C4725     1.0  0.63603  0.16973  0.85761  1.0000
  C   C4726     1.0  0.56312  0.10814  0.87619  1.0000
  H   H3793     1.0  0.58357  0.00919  0.88127  1.0000
  H   H3794     1.0  0.77533  0.22627  0.80114  1.0000
  C   C4727     1.0  0.56092  0.18573  0.80626  1.0000
  C   C4728     1.0  0.63455  0.15321  0.85674  1.0000
  H   H3795     1.0  0.52503  0.16333  0.88815  1.0000
  C   C4729     1.0  0.68717  0.17511  0.88413  1.0000
  C   C4730     1.0  0.62655  0.18303  0.79134  1.0000
  C   C4731     1.0  0.50901  0.11598  0.96543  1.0000
  H   H3796     1.0  0.64964  0.09664  0.95481  1.0000
  C   C4732     1.0  0.51587  0.24019  0.75962  1.0000
  C   C4733     1.0  0.63326  0.10797  0.97046  1.0000
  H   H3797     1.0  0.50713  0.21470  0.86617  1.0000
  H   H3798     1.0  0.58246  0.19289  0.89876  1.0000
  H   H3799     1.0  0.57538  0.99512  0.91719  1.0000
  C   C4734     1.0  0.51514  0.06757  0.94388  1.0000
  C   C4735     1.0  0.57167  0.01781  0.95071  1.0000
  H   H3800     1.0  0.52636  0.20786  0.80717  1.0000
  H   H3801     1.0  0.64381  0.23250  0.75429  1.0000
  C   C4736     1.0  0.61455  0.00505  0.91710  1.0000
  C   C4737     1.0  0.53234  0.05335  0.86806  1.0000
  H   H3802     1.0  0.62216  0.02551  0.95937  1.0000
  C   C4738     1.0  0.64819  0.20655  0.85425  1.0000
  H   H3803     1.0  0.63081  0.15190  0.84855  1.0000
  H   H3804     1.0  0.52899  0.01108  0.94102  1.0000
  C   C4739     1.0  0.53244  0.01580  0.93089  1.0000
  C   C4740     1.0  0.68421  0.18576  0.89274  1.0000
  H   H3805     1.0  0.57677  0.10057  0.87557  1.0000
  P   P156      1.0  0.64182  0.19300  0.86977  1.0000
  C   C4741     1.0  0.88808  0.10947  0.75104  1.0000
  H   H3806     1.0  0.51916  0.06781  0.85276  1.0000
  C   C4742     1.0  0.81644  0.22089  0.77245  1.0000
  C   C4743     1.0  0.54885  0.10011  0.88298  1.0000
  H   H3807     1.0  0.78107  0.23279  0.73793  1.0000
  C   C4744     1.0  0.66853  0.03419  0.95715  1.0000
  C   C4745     1.0  0.88116  0.10534  0.74235  1.0000
  H   H3808     1.0  0.77877  0.19456  0.78651  1.0000
  C   C4746     1.0  0.51157  0.23130  0.79685  1.0000
  C   C4747     1.0  0.78957  0.20157  0.78241  1.0000
  H   H3809     1.0  0.67993  0.19597  0.74037  1.0000
  C   C4748     1.0  0.53134  0.00587  0.92284  1.0000
  C   C4749     1.0  0.59746  0.22979  0.88157  1.0000
  C   C4750     1.0  0.67430  0.17731  0.87719  1.0000
  H   H3810     1.0  0.50352  0.14056  0.97161  1.0000
  P   P157      1.0  0.50561  0.14156  0.88254  1.0000
  H   H3811     1.0  0.57248  0.22547  0.89408  1.0000
  H   H3812     1.0  0.53560  0.00348  0.90382  1.0000
  H   H3813     1.0  0.66618  0.20701  0.90097  1.0000
  H   H3814     1.0  0.63223  0.22684  0.79636  1.0000
  C   C4751     1.0  0.63489  0.02828  0.95887  1.0000
  C   C4752     1.0  0.59611  0.00578  0.91972  1.0000
  C   C4753     1.0  0.58133  0.03713  0.89266  1.0000
  H   H3815     1.0  0.83210  0.21355  0.74888  1.0000
  H   H3816     1.0  0.69418  0.18402  0.89813  1.0000
  S   S637      1.0  0.62381  0.01814  0.92272  1.0000
  C   C4754     1.0  0.58687  0.20609  0.79462  1.0000
  C   C4755     1.0  0.53625  0.01169  0.90976  1.0000
  H   H3817     1.0  0.53645  0.21553  0.92140  1.0000
  H   H3818     1.0  0.64311  0.02971  0.93883  1.0000
  C   C4756     1.0  0.59158  0.20094  0.89251  1.0000
  C   C4757     1.0  0.60861  0.19292  0.88661  1.0000
  C   C4758     1.0  0.78282  0.17477  0.74918  1.0000
  H   H3819     1.0  0.64481  0.12856  0.88453  1.0000
  C   C4759     1.0  0.66843  0.19870  0.89435  1.0000
  H   H3820     1.0  0.67279  0.03547  0.93722  1.0000
  H   H3821     1.0  0.69944  0.16513  0.88283  1.0000
  H   H3822     1.0  0.54024  0.15018  0.86743  1.0000
  C   C4760     1.0  0.55484  0.12352  0.97490  1.0000
  H   H3823     1.0  0.51116  0.06093  0.95361  1.0000
  H   H3824     1.0  0.68149  0.03668  0.95645  1.0000
  C   C4761     1.0  0.58769  0.06474  0.87190  1.0000
  C   C4762     1.0  0.59931  0.05832  0.88025  1.0000
  C   C4763     1.0  0.59623  0.04437  0.89055  1.0000
  C   C4764     1.0  0.64196  0.20648  0.77936  1.0000
  C   C4765     1.0  0.57304  0.00571  0.87869  1.0000
  H   H3825     1.0  0.59021  0.07545  0.86386  1.0000
  H   H3826     1.0  0.61065  0.06418  0.87880  1.0000
  C   C4766     1.0  0.89952  0.12129  0.74690  1.0000
  H   H3827     1.0  0.67106  0.16648  0.78181  1.0000
  H   H3828     1.0  0.82683  0.22842  0.76878  1.0000
  C   C4767     1.0  0.57271  0.05755  0.87404  1.0000
  C   C4768     1.0  0.51917  0.06623  0.86260  1.0000
  C   C4769     1.0  0.57557  0.02624  0.97821  1.0000
  C   C4770     1.0  0.65827  0.19008  0.87890  1.0000
  H   H3829     1.0  0.77102  0.18379  0.76659  1.0000
  H   H3830     1.0  0.54749  0.11594  0.98319  1.0000
  H   H3831     1.0  0.61240  0.17864  0.88849  1.0000
  S   S638      1.0  0.52431  0.22880  0.83960  1.0000
  C   C4771     1.0  0.56360  0.19292  0.79327  1.0000
  H   H3832     1.0  0.57317  0.03063  0.94480  1.0000
  C   C4772     1.0  0.64691  0.03038  0.94720  1.0000
  C   C4773     1.0  0.66625  0.20681  0.84871  1.0000
  H   H3833     1.0  0.58688  0.01503  0.92511  1.0000
  C   C4774     1.0  0.62622  0.17972  0.94070  1.0000
  C   C4775     1.0  0.63167  0.17035  0.95193  1.0000
  C   C4776     1.0  0.62370  0.15651  0.95959  1.0000
  C   C4777     1.0  0.61019  0.15213  0.95610  1.0000
  C   C4778     1.0  0.60422  0.16184  0.94506  1.0000
  C   C4779     1.0  0.61265  0.17539  0.93720  1.0000
  P   P158      1.0  0.58733  0.15574  0.94024  1.0000
  C   C4780     1.0  0.57456  0.14302  0.95372  1.0000
  C   C4781     1.0  0.57110  0.17477  0.93450  1.0000
  C   C4782     1.0  0.56018  0.17308  0.92720  1.0000
  C   C4783     1.0  0.54789  0.18778  0.92238  1.0000
  C   C4784     1.0  0.54599  0.20416  0.92516  1.0000
  C   C4785     1.0  0.55628  0.20579  0.93287  1.0000
  C   C4786     1.0  0.56875  0.19113  0.93759  1.0000
  C   C4787     1.0  0.57092  0.12725  0.95306  1.0000
  C   C4788     1.0  0.56120  0.11748  0.96365  1.0000
  C   C4789     1.0  0.59280  0.05207  0.97831  1.0000
  H   H3834     1.0  0.52950  0.09126  0.90911  1.0000
  C   C4790     1.0  0.56774  0.14922  0.96497  1.0000
  C   C4791     1.0  0.59936  0.14347  0.92812  1.0000
  C   C4792     1.0  0.60958  0.12635  0.93139  1.0000
  C   C4793     1.0  0.61868  0.11663  0.92211  1.0000
  C   C4794     1.0  0.61776  0.12396  0.90952  1.0000
  C   C4795     1.0  0.60846  0.14136  0.90608  1.0000
  C   C4796     1.0  0.59943  0.15116  0.91531  1.0000
  H   H3835     1.0  0.63260  0.19027  0.93467  1.0000
  H   H3836     1.0  0.64218  0.17365  0.95467  1.0000
  C   C4797     1.0  0.50062  0.18871  0.83137  1.0000
  H   H3837     1.0  0.60457  0.14106  0.96203  1.0000
  H   H3838     1.0  0.60876  0.18252  0.92838  1.0000
  H   H3839     1.0  0.56143  0.16044  0.92502  1.0000
  H   H3840     1.0  0.53997  0.18646  0.91636  1.0000
  C   C4798     1.0  0.51643  0.17186  0.88189  1.0000
  H   H3841     1.0  0.55457  0.21843  0.93521  1.0000
  H   H3842     1.0  0.57642  0.19258  0.94369  1.0000
  H   H3843     1.0  0.57554  0.12243  0.94443  1.0000
  H   H3844     1.0  0.55868  0.10519  0.96308  1.0000
  C   C4799     1.0  0.64231  0.14009  0.87706  1.0000
  C   C4800     1.0  0.53807  0.03176  0.92586  1.0000
  H   H3845     1.0  0.57020  0.16147  0.96566  1.0000
  H   H3846     1.0  0.61032  0.12040  0.94113  1.0000
  H   H3847     1.0  0.62623  0.10326  0.92467  1.0000
  H   H3848     1.0  0.62404  0.11603  0.90247  1.0000
  H   H3849     1.0  0.60783  0.14707  0.89629  1.0000
  H   H3850     1.0  0.59241  0.16460  0.91236  1.0000
  H   H3851     1.0  0.54252  0.04511  0.86229  1.0000
  C   C4801     1.0  0.54237  0.13627  0.87191  1.0000
  C   C4802     1.0  0.53165  0.13218  0.94423  1.0000
  C   C4803     1.0  0.53041  0.11478  0.94549  1.0000
  C   C4804     1.0  0.51910  0.10675  0.95603  1.0000
  C   C4805     1.0  0.55540  0.01565  0.88074  1.0000
  C   C4806     1.0  0.61664  0.11009  0.97885  1.0000
  C   C4807     1.0  0.65552  0.20093  0.88741  1.0000
  C   C4808     1.0  0.64267  0.17057  0.78952  1.0000
  H   H3852     1.0  0.63656  0.06110  0.97761  1.0000
  C   C4809     1.0  0.50534  0.16493  0.87760  1.0000
  H   H3853     1.0  0.64057  0.99255  0.90791  1.0000
  C   C4810     1.0  0.56707  0.04409  0.97566  1.0000
  H   H3854     1.0  0.57911  0.02640  0.90068  1.0000
  Fe  Fe318     1.0  0.71870  0.23151  0.78719  1.0000
  C   C4811     1.0  0.51694  0.18978  0.87781  1.0000
  C   C4812     1.0  0.58593  0.21934  0.88988  1.0000
  C   C4813     1.0  0.61459  0.22185  0.87580  1.0000
  C   C4814     1.0  0.52188  0.14142  0.95367  1.0000
  H   H3855     1.0  0.53835  0.10741  0.93837  1.0000
  H   H3856     1.0  0.51835  0.09323  0.95697  1.0000
  C   C4815     1.0  0.51953  0.06260  0.88793  1.0000
  H   H3857     1.0  0.50885  0.12004  0.92762  1.0000
  C   C4816     1.0  0.55804  0.13942  0.97554  1.0000
  H   H3858     1.0  0.56939  0.07088  0.97320  1.0000
  C   C4817     1.0  0.50763  0.13020  0.90804  1.0000
  H   H3859     1.0  0.77706  0.21798  0.76740  1.0000
  H   H3860     1.0  0.62318  0.23024  0.86927  1.0000
  C   C4818     1.0  0.57581  0.05704  0.97549  1.0000
  H   H3861     1.0  0.87238  0.09608  0.74554  1.0000
  H   H3862     1.0  0.88465  0.10345  0.76099  1.0000
  C   C4819     1.0  0.60125  0.03415  0.98114  1.0000
  C   C4820     1.0  0.60839  0.22951  0.74923  1.0000
  C   C4821     1.0  0.63936  0.02966  0.96971  1.0000
  C   C4822     1.0  0.82974  0.22129  0.73977  1.0000
  H   H3863     1.0  0.60531  0.03924  0.89699  1.0000
  H   H3864     1.0  0.90498  0.12441  0.75364  1.0000
  C   C4823     1.0  0.50610  0.07720  0.86982  1.0000
  H   H3865     1.0  0.52834  0.23491  0.76282  1.0000
  C   C4824     1.0  0.60378  0.23247  0.79696  1.0000
  H   H3866     1.0  0.64194  0.22035  0.77551  1.0000
  H   H3867     1.0  0.55575  0.19044  0.78772  1.0000
  C   C4825     1.0  0.67094  0.21757  0.83680  1.0000
  H   H3868     1.0  0.64396  0.11278  0.97169  1.0000
  C   C4826     1.0  0.75718  0.20237  0.73897  1.0000
  H   H3869     1.0  0.57859  0.20830  0.77737  1.0000
  H   H3870     1.0  0.56868  0.01623  0.97847  1.0000
  C   C4827     1.0  0.69122  0.21592  0.74296  1.0000
  C   C4828     1.0  0.62634  0.99317  0.91000  1.0000
  H   H3871     1.0  0.59993  0.00678  0.94778  1.0000
  H   H3872     1.0  0.50419  0.14802  0.85590  1.0000
  C   C4829     1.0  0.60279  0.10400  0.97704  1.0000
  H   H3873     1.0  0.52200  0.12660  0.90487  1.0000
  H   H3874     1.0  0.61164  0.20593  0.76379  1.0000
  H   H3875     1.0  0.54470  0.22401  0.81253  1.0000
  C   C4830     1.0  0.65648  0.03216  0.96883  1.0000
  C   C4831     1.0  0.65768  0.22812  0.83035  1.0000
  C   C4832     1.0  0.81527  0.23590  0.73882  1.0000
  H   H3876     1.0  0.59935  0.06215  0.97835  1.0000
  C   C4833     1.0  0.54611  0.99483  0.87310  1.0000
  S   S639      1.0  0.67255  0.23244  0.78071  1.0000
  H   H3877     1.0  0.62800  0.14901  0.96824  1.0000
  Fe  Fe319     1.0  0.69828  0.23635  0.76688  1.0000
  H   H3878     1.0  0.66124  0.23649  0.82115  1.0000
  H   H3879     1.0  0.52316  0.15476  0.95286  1.0000
  C   C4834     1.0  0.58960  0.99447  0.91527  1.0000
  C   C4835     1.0  0.50134  0.23209  0.76542  1.0000
  C   C4836     1.0  0.78227  0.17754  0.73647  1.0000
  C   C4837     1.0  0.68693  0.20657  0.73571  1.0000
  C   C4838     1.0  0.50851  0.08063  0.92313  1.0000
  H   H3880     1.0  0.59903  0.00737  0.98268  1.0000
  H   H3881     1.0  0.50318  0.22421  0.79498  1.0000
  H   H3882     1.0  0.65565  0.99151  0.96267  1.0000
  C   C4839     1.0  0.50025  0.12667  0.92099  1.0000
  C   C4840     1.0  0.57717  0.99057  0.87376  1.0000
  H   H3883     1.0  0.58980  0.10592  0.98331  1.0000
  C   C4841     1.0  0.90400  0.12905  0.73406  1.0000
  C   C4842     1.0  0.73285  0.32077  0.12227  1.0000
  Fe  Fe320     1.0  0.89690  0.44377  0.03438  1.0000
  S   S640      1.0  0.89061  0.45992  0.01587  1.0000
  S   S641      1.0  0.87925  0.42610  0.04786  1.0000
  Fe  Fe321     1.0  0.93131  0.45624  0.03035  1.0000
  S   S642      1.0  0.92805  0.47355  0.01143  1.0000
  C   C4843     1.0  0.52280  0.30512  0.19234  1.0000
  H   H3884     1.0  0.50496  0.26605  0.16044  1.0000
  Fe  Fe322     1.0  0.91980  0.45105  0.00801  1.0000
  C   C4844     1.0  0.74325  0.36847  0.14344  1.0000
  S   S643      1.0  0.90292  0.46576  0.04004  1.0000
  S   S644      1.0  0.92562  0.43280  0.02616  1.0000
  Fe  Fe323     1.0  0.79475  0.44709  0.13095  1.0000
  S   S645      1.0  0.81731  0.42912  0.13966  1.0000
  S   S646      1.0  0.76842  0.45256  0.14453  1.0000
  Fe  Fe324     1.0  0.81839  0.45409  0.10503  1.0000
  S   S647      1.0  0.84298  0.43698  0.11153  1.0000
  S   S648      1.0  0.82031  0.46943  0.08494  1.0000
  Fe  Fe325     1.0  0.82532  0.41793  0.12238  1.0000
  S   S649      1.0  0.83731  0.38915  0.12208  1.0000
  Fe  Fe326     1.0  0.83278  0.44972  0.12821  1.0000
  H   H3885     1.0  0.52532  0.25183  0.02215  1.0000
  S   S650      1.0  0.80132  0.43406  0.11449  1.0000
  S   S651      1.0  0.80967  0.46862  0.12085  1.0000
  C   C4845     1.0  0.97152  0.43053  0.00199  1.0000
  S   S652      1.0  0.61532  0.25895  0.18535  1.0000
  Fe  Fe327     1.0  0.67275  0.46101  0.14195  1.0000
  S   S653      1.0  0.67073  0.46327  0.16173  1.0000
  S   S654      1.0  0.69710  0.46340  0.12612  1.0000
  Fe  Fe328     1.0  0.63545  0.45367  0.14789  1.0000
  S   S655      1.0  0.63044  0.45561  0.16810  1.0000
  S   S656      1.0  0.61336  0.44797  0.14153  1.0000
  C   C4846     1.0  0.99851  0.48260  0.02148  1.0000
  Fe  Fe329     1.0  0.65840  0.43956  0.16746  1.0000
  S   S657      1.0  0.66417  0.41510  0.18251  1.0000
  H   H3886     1.0  0.53927  0.24690  0.07197  1.0000
  S   S658      1.0  0.66259  0.43597  0.14778  1.0000
  Fe  Fe330     1.0  0.58560  0.34467  0.11240  1.0000
  S   S659      1.0  0.55931  0.34727  0.12633  1.0000
  S   S660      1.0  0.59153  0.33493  0.09440  1.0000
  Fe  Fe331     1.0  0.59965  0.36798  0.12328  1.0000
  S   S661      1.0  0.57445  0.37254  0.13796  1.0000
  S   S662      1.0  0.62402  0.37887  0.12100  1.0000
  Fe  Fe332     1.0  0.57590  0.34362  0.14045  1.0000
  S   S663      1.0  0.56632  0.32835  0.15989  1.0000
  Fe  Fe333     1.0  0.56007  0.37578  0.12262  1.0000
  S   S664      1.0  0.53671  0.39848  0.11958  1.0000
  S   S665      1.0  0.60231  0.33852  0.12687  1.0000
  S   S666      1.0  0.58520  0.37378  0.10767  1.0000
  Fe  Fe334     1.0  0.77490  0.33366  0.16931  1.0000
  S   S667      1.0  0.78296  0.34607  0.18170  1.0000
  S   S668      1.0  0.79340  0.32984  0.15084  1.0000
  Fe  Fe335     1.0  0.74098  0.32670  0.18842  1.0000
  S   S669      1.0  0.74635  0.33860  0.20249  1.0000
  S   S670      1.0  0.71628  0.31550  0.19447  1.0000
  Fe  Fe336     1.0  0.75407  0.35957  0.18560  1.0000
  S   S671      1.0  0.74590  0.38877  0.18446  1.0000
  Fe  Fe337     1.0  0.77465  0.32382  0.19724  1.0000
  H   H3887     1.0  0.76230  0.42512  0.20566  1.0000
  S   S672      1.0  0.74645  0.34887  0.17197  1.0000
  S   S673      1.0  0.76875  0.31018  0.18449  1.0000
  C   C4847     1.0  0.68685  0.39393  0.15385  1.0000
  C   C4848     1.0  0.51551  0.39479  0.12054  1.0000
  C   C4849     1.0  0.51281  0.37837  0.12026  1.0000
  C   C4850     1.0  0.97824  0.43096  0.01208  1.0000
  C   C4851     1.0  0.76219  0.24100  0.22605  1.0000
  H   H3888     1.0  0.93006  0.42335  0.06116  1.0000
  C   C4852     1.0  0.50683  0.31267  0.17536  1.0000
  H   H3889     1.0  0.52408  0.36734  0.11930  1.0000
  C   C4853     1.0  0.66749  0.34934  0.18476  1.0000
  H   H3890     1.0  0.90973  0.41716  0.00832  1.0000
  H   H3891     1.0  0.50286  0.42172  0.12185  1.0000
  H   H3892     1.0  0.80604  0.28620  0.18565  1.0000
  H   H3893     1.0  0.55883  0.26952  0.09207  1.0000
  C   C4854     1.0  0.72330  0.39589  0.18364  1.0000
  C   C4855     1.0  0.71659  0.41360  0.17847  1.0000
  C   C4856     1.0  0.69854  0.41943  0.17775  1.0000
  C   C4857     1.0  0.68700  0.40771  0.18266  1.0000
  C   C4858     1.0  0.69371  0.38994  0.18782  1.0000
  C   C4859     1.0  0.71194  0.38396  0.18810  1.0000
  H   H3894     1.0  0.72541  0.42272  0.17483  1.0000
  H   H3895     1.0  0.69352  0.43310  0.17367  1.0000
  H   H3896     1.0  0.68486  0.38077  0.19144  1.0000
  H   H3897     1.0  0.71717  0.37019  0.19189  1.0000
  C   C4860     1.0  0.61646  0.42806  0.13660  1.0000
  C   C4861     1.0  0.63338  0.41702  0.13405  1.0000
  C   C4862     1.0  0.63551  0.40185  0.12941  1.0000
  C   C4863     1.0  0.62071  0.39733  0.12763  1.0000
  C   C4864     1.0  0.60370  0.40804  0.13056  1.0000
  C   C4865     1.0  0.60163  0.42341  0.13493  1.0000
  H   H3898     1.0  0.64486  0.42037  0.13538  1.0000
  H   H3899     1.0  0.64870  0.39371  0.12707  1.0000
  H   H3900     1.0  0.59219  0.40477  0.12915  1.0000
  H   H3901     1.0  0.58846  0.43170  0.13705  1.0000
  C   C4866     1.0  0.70947  0.30854  0.18342  1.0000
  C   C4867     1.0  0.70791  0.31946  0.17158  1.0000
  C   C4868     1.0  0.70148  0.31389  0.16321  1.0000
  H   H3902     1.0  0.71132  0.33227  0.16902  1.0000
  H   H3903     1.0  0.69964  0.32245  0.15423  1.0000
  C   C4869     1.0  0.60247  0.27860  0.17797  1.0000
  C   C4870     1.0  0.58395  0.28220  0.18254  1.0000
  C   C4871     1.0  0.57317  0.29758  0.17691  1.0000
  C   C4872     1.0  0.58072  0.30943  0.16658  1.0000
  C   C4873     1.0  0.59925  0.30596  0.16193  1.0000
  C   C4874     1.0  0.61015  0.29057  0.16771  1.0000
  H   H3904     1.0  0.57796  0.27306  0.19049  1.0000
  H   H3905     1.0  0.55890  0.30028  0.18053  1.0000
  H   H3906     1.0  0.60515  0.31515  0.15399  1.0000
  H   H3907     1.0  0.62443  0.28799  0.16425  1.0000
  H   H3908     1.0  0.62338  0.24657  0.09672  1.0000
  H   H3909     1.0  0.63136  0.39206  0.07209  1.0000
  C   C4875     1.0  0.52852  0.35787  0.06119  1.0000
  H   H3910     1.0  0.77230  0.33874  0.21916  1.0000
  C   C4876     1.0  0.59210  0.28554  0.08140  1.0000
  C   C4877     1.0  0.59387  0.30160  0.07296  1.0000
  C   C4878     1.0  0.59355  0.31637  0.07730  1.0000
  C   C4879     1.0  0.59129  0.31544  0.09018  1.0000
  C   C4880     1.0  0.58927  0.29942  0.09882  1.0000
  C   C4881     1.0  0.58969  0.28440  0.09440  1.0000
  H   H3911     1.0  0.59571  0.30260  0.06294  1.0000
  H   H3912     1.0  0.59512  0.32864  0.07058  1.0000
  H   H3913     1.0  0.58754  0.29854  0.10879  1.0000
  H   H3914     1.0  0.58836  0.27199  0.10099  1.0000
  C   C4882     1.0  0.82528  0.37285  0.13104  1.0000
  C   C4883     1.0  0.83121  0.35590  0.12846  1.0000
  C   C4884     1.0  0.82131  0.34287  0.13460  1.0000
  C   C4885     1.0  0.80573  0.34645  0.14374  1.0000
  C   C4886     1.0  0.80013  0.36318  0.14680  1.0000
  C   C4887     1.0  0.80989  0.37643  0.14038  1.0000
  H   H3915     1.0  0.84326  0.35298  0.12140  1.0000
  H   H3916     1.0  0.82575  0.32997  0.13226  1.0000
  H   H3917     1.0  0.78811  0.36603  0.15389  1.0000
  H   H3918     1.0  0.80558  0.38938  0.14262  1.0000
  C   C4888     1.0  0.74898  0.45548  0.13904  1.0000
  C   C4889     1.0  0.73325  0.45288  0.14788  1.0000
  C   C4890     1.0  0.71740  0.45515  0.14394  1.0000
  C   C4891     1.0  0.71700  0.46054  0.13113  1.0000
  C   C4892     1.0  0.73272  0.46338  0.12224  1.0000
  C   C4893     1.0  0.74878  0.46068  0.12618  1.0000
  H   H3919     1.0  0.73340  0.44883  0.15779  1.0000
  H   H3920     1.0  0.70563  0.45241  0.15084  1.0000
  H   H3921     1.0  0.51131  0.33167  0.18395  1.0000
  H   H3922     1.0  0.76090  0.46286  0.11934  1.0000
  C   C4894     1.0  0.85837  0.48515  0.09944  1.0000
  H   H3923     1.0  0.86982  0.37397  0.07845  1.0000
  H   H3924     1.0  0.50106  0.37314  0.09287  1.0000
  C   C4895     1.0  0.92438  0.48208  0.09640  1.0000
  H   H3925     1.0  0.69183  0.40181  0.15797  1.0000
  H   H3926     1.0  0.63907  0.47461  0.10191  1.0000
  C   C4896     1.0  0.86163  0.43809  0.05759  1.0000
  C   C4897     1.0  0.85274  0.42918  0.06908  1.0000
  C   C4898     1.0  0.83986  0.43869  0.07750  1.0000
  C   C4899     1.0  0.83525  0.45717  0.07416  1.0000
  C   C4900     1.0  0.84319  0.46601  0.06228  1.0000
  C   C4901     1.0  0.85665  0.45654  0.05413  1.0000
  H   H3927     1.0  0.85616  0.41495  0.07161  1.0000
  H   H3928     1.0  0.83359  0.43174  0.08657  1.0000
  H   H3929     1.0  0.52820  0.30923  0.19865  1.0000
  H   H3930     1.0  0.86324  0.46353  0.04519  1.0000
  C   C4902     1.0  0.63318  0.33936  0.09392  1.0000
  H   H3931     1.0  0.96264  0.42180  0.00329  1.0000
  C   C4903     1.0  0.61226  0.37709  0.16505  1.0000
  H   H3932     1.0  0.71984  0.33909  0.14358  1.0000
  C   C4904     1.0  0.53607  0.28875  0.13712  1.0000
  H   H3933     1.0  0.88397  0.48068  0.10401  1.0000
  H   H3934     1.0  0.71624  0.36544  0.15176  1.0000
  H   H3935     1.0  0.89729  0.36565  0.02191  1.0000
  C   C4905     1.0  0.90235  0.41822  0.10347  1.0000
  S   S674      1.0  0.59300  0.26765  0.07486  1.0000
  H   H3936     1.0  0.91443  0.46087  0.11047  1.0000
  H   H3937     1.0  0.74204  0.48420  0.17097  1.0000
  H   H3938     1.0  0.55093  0.26996  0.02671  1.0000
  H   H3939     1.0  0.70552  0.37901  0.22904  1.0000
  C   C4906     1.0  0.71472  0.48594  0.17009  1.0000
  C   C4907     1.0  0.98522  0.46116  0.03876  1.0000
  C   C4908     1.0  0.57221  0.45350  0.10863  1.0000
  H   H3940     1.0  0.55463  0.27022  0.16770  1.0000
  C   C4909     1.0  0.68715  0.45367  0.19427  1.0000
  C   C4910     1.0  0.50087  0.40903  0.12166  1.0000
  C   C4911     1.0  0.52199  0.37213  0.05201  1.0000
  H   H3941     1.0  0.93697  0.43717  0.10107  1.0000
  H   H3942     1.0  0.64281  0.45510  0.19842  1.0000
  C   C4912     1.0  0.73511  0.41548  0.13829  1.0000
  H   H3943     1.0  0.63900  0.36199  0.09740  1.0000
  H   H3944     1.0  0.62497  0.34718  0.08723  1.0000
  S   S675      1.0  0.93175  0.44385  0.98904  1.0000
  C   C4913     1.0  0.73261  0.48727  0.16493  1.0000
  H   H3945     1.0  0.83659  0.29149  0.18090  1.0000
  H   H3946     1.0  0.68190  0.43903  0.11820  1.0000
  C   C4914     1.0  0.69011  0.26918  0.12772  1.0000
  C   C4915     1.0  0.51523  0.24726  0.08614  1.0000
  H   H3947     1.0  0.76873  0.28439  0.21064  1.0000
  H   H3948     1.0  0.79676  0.26265  0.20342  1.0000
  C   C4916     1.0  0.54244  0.26462  0.15473  1.0000
  C   C4917     1.0  0.61192  0.41089  0.16734  1.0000
  H   H3949     1.0  0.77123  0.36714  0.13507  1.0000
  H   H3950     1.0  0.67814  0.26392  0.09806  1.0000
  C   C4918     1.0  0.74930  0.29639  0.22503  1.0000
  H   H3951     1.0  0.74975  0.24932  0.22985  1.0000
  Fe  Fe338     1.0  0.64464  0.25216  0.17668  1.0000
  C   C4919     1.0  0.61246  0.29407  0.12578  1.0000
  H   H3952     1.0  0.53121  0.29405  0.12850  1.0000
  H   H3953     1.0  0.63365  0.34018  0.13471  1.0000
  H   H3954     1.0  0.61190  0.36403  0.16441  1.0000
  C   C4920     1.0  0.74781  0.33764  0.13489  1.0000
  C   C4921     1.0  0.73304  0.33314  0.11072  1.0000
  H   H3955     1.0  0.56137  0.37774  0.03157  1.0000
  C   C4922     1.0  0.52479  0.36564  0.15435  1.0000
  C   C4923     1.0  0.51261  0.38169  0.15185  1.0000
  C   C4924     1.0  0.50064  0.34986  0.16085  1.0000
  C   C4925     1.0  0.77386  0.42340  0.09509  1.0000
  H   H3956     1.0  0.79456  0.30053  0.09280  1.0000
  C   C4926     1.0  0.51890  0.34978  0.15865  1.0000
  H   H3957     1.0  0.73245  0.46764  0.11232  1.0000
  C   C4927     1.0  0.70444  0.32880  0.10990  1.0000
  C   C4928     1.0  0.98330  0.48649  0.01638  1.0000
  H   H3958     1.0  0.86349  0.47302  0.99202  1.0000
  H   H3959     1.0  0.74540  0.28078  0.13539  1.0000
  H   H3960     1.0  0.82960  0.26242  0.22958  1.0000
  C   C4929     1.0  0.50471  0.32670  0.12778  1.0000
  C   C4930     1.0  0.50446  0.33099  0.13901  1.0000
  C   C4931     1.0  0.79471  0.31692  0.22171  1.0000
  H   H3961     1.0  0.61186  0.42409  0.16801  1.0000
  H   H3962     1.0  0.53891  0.36541  0.15268  1.0000
  H   H3963     1.0  0.51733  0.39391  0.14809  1.0000
  H   H3964     1.0  0.86274  0.47413  0.07520  1.0000
  C   C4932     1.0  0.53445  0.29583  0.02215  1.0000
  H   H3965     1.0  0.52869  0.33745  0.16001  1.0000
  S   S676      1.0  0.85181  0.45598  0.13697  1.0000
  C   C4933     1.0  0.97034  0.46466  0.03337  1.0000
  C   C4934     1.0  0.50749  0.28308  0.04141  1.0000
  H   H3966     1.0  0.51115  0.33390  0.11887  1.0000
  H   H3967     1.0  0.51102  0.34138  0.13848  1.0000
  H   H3968     1.0  0.55809  0.25956  0.11486  1.0000
  C   C4935     1.0  0.77523  0.30767  0.10917  1.0000
  C   C4936     1.0  0.76219  0.34593  0.13231  1.0000
  C   C4937     1.0  0.87681  0.46812  0.07464  1.0000
  H   H3969     1.0  0.78566  0.30784  0.13653  1.0000
  C   C4938     1.0  0.74757  0.28878  0.16725  1.0000
  H   H3970     1.0  0.68893  0.48948  0.16568  1.0000
  C   C4939     1.0  0.81552  0.27787  0.19131  1.0000
  C   C4940     1.0  0.93750  0.48669  0.08564  1.0000
  C   C4941     1.0  0.51759  0.30689  0.02486  1.0000
  H   H3971     1.0  0.98223  0.39701  0.06802  1.0000
  H   H3972     1.0  0.64095  0.30881  0.14611  1.0000
  H   H3973     1.0  0.50342  0.24084  0.13165  1.0000
  C   C4942     1.0  0.64412  0.47441  0.07381  1.0000
  H   H3974     1.0  0.96945  0.38952  0.09102  1.0000
  H   H3975     1.0  0.69351  0.33175  0.10512  1.0000
  H   H3976     1.0  0.59120  0.27286  0.15404  1.0000
  H   H3977     1.0  0.92712  0.44766  0.07338  1.0000
  P   P159      1.0  0.51343  0.34869  0.07509  1.0000
  C   C4943     1.0  0.95678  0.41041  0.06326  1.0000
  C   C4944     1.0  0.54612  0.27068  0.09877  1.0000
  C   C4945     1.0  0.84485  0.27043  0.19611  1.0000
  C   C4946     1.0  0.74836  0.29960  0.14480  1.0000
  H   H3978     1.0  0.96234  0.41397  0.05322  1.0000
  C   C4947     1.0  0.80473  0.30141  0.11998  1.0000
  C   C4948     1.0  0.78744  0.30652  0.12691  1.0000
  C   C4949     1.0  0.74957  0.30216  0.15635  1.0000
  H   H3979     1.0  0.69202  0.48618  0.21261  1.0000
  H   H3980     1.0  0.65478  0.33132  0.21593  1.0000
  C   C4950     1.0  0.96797  0.40098  0.07160  1.0000
  C   C4951     1.0  0.51658  0.24866  0.06410  1.0000
  C   C4952     1.0  0.90981  0.40447  0.00666  1.0000
  C   C4953     1.0  0.73105  0.34527  0.14146  1.0000
  C   C4954     1.0  0.88946  0.47863  0.06937  1.0000
  C   C4955     1.0  0.78723  0.42250  0.08402  1.0000
  C   C4956     1.0  0.81026  0.26452  0.20149  1.0000
  C   C4957     1.0  0.69713  0.29726  0.16649  1.0000
  C   C4958     1.0  0.71875  0.29360  0.22788  1.0000
  C   C4959     1.0  0.78707  0.38272  0.20929  1.0000
  C   C4960     1.0  0.78277  0.39059  0.21972  1.0000
  P   P160      1.0  0.80799  0.38375  0.19807  1.0000
  C   C4961     1.0  0.81523  0.36574  0.18992  1.0000
  C   C4962     1.0  0.80313  0.40474  0.18727  1.0000
  C   C4963     1.0  0.79175  0.40682  0.17914  1.0000
  C   C4964     1.0  0.78743  0.42299  0.17086  1.0000
  C   C4965     1.0  0.79416  0.43734  0.17073  1.0000
  C   C4966     1.0  0.80506  0.43558  0.17904  1.0000
  C   C4967     1.0  0.80937  0.41938  0.18741  1.0000
  C   C4968     1.0  0.82097  0.36882  0.17670  1.0000
  C   C4969     1.0  0.82737  0.35463  0.17060  1.0000
  C   C4970     1.0  0.82850  0.33727  0.17764  1.0000
  H   H3981     1.0  0.73130  0.41675  0.11998  1.0000
  C   C4971     1.0  0.81668  0.34825  0.19692  1.0000
  C   C4972     1.0  0.82576  0.38071  0.20607  1.0000
  C   C4973     1.0  0.82491  0.37048  0.21844  1.0000
  C   C4974     1.0  0.87083  0.47989  0.13548  1.0000
  C   C4975     1.0  0.56950  0.46147  0.11875  1.0000
  H   H3982     1.0  0.81245  0.48582  0.15498  1.0000
  C   C4976     1.0  0.84139  0.38687  0.19958  1.0000
  C   C4977     1.0  0.66870  0.27602  0.11434  1.0000
  C   C4978     1.0  0.58368  0.46654  0.12086  1.0000
  C   C4979     1.0  0.77235  0.45495  0.09121  1.0000
  H   H3983     1.0  0.77669  0.37111  0.19839  1.0000
  C   C4980     1.0  0.70252  0.25893  0.11970  1.0000
  H   H3984     1.0  0.78621  0.39591  0.17916  1.0000
  H   H3985     1.0  0.77884  0.42437  0.16451  1.0000
  H   H3986     1.0  0.79091  0.44979  0.16413  1.0000
  H   H3987     1.0  0.81023  0.44675  0.17893  1.0000
  H   H3988     1.0  0.81744  0.41842  0.19398  1.0000
  H   H3989     1.0  0.82069  0.38209  0.17102  1.0000
  H   H3990     1.0  0.83138  0.35711  0.16039  1.0000
  H   H3991     1.0  0.83317  0.32634  0.17287  1.0000
  S   S677      1.0  0.79240  0.30684  0.21048  1.0000
  C   C4981     1.0  0.98951  0.44240  0.01035  1.0000
  C   C4982     1.0  0.76584  0.39152  0.22773  1.0000
  C   C4983     1.0  0.55222  0.37216  0.03979  1.0000
  C   C4984     1.0  0.68657  0.32236  0.23171  1.0000
  H   H3992     1.0  0.84280  0.39383  0.18979  1.0000
  H   H3993     1.0  0.74104  0.25764  0.15484  1.0000
  H   H3994     1.0  0.86519  0.37156  0.22281  1.0000
  C   C4985     1.0  0.66768  0.42719  0.11011  1.0000
  C   C4986     1.0  0.65367  0.43009  0.10401  1.0000
  C   C4987     1.0  0.64321  0.44720  0.10091  1.0000
  C   C4988     1.0  0.64695  0.46129  0.10413  1.0000
  P   P161      1.0  0.62547  0.45128  0.09258  1.0000
  C   C4989     1.0  0.62782  0.43246  0.08598  1.0000
  C   C4990     1.0  0.60359  0.45519  0.10291  1.0000
  C   C4991     1.0  0.58912  0.45055  0.10066  1.0000
  C   C4992     1.0  0.58044  0.24722  0.04944  1.0000
  C   C4993     1.0  0.60065  0.46340  0.11299  1.0000
  C   C4994     1.0  0.63698  0.41801  0.06821  1.0000
  C   C4995     1.0  0.63051  0.40328  0.07595  1.0000
  C   C4996     1.0  0.62284  0.40305  0.08868  1.0000
  C   C4997     1.0  0.62160  0.41750  0.09370  1.0000
  C   C4998     1.0  0.88257  0.48929  0.98809  1.0000
  H   H3995     1.0  0.99486  0.44261  0.01815  1.0000
  C   C4999     1.0  0.91303  0.45300  0.07369  1.0000
  C   C5000     1.0  0.51343  0.31783  0.18384  1.0000
  H   H3996     1.0  0.98599  0.45136  0.04746  1.0000
  H   H3997     1.0  0.59084  0.44450  0.09282  1.0000
  H   H3998     1.0  0.81352  0.36460  0.22344  1.0000
  H   H3999     1.0  0.50783  0.37788  0.05305  1.0000
  H   H4000     1.0  0.61774  0.39170  0.09474  1.0000
  H   H4001     1.0  0.61564  0.41706  0.10360  1.0000
  H   H4002     1.0  0.54484  0.30070  0.01460  1.0000
  C   C5001     1.0  0.65104  0.33764  0.10859  1.0000
  H   H4003     1.0  0.62818  0.31492  0.09314  1.0000
  C   C5002     1.0  0.64527  0.31065  0.10619  1.0000
  C   C5003     1.0  0.74244  0.28040  0.21228  1.0000
  C   C5004     1.0  0.69683  0.33364  0.22269  1.0000
  H   H4004     1.0  0.74176  0.37961  0.14751  1.0000
  P   P162      1.0  0.52892  0.25663  0.13708  1.0000
  C   C5005     1.0  0.52505  0.24774  0.07376  1.0000
  C   C5006     1.0  0.72450  0.28351  0.21860  1.0000
  H   H4005     1.0  0.58765  0.25563  0.05122  1.0000
  H   H4006     1.0  0.82705  0.34558  0.10183  1.0000
  H   H4007     1.0  0.74678  0.37320  0.21232  1.0000
  C   C5007     1.0  0.64280  0.31928  0.14964  1.0000
  P   P163      1.0  0.52896  0.24948  0.04797  1.0000
  Fe  Fe339     1.0  0.67846  0.26594  0.16396  1.0000
  H   H4008     1.0  0.88771  0.44471  0.12483  1.0000
  H   H4009     1.0  0.56764  0.24799  0.13626  1.0000
  C   C5008     1.0  0.90279  0.39174  0.01651  1.0000
  C   C5009     1.0  0.53023  0.27788  0.09449  1.0000
  C   C5010     1.0  0.66141  0.27280  0.22219  1.0000
  C   C5011     1.0  0.66818  0.28727  0.21432  1.0000
  C   C5012     1.0  0.67858  0.29499  0.21853  1.0000
  H   H4010     1.0  0.74667  0.27300  0.20489  1.0000
  C   C5013     1.0  0.62952  0.28288  0.12499  1.0000
  H   H4011     1.0  0.72531  0.35046  0.22520  1.0000
  C   C5014     1.0  0.59634  0.40709  0.16633  1.0000
  H   H4012     1.0  0.71519  0.27829  0.21603  1.0000
  H   H4013     1.0  0.69736  0.36019  0.21198  1.0000
  H   H4014     1.0  0.71038  0.32853  0.21808  1.0000
  H   H4015     1.0  0.63359  0.25892  0.07399  1.0000
  H   H4016     1.0  0.65032  0.28296  0.06729  1.0000
  H   H4017     1.0  0.86748  0.38861  0.20064  1.0000
  H   H4018     1.0  0.58569  0.29950  0.13699  1.0000
  H   H4019     1.0  0.65384  0.26645  0.21877  1.0000
  H   H4020     1.0  0.66586  0.29216  0.20481  1.0000
  H   H4021     1.0  0.68421  0.30581  0.21218  1.0000
  C   C5015     1.0  0.99335  0.45406  0.99874  1.0000
  C   C5016     1.0  0.53988  0.31696  0.10243  1.0000
  C   C5017     1.0  0.72475  0.38431  0.10425  1.0000
  C   C5018     1.0  0.72076  0.39332  0.09252  1.0000
  C   C5019     1.0  0.73074  0.40550  0.08456  1.0000
  H   H4022     1.0  0.71718  0.37472  0.11039  1.0000
  H   H4023     1.0  0.70992  0.39087  0.08960  1.0000
  H   H4024     1.0  0.72763  0.41253  0.07548  1.0000
  H   H4025     1.0  0.72103  0.42035  0.14197  1.0000
  H   H4026     1.0  0.53260  0.32362  0.05849  1.0000
  H   H4027     1.0  0.51492  0.32036  0.01944  1.0000
  H   H4028     1.0  0.85867  0.47120  0.10093  1.0000
  H   H4029     1.0  0.74868  0.45058  0.21618  1.0000
  C   C5020     1.0  0.52456  0.27203  0.03903  1.0000
  C   C5021     1.0  0.83900  0.36736  0.22447  1.0000
  C   C5022     1.0  0.67169  0.35862  0.22439  1.0000
  C   C5023     1.0  0.94236  0.40216  0.08917  1.0000
  H   H4030     1.0  0.54264  0.31317  0.13681  1.0000
  H   H4031     1.0  0.90656  0.38962  0.10851  1.0000
  C   C5024     1.0  0.88224  0.44995  0.07934  1.0000
  C   C5025     1.0  0.89242  0.41630  0.12961  1.0000
  C   C5026     1.0  0.68221  0.28839  0.23066  1.0000
  H   H4032     1.0  0.50047  0.27533  0.12254  1.0000
  C   C5027     1.0  0.53382  0.37923  0.04136  1.0000
  H   H4033     1.0  0.54260  0.25104  0.15980  1.0000
  C   C5028     1.0  0.93099  0.41165  0.08083  1.0000
  P   P164      1.0  0.70707  0.48011  0.18701  1.0000
  C   C5029     1.0  0.86538  0.48639  0.99024  1.0000
  C   C5030     1.0  0.90282  0.40172  0.11197  1.0000
  C   C5031     1.0  0.70390  0.31692  0.12157  1.0000
  H   H4034     1.0  0.58444  0.38726  0.16434  1.0000
  C   C5032     1.0  0.68942  0.35168  0.21910  1.0000
  H   H4035     1.0  0.52065  0.26793  0.18459  1.0000
  C   C5033     1.0  0.65449  0.47792  0.19345  1.0000
  C   C5034     1.0  0.64903  0.31519  0.16075  1.0000
  C   C5035     1.0  0.65154  0.32862  0.16533  1.0000
  C   C5036     1.0  0.64716  0.34639  0.15904  1.0000
  H   H4036     1.0  0.91151  0.40291  0.06534  1.0000
  P   P165      1.0  0.64869  0.36414  0.16539  1.0000
  C   C5037     1.0  0.65066  0.35514  0.18157  1.0000
  C   C5038     1.0  0.67410  0.38428  0.16136  1.0000
  C   C5039     1.0  0.63682  0.34387  0.20331  1.0000
  C   C5040     1.0  0.63533  0.35233  0.19093  1.0000
  H   H4037     1.0  0.55542  0.26608  0.05126  1.0000
  H   H4038     1.0  0.89569  0.38291  0.06212  1.0000
  H   H4039     1.0  0.65210  0.30153  0.16579  1.0000
  H   H4040     1.0  0.65674  0.32497  0.17383  1.0000
  H   H4041     1.0  0.77860  0.25505  0.23003  1.0000
  H   H4042     1.0  0.62498  0.34147  0.21044  1.0000
  H   H4043     1.0  0.62226  0.35626  0.18862  1.0000
  Fe  Fe340     1.0  0.64313  0.47923  0.16052  1.0000
  C   C5041     1.0  0.54817  0.32847  0.10486  1.0000
  C   C5042     1.0  0.54519  0.34630  0.09875  1.0000
  C   C5043     1.0  0.53408  0.35259  0.09008  1.0000
  C   C5044     1.0  0.67353  0.37399  0.14326  1.0000
  H   H4044     1.0  0.52610  0.29674  0.05601  1.0000
  C   C5045     1.0  0.85424  0.37409  0.21812  1.0000
  H   H4045     1.0  0.55739  0.32344  0.11117  1.0000
  H   H4046     1.0  0.55210  0.35513  0.10032  1.0000
  C   C5046     1.0  0.77854  0.24409  0.22624  1.0000
  H   H4047     1.0  0.66848  0.36654  0.13890  1.0000
  C   C5047     1.0  0.75484  0.28682  0.21551  1.0000
  C   C5048     1.0  0.83274  0.28090  0.18866  1.0000
  C   C5049     1.0  0.52832  0.32331  0.09406  1.0000
  C   C5050     1.0  0.75689  0.37777  0.21457  1.0000
  H   H4048     1.0  0.52208  0.31415  0.09233  1.0000
  H   H4049     1.0  0.50438  0.29020  0.16945  1.0000
  C   C5051     1.0  0.66089  0.45831  0.11031  1.0000
  C   C5052     1.0  0.93840  0.41567  0.06782  1.0000
  H   H4050     1.0  0.71928  0.34636  0.09551  1.0000
  H   H4051     1.0  0.64186  0.48731  0.19295  1.0000
  C   C5053     1.0  0.80732  0.29941  0.10765  1.0000
  C   C5054     1.0  0.54257  0.29960  0.14178  1.0000
  C   C5055     1.0  0.90044  0.44226  0.07890  1.0000
  H   H4052     1.0  0.65617  0.46590  0.07661  1.0000
  H   H4053     1.0  0.60975  0.30548  0.11827  1.0000
  H   H4054     1.0  0.65659  0.29486  0.08327  1.0000
  H   H4055     1.0  0.95971  0.44510  0.08170  1.0000
  H   H4056     1.0  0.74215  0.26275  0.17528  1.0000
  C   C5056     1.0  0.74439  0.27281  0.16672  1.0000
  H   H4057     1.0  0.89764  0.38809  0.13149  1.0000
  C   C5057     1.0  0.87080  0.38975  0.09077  1.0000
  P   P166      1.0  0.64681  0.28691  0.11103  1.0000
  C   C5058     1.0  0.52545  0.28715  0.19259  1.0000
  H   H4058     1.0  0.75197  0.42392  0.18716  1.0000
  C   C5059     1.0  0.64554  0.48933  0.06399  1.0000
  C   C5060     1.0  0.97587  0.44170  0.99023  1.0000
  H   H4059     1.0  0.69913  0.25824  0.21444  1.0000
  H   H4060     1.0  0.58178  0.47229  0.12890  1.0000
  H   H4061     1.0  0.81609  0.29894  0.12426  1.0000
  H   H4062     1.0  0.74786  0.29102  0.17622  1.0000
  H   H4063     1.0  0.53291  0.27733  0.19909  1.0000
  P   P167      1.0  0.90727  0.41947  0.08664  1.0000
  C   C5061     1.0  0.89697  0.43370  0.10822  1.0000
  H   H4064     1.0  0.55649  0.46347  0.12507  1.0000
  C   C5062     1.0  0.64289  0.27792  0.09922  1.0000
  H   H4065     1.0  0.75183  0.31449  0.15706  1.0000
  H   H4066     1.0  0.63722  0.36396  0.14304  1.0000
  C   C5063     1.0  0.92441  0.46428  0.10204  1.0000
  C   C5064     1.0  0.96076  0.39682  0.08455  1.0000
  C   C5065     1.0  0.74617  0.43508  0.19170  1.0000
  C   C5066     1.0  0.66710  0.37442  0.15610  1.0000
  C   C5067     1.0  0.63566  0.43257  0.07319  1.0000
  H   H4067     1.0  0.69952  0.44394  0.19459  1.0000
  C   C5068     1.0  0.60173  0.27548  0.14581  1.0000
  C   C5069     1.0  0.72885  0.36046  0.14587  1.0000
  S   S678      1.0  0.66550  0.25732  0.18428  1.0000
  C   C5070     1.0  0.61852  0.26395  0.14488  1.0000
  C   C5071     1.0  0.53610  0.27115  0.14349  1.0000
  C   C5072     1.0  0.79341  0.43765  0.07682  1.0000
  H   H4068     1.0  0.54275  0.30304  0.10680  1.0000
  C   C5073     1.0  0.51862  0.28187  0.18438  1.0000
  H   H4069     1.0  0.66927  0.38499  0.17120  1.0000
  H   H4070     1.0  0.82413  0.32063  0.19629  1.0000
  H   H4071     1.0  0.50147  0.28528  0.09988  1.0000
  H   H4072     1.0  0.79320  0.41006  0.08109  1.0000
  C   C5074     1.0  0.65360  0.33821  0.20642  1.0000
  C   C5075     1.0  0.96937  0.47747  0.02220  1.0000
  S   S679      1.0  0.95367  0.45221  0.04045  1.0000
  C   C5076     1.0  0.95002  0.45541  0.08594  1.0000
  C   C5077     1.0  0.77257  0.31012  0.12146  1.0000
  H   H4073     1.0  0.53268  0.36625  0.08496  1.0000
  C   C5078     1.0  0.73856  0.38765  0.10808  1.0000
  C   C5079     1.0  0.70459  0.29215  0.18683  1.0000
  H   H4074     1.0  0.93720  0.39895  0.09923  1.0000
  C   C5080     1.0  0.54925  0.27539  0.15923  1.0000
  C   C5081     1.0  0.64105  0.34770  0.09963  1.0000
  C   C5082     1.0  0.67125  0.44128  0.11328  1.0000
  P   P168      1.0  0.75043  0.31690  0.13067  1.0000
  C   C5083     1.0  0.74601  0.28319  0.14423  1.0000
  C   C5084     1.0  0.83970  0.25697  0.20624  1.0000
  C   C5085     1.0  0.78301  0.33267  0.22417  1.0000
  H   H4075     1.0  0.81769  0.29693  0.22627  1.0000
  H   H4076     1.0  0.91751  0.47895  0.06449  1.0000
  H   H4077     1.0  0.67165  0.43362  0.19943  1.0000
  C   C5086     1.0  0.67129  0.44769  0.19711  1.0000
  C   C5087     1.0  0.74474  0.40869  0.08830  1.0000
  C   C5088     1.0  0.74100  0.41323  0.12585  1.0000
  H   H4078     1.0  0.74140  0.38069  0.11723  1.0000
  C   C5089     1.0  0.69865  0.28642  0.17833  1.0000
  H   H4079     1.0  0.70576  0.28365  0.19596  1.0000
  H   H4080     1.0  0.89360  0.44560  0.99171  1.0000
  C   C5090     1.0  0.89780  0.40080  0.12499  1.0000
  H   H4081     1.0  0.53064  0.28222  0.08446  1.0000
  C   C5091     1.0  0.69813  0.25721  0.10899  1.0000
  C   C5092     1.0  0.69267  0.39395  0.14099  1.0000
  H   H4082     1.0  0.88802  0.41569  0.13968  1.0000
  C   C5093     1.0  0.50942  0.29457  0.17576  1.0000
  S   S680      1.0  0.69003  0.29023  0.15560  1.0000
  C   C5094     1.0  0.54565  0.26483  0.11171  1.0000
  C   C5095     1.0  0.82331  0.33408  0.19080  1.0000
  H   H4083     1.0  0.70219  0.40183  0.13515  1.0000
  C   C5096     1.0  0.66888  0.34114  0.19719  1.0000
  C   C5097     1.0  0.51662  0.30449  0.06243  1.0000
  C   C5098     1.0  0.68132  0.26575  0.10627  1.0000
  C   C5099     1.0  0.50095  0.29898  0.06946  1.0000
  C   C5100     1.0  0.85548  0.38374  0.20565  1.0000
  C   C5101     1.0  0.67030  0.48398  0.19055  1.0000
  C   C5102     1.0  0.74871  0.39983  0.10013  1.0000
  H   H4084     1.0  0.75233  0.41815  0.08198  1.0000
  H   H4085     1.0  0.77080  0.36605  0.10454  1.0000
  H   H4086     1.0  0.61145  0.46702  0.11510  1.0000
  H   H4087     1.0  0.69552  0.27350  0.18088  1.0000
  C   C5103     1.0  0.73286  0.44877  0.18709  1.0000
  C   C5104     1.0  0.63066  0.25710  0.09380  1.0000
  H   H4088     1.0  0.62921  0.25830  0.11275  1.0000
  H   H4089     1.0  0.65664  0.34423  0.11329  1.0000
  H   H4090     1.0  0.66355  0.28482  0.13173  1.0000
  H   H4091     1.0  0.66362  0.46916  0.11292  1.0000
  C   C5105     1.0  0.80856  0.30906  0.22823  1.0000
  H   H4092     1.0  0.67959  0.35076  0.17765  1.0000
  C   C5106     1.0  0.68616  0.38381  0.13574  1.0000
  C   C5107     1.0  0.51385  0.27955  0.10315  1.0000
  C   C5108     1.0  0.75190  0.43574  0.20217  1.0000
  H   H4093     1.0  0.82074  0.29530  0.10232  1.0000
  H   H4094     1.0  0.79684  0.34120  0.10328  1.0000
  C   C5109     1.0  0.62816  0.38095  0.16568  1.0000
  C   C5110     1.0  0.93717  0.45095  0.09680  1.0000
  C   C5111     1.0  0.70214  0.24416  0.21507  1.0000
  H   H4095     1.0  0.74296  0.41392  0.15548  1.0000
  H   H4096     1.0  0.87418  0.40709  0.10086  1.0000
  S   S681      1.0  0.65604  0.26349  0.15664  1.0000
  H   H4097     1.0  0.85909  0.38646  0.09768  1.0000
  C   C5112     1.0  0.50810  0.32981  0.07232  1.0000
  C   C5113     1.0  0.78377  0.36832  0.10395  1.0000
  C   C5114     1.0  0.79857  0.35414  0.10314  1.0000
  C   C5115     1.0  0.74742  0.41194  0.14590  1.0000
  C   C5116     1.0  0.63385  0.26397  0.10289  1.0000
  C   C5117     1.0  0.63513  0.32096  0.09726  1.0000
  H   H4098     1.0  0.72868  0.44818  0.17890  1.0000
  H   H4099     1.0  0.67544  0.41394  0.11269  1.0000
  C   C5118     1.0  0.64087  0.35035  0.14791  1.0000
  C   C5119     1.0  0.59650  0.39019  0.16522  1.0000
  C   C5120     1.0  0.89488  0.40572  0.08374  1.0000
  C   C5121     1.0  0.63650  0.26401  0.08099  1.0000
  C   C5122     1.0  0.65316  0.31923  0.11187  1.0000
  H   H4100     1.0  0.92200  0.41103  0.98707  1.0000
  C   C5123     1.0  0.79257  0.30243  0.10227  1.0000
  H   H4101     1.0  0.69057  0.38381  0.12580  1.0000
  C   C5124     1.0  0.76625  0.43980  0.09849  1.0000
  H   H4102     1.0  0.69250  0.31078  0.12599  1.0000
  C   C5125     1.0  0.63876  0.33687  0.14321  1.0000
  C   C5126     1.0  0.87687  0.38269  0.07996  1.0000
  H   H4103     1.0  0.66593  0.37256  0.22139  1.0000
  H   H4104     1.0  0.77537  0.34038  0.12745  1.0000
  H   H4105     1.0  0.81280  0.34556  0.20712  1.0000
  H   H4106     1.0  0.68189  0.33675  0.19959  1.0000
  C   C5127     1.0  0.54705  0.35079  0.05950  1.0000
  C   C5128     1.0  0.62728  0.47058  0.07993  1.0000
  C   C5129     1.0  0.75926  0.40688  0.12106  1.0000
  C   C5130     1.0  0.81560  0.35659  0.10228  1.0000
  C   C5131     1.0  0.72472  0.46300  0.19310  1.0000
  H   H4107     1.0  0.58426  0.41738  0.16617  1.0000
  C   C5132     1.0  0.82230  0.25401  0.20910  1.0000
  H   H4108     1.0  0.64066  0.44386  0.06702  1.0000
  C   C5133     1.0  0.71897  0.33698  0.10449  1.0000
  H   H4109     1.0  0.64291  0.41819  0.05832  1.0000
  H   H4110     1.0  0.89401  0.47826  0.98823  1.0000
  H   H4111     1.0  0.71530  0.25187  0.12203  1.0000
  H   H4112     1.0  0.65093  0.41887  0.10194  1.0000
  C   C5134     1.0  0.78586  0.38504  0.10412  1.0000
  H   H4113     1.0  0.64511  0.25828  0.13379  1.0000
  H   H4114     1.0  0.66056  0.31198  0.11906  1.0000
  C   C5135     1.0  0.77393  0.37653  0.20667  1.0000
  C   C5136     1.0  0.61193  0.48173  0.07597  1.0000
  C   C5137     1.0  0.89153  0.38758  0.07083  1.0000
  H   H4115     1.0  0.97455  0.42263  0.02129  1.0000
  C   C5138     1.0  0.91683  0.40097  0.99460  1.0000
  H   H4116     1.0  0.63961  0.40134  0.16772  1.0000
  P   P169      1.0  0.76690  0.40361  0.10505  1.0000
  C   C5139     1.0  0.76561  0.40626  0.14109  1.0000
  H   H4117     1.0  0.71689  0.30424  0.13695  1.0000
  H   H4118     1.0  0.87223  0.44204  0.08352  1.0000
  C   C5140     1.0  0.95025  0.47320  0.08041  1.0000
  C   C5141     1.0  0.78602  0.45385  0.08043  1.0000
  C   C5142     1.0  0.77155  0.40369  0.12872  1.0000
  C   C5143     1.0  0.53788  0.27842  0.02912  1.0000
  C   C5144     1.0  0.64584  0.27762  0.07724  1.0000
  H   H4119     1.0  0.88082  0.46844  0.13850  1.0000
  C   C5145     1.0  0.62777  0.39792  0.16700  1.0000
  H   H4120     1.0  0.77507  0.40406  0.14696  1.0000
  C   C5146     1.0  0.52552  0.34114  0.08768  1.0000
  C   C5147     1.0  0.75987  0.36130  0.13658  1.0000
  C   C5148     1.0  0.80303  0.38729  0.10338  1.0000
  C   C5149     1.0  0.73065  0.46368  0.20356  1.0000
  C   C5150     1.0  0.90758  0.47102  0.06882  1.0000
  C   C5151     1.0  0.87952  0.40147  0.09256  1.0000
  C   C5152     1.0  0.74420  0.45007  0.20807  1.0000
  H   H4121     1.0  0.80425  0.43682  0.06857  1.0000
  H   H4122     1.0  0.59881  0.47900  0.08045  1.0000
  C   C5153     1.0  0.81782  0.37320  0.10227  1.0000
  C   C5154     1.0  0.50663  0.25355  0.14530  1.0000
  H   H4123     1.0  0.73973  0.38608  0.23125  1.0000
  H   H4124     1.0  0.79247  0.39609  0.22166  1.0000
  H   H4125     1.0  0.74401  0.33987  0.10659  1.0000
  H   H4126     1.0  0.75589  0.44085  0.10690  1.0000
  H   H4127     1.0  0.89600  0.44663  0.10197  1.0000
  H   H4128     1.0  0.83097  0.37511  0.10178  1.0000
  C   C5155     1.0  0.63232  0.26755  0.13446  1.0000
  C   C5156     1.0  0.64921  0.28444  0.08631  1.0000
  C   C5157     1.0  0.74372  0.26996  0.15520  1.0000
  C   C5158     1.0  0.59868  0.29051  0.13624  1.0000
  H   H4129     1.0  0.95793  0.48038  0.01800  1.0000
  C   C5159     1.0  0.90284  0.37547  0.01427  1.0000
  C   C5160     1.0  0.90047  0.39908  0.07268  1.0000
  C   C5161     1.0  0.89219  0.43270  0.12123  1.0000
  H   H4130     1.0  0.89722  0.39460  0.02585  1.0000
  C   C5162     1.0  0.66129  0.34747  0.23325  1.0000
  H   H4131     1.0  0.78572  0.39936  0.12519  1.0000
  Fe  Fe341     1.0  0.89918  0.48103  0.02078  1.0000
  H   H4132     1.0  0.76403  0.30947  0.10493  1.0000
  H   H4133     1.0  0.84923  0.24896  0.21194  1.0000
  C   C5163     1.0  0.85498  0.47769  0.13364  1.0000
  H   H4134     1.0  0.80509  0.39992  0.10370  1.0000
  C   C5164     1.0  0.71797  0.31302  0.12775  1.0000
  C   C5165     1.0  0.55882  0.35793  0.04885  1.0000
  C   C5166     1.0  0.54915  0.29290  0.15282  1.0000
  C   C5167     1.0  0.90991  0.37195  0.00217  1.0000
  H   H4135     1.0  0.83960  0.48026  0.05964  1.0000
  C   C5168     1.0  0.68680  0.47191  0.19088  1.0000
  H   H4136     1.0  0.76584  0.47893  0.20728  1.0000
  H   H4137     1.0  0.76681  0.46748  0.09409  1.0000
  H   H4138     1.0  0.55248  0.33973  0.06640  1.0000
  C   C5169     1.0  0.51335  0.27366  0.11609  1.0000
  H   H4139     1.0  0.57309  0.35246  0.04769  1.0000
  H   H4140     1.0  0.85818  0.27286  0.19408  1.0000
  H   H4141     1.0  0.79114  0.46549  0.07502  1.0000
  C   C5170     1.0  0.65500  0.45979  0.19659  1.0000
  H   H4142     1.0  0.56125  0.44939  0.10707  1.0000
  H   H4143     1.0  0.52871  0.39031  0.03435  1.0000
  C   C5171     1.0  0.52021  0.31983  0.06385  1.0000
  C   C5172     1.0  0.98632  0.45396  0.98862  1.0000
  H   H4144     1.0  0.52196  0.24581  0.09365  1.0000
  C   C5173     1.0  0.75288  0.38517  0.22513  1.0000
  H   H4145     1.0  0.69174  0.24671  0.19880  1.0000
  C   C5174     1.0  0.50410  0.30048  0.03444  1.0000
  C   C5175     1.0  0.52927  0.26570  0.12046  1.0000
  H   H4146     1.0  0.72498  0.47464  0.20821  1.0000
  H   H4147     1.0  0.55423  0.30126  0.15640  1.0000
  H   H4148     1.0  0.96026  0.47640  0.07195  1.0000
  C   C5176     1.0  0.67322  0.27753  0.12513  1.0000
  C   C5177     1.0  0.78520  0.34054  0.23316  1.0000
  H   H4149     1.0  0.90961  0.35939  0.00062  1.0000
  H   H4150     1.0  0.69333  0.27014  0.13622  1.0000
  S   S682      1.0  0.64581  0.47879  0.14023  1.0000
  H   H4151     1.0  0.75892  0.30134  0.22754  1.0000
  H   H4152     1.0  0.62092  0.25227  0.15230  1.0000
  C   C5178     1.0  0.56216  0.25304  0.04953  1.0000
  C   C5179     1.0  0.73131  0.29979  0.23116  1.0000
  H   H4153     1.0  0.70755  0.24882  0.10298  1.0000
  C   C5180     1.0  0.91705  0.38470  0.99223  1.0000
  C   C5181     1.0  0.99930  0.47005  0.03284  1.0000
  C   C5182     1.0  0.70282  0.49015  0.16200  1.0000
  C   C5183     1.0  0.55262  0.24191  0.04774  1.0000
  H   H4154     1.0  0.83723  0.33744  0.36449  1.0000
  S   S683      1.0  0.88680  0.43786  0.43247  1.0000
  Fe  Fe342     1.0  0.93622  0.43108  0.41570  1.0000
  S   S684      1.0  0.92386  0.40853  0.42737  1.0000
  S   S685      1.0  0.96535  0.42401  0.40724  1.0000
  Fe  Fe343     1.0  0.90109  0.42187  0.41760  1.0000
  S   S686      1.0  0.88908  0.40221  0.41323  1.0000
  Fe  Fe344     1.0  0.91079  0.42606  0.44115  1.0000
  S   S687      1.0  0.91073  0.41367  0.46172  1.0000
  S   S688      1.0  0.91458  0.44342  0.40473  1.0000
  S   S689      1.0  0.92524  0.44764  0.43027  1.0000
  C   C5184     1.0  0.94196  0.25976  0.35564  1.0000
  H   H4155     1.0  0.99594  0.34131  0.34043  1.0000
  H   H4156     1.0  0.97941  0.40163  0.43211  1.0000
  C   C5185     1.0  0.82127  0.25189  0.38013  1.0000
  H   H4157     1.0  0.94155  0.46805  0.47544  1.0000
  Fe  Fe345     1.0  0.79755  0.29471  0.29043  1.0000
  S   S690      1.0  0.81009  0.29330  0.27035  1.0000
  S   S691      1.0  0.77250  0.28555  0.30219  1.0000
  Fe  Fe346     1.0  0.82382  0.31560  0.29201  1.0000
  S   S692      1.0  0.83831  0.31621  0.27179  1.0000
  S   S693      1.0  0.82636  0.33010  0.30588  1.0000
  Fe  Fe347     1.0  0.81118  0.32170  0.26741  1.0000
  S   S694      1.0  0.80112  0.34227  0.25130  1.0000
  Fe  Fe348     1.0  0.83607  0.28776  0.27641  1.0000
  S   S695      1.0  0.85841  0.26746  0.26814  1.0000
  S   S696      1.0  0.79676  0.32357  0.28717  1.0000
  S   S697      1.0  0.82346  0.28663  0.29698  1.0000
  Fe  Fe349     1.0  0.89348  0.35911  0.35748  1.0000
  S   S698      1.0  0.91679  0.35073  0.34210  1.0000
  S   S699      1.0  0.88905  0.38695  0.36072  1.0000
  Fe  Fe350     1.0  0.88323  0.32315  0.36444  1.0000
  S   S700      1.0  0.90611  0.31222  0.35025  1.0000
  S   S701      1.0  0.86444  0.30555  0.37652  1.0000
  Fe  Fe351     1.0  0.92220  0.32565  0.35656  1.0000
  S   S702      1.0  0.94956  0.31107  0.36001  1.0000
  Fe  Fe352     1.0  0.89818  0.33815  0.33722  1.0000
  S   S703      1.0  0.89830  0.33573  0.31756  1.0000
  S   S704      1.0  0.89997  0.33447  0.37213  1.0000
  S   S705      1.0  0.87429  0.34874  0.35125  1.0000
  C   C5186     1.0  0.78586  0.42473  0.45224  1.0000
  C   C5187     1.0  0.99063  0.42997  0.36456  1.0000
  C   C5188     1.0  0.80848  0.24537  0.29782  1.0000
  C   C5189     1.0  0.72876  0.34070  0.24434  1.0000
  H   H4158     1.0  0.91298  0.26595  0.35935  1.0000
  C   C5190     1.0  0.96079  0.32375  0.36432  1.0000
  C   C5191     1.0  0.95223  0.34068  0.36640  1.0000
  C   C5192     1.0  0.96153  0.35075  0.36959  1.0000
  C   C5193     1.0  0.97953  0.34423  0.37033  1.0000
  C   C5194     1.0  0.98796  0.32713  0.36853  1.0000
  C   C5195     1.0  0.97853  0.31687  0.36565  1.0000
  H   H4159     1.0  0.93849  0.34606  0.36550  1.0000
  H   H4160     1.0  0.95492  0.36381  0.37115  1.0000
  H   H4161     1.0  0.91510  0.48378  0.39333  1.0000
  H   H4162     1.0  0.98506  0.30367  0.36425  1.0000
  S   S706      1.0  0.71419  0.24154  0.23618  1.0000
  C   C5196     1.0  0.71080  0.36935  0.23670  1.0000
  P   P170      1.0  0.83454  0.42625  0.42787  1.0000
  C   C5197     1.0  0.98777  0.40535  0.46367  1.0000
  C   C5198     1.0  0.68605  0.29387  0.27424  1.0000
  C   C5199     1.0  0.85005  0.48037  0.41085  1.0000
  C   C5200     1.0  0.84676  0.33074  0.30906  1.0000
  C   C5201     1.0  0.86347  0.32445  0.30179  1.0000
  C   C5202     1.0  0.87923  0.32601  0.30446  1.0000
  C   C5203     1.0  0.87840  0.33341  0.31461  1.0000
  C   C5204     1.0  0.86171  0.33935  0.32199  1.0000
  C   C5205     1.0  0.84601  0.33828  0.31908  1.0000
  H   H4163     1.0  0.86423  0.31867  0.29401  1.0000
  H   H4164     1.0  0.89209  0.32141  0.29868  1.0000
  H   H4165     1.0  0.86083  0.34524  0.32973  1.0000
  H   H4166     1.0  0.83320  0.34350  0.32454  1.0000
  C   C5206     1.0  0.82795  0.46325  0.42318  1.0000
  P   P171      1.0  0.97408  0.42926  0.35661  1.0000
  C   C5207     1.0  0.83836  0.28578  0.33991  1.0000
  C   C5208     1.0  0.87350  0.25565  0.27792  1.0000
  C   C5209     1.0  0.82166  0.25556  0.23786  1.0000
  C   C5210     1.0  0.99368  0.46391  0.41057  1.0000
  C   C5211     1.0  0.82856  0.33583  0.35914  1.0000
  H   H4167     1.0  0.80851  0.24619  0.35428  1.0000
  C   C5212     1.0  0.81315  0.24282  0.23711  1.0000
  H   H4168     1.0  0.97219  0.44795  0.37578  1.0000
  C   C5213     1.0  0.86720  0.28474  0.37291  1.0000
  C   C5214     1.0  0.87542  0.28120  0.36087  1.0000
  C   C5215     1.0  0.87619  0.26470  0.35832  1.0000
  H   H4169     1.0  0.98318  0.48683  0.44065  1.0000
  C   C5216     1.0  0.86996  0.39442  0.44963  1.0000
  C   C5217     1.0  0.86006  0.27163  0.38235  1.0000
  H   H4170     1.0  0.88056  0.29136  0.35339  1.0000
  H   H4171     1.0  0.95972  0.47941  0.43485  1.0000
  H   H4172     1.0  0.99100  0.44142  0.45921  1.0000
  H   H4173     1.0  0.85364  0.27420  0.39164  1.0000
  H   H4174     1.0  0.89075  0.24771  0.40759  1.0000
  C   C5218     1.0  0.75712  0.25437  0.28560  1.0000
  C   C5219     1.0  0.76658  0.26565  0.28748  1.0000
  C   C5220     1.0  0.76179  0.27140  0.29888  1.0000
  C   C5221     1.0  0.74753  0.26604  0.30822  1.0000
  C   C5222     1.0  0.88035  0.24288  0.29868  1.0000
  C   C5223     1.0  0.86093  0.25527  0.37985  1.0000
  H   H4175     1.0  0.77736  0.27004  0.28011  1.0000
  H   H4176     1.0  0.74372  0.27041  0.31703  1.0000
  C   C5224     1.0  0.95131  0.47598  0.45522  1.0000
  C   C5225     1.0  0.97609  0.43929  0.40873  1.0000
  C   C5226     1.0  0.96690  0.45680  0.40877  1.0000
  C   C5227     1.0  0.94445  0.31503  0.31872  1.0000
  C   C5228     1.0  0.96138  0.48329  0.34598  1.0000
  C   C5229     1.0  0.83299  0.47956  0.41832  1.0000
  C   C5230     1.0  0.97573  0.46915  0.40960  1.0000
  H   H4177     1.0  0.80101  0.25707  0.29259  1.0000
  C   C5231     1.0  0.97023  0.39727  0.45237  1.0000
  H   H4178     1.0  0.99236  0.30777  0.43197  1.0000
  C   C5232     1.0  0.92345  0.25939  0.38222  1.0000
  C   C5233     1.0  0.88989  0.39826  0.39839  1.0000
  C   C5234     1.0  0.89160  0.41130  0.38727  1.0000
  C   C5235     1.0  0.89134  0.40766  0.37578  1.0000
  C   C5236     1.0  0.88983  0.39086  0.37527  1.0000
  C   C5237     1.0  0.88835  0.37780  0.38638  1.0000
  C   C5238     1.0  0.88805  0.38161  0.39790  1.0000
  H   H4179     1.0  0.89289  0.42421  0.38754  1.0000
  H   H4180     1.0  0.89242  0.41785  0.36724  1.0000
  H   H4181     1.0  0.88694  0.36492  0.38616  1.0000
  H   H4182     1.0  0.88634  0.37159  0.40651  1.0000
  C   C5239     1.0  0.92423  0.27277  0.33957  1.0000
  C   C5240     1.0  0.90768  0.42874  0.47126  1.0000
  C   C5241     1.0  0.80952  0.25134  0.26038  1.0000
  C   C5242     1.0  0.99347  0.25770  0.38100  1.0000
  C   C5243     1.0  0.99668  0.40855  0.44088  1.0000
  C   C5244     1.0  0.95663  0.47027  0.44377  1.0000
  C   C5245     1.0  0.81756  0.31649  0.35128  1.0000
  C   C5246     1.0  0.77043  0.28802  0.34635  1.0000
  C   C5247     1.0  0.79957  0.29428  0.34382  1.0000
  H   H4183     1.0  0.77107  0.44514  0.42512  1.0000
  H   H4184     1.0  0.97055  0.25448  0.34848  1.0000
  H   H4185     1.0  0.99025  0.31976  0.29634  1.0000
  H   H4186     1.0  0.67772  0.31374  0.25876  1.0000
  H   H4187     1.0  0.92596  0.38610  0.38752  1.0000
  H   H4188     1.0  0.88112  0.26771  0.31646  1.0000
  C   C5248     1.0  0.95687  0.45290  0.44366  1.0000
  H   H4189     1.0  0.75863  0.28363  0.35238  1.0000
  C   C5249     1.0  0.95664  0.37259  0.32586  1.0000
  H   H4190     1.0  0.92525  0.48576  0.41821  1.0000
  C   C5250     1.0  0.89829  0.25611  0.40003  1.0000
  H   H4191     1.0  0.95299  0.46086  0.40815  1.0000
  C   C5251     1.0  0.84714  0.41700  0.44019  1.0000
  C   C5252     1.0  0.99294  0.40247  0.34380  1.0000
  H   H4192     1.0  0.87973  0.29368  0.32484  1.0000
  H   H4193     1.0  0.71399  0.26594  0.24965  1.0000
  H   H4194     1.0  0.95511  0.38874  0.33864  1.0000
  H   H4195     1.0  0.85287  0.30523  0.33956  1.0000
  H   H4196     1.0  0.81333  0.41609  0.45372  1.0000
  C   C5253     1.0  0.98521  0.34993  0.33610  1.0000
  H   H4197     1.0  0.85497  0.25347  0.32307  1.0000
  C   C5254     1.0  0.96313  0.25322  0.37500  1.0000
  C   C5255     1.0  0.86847  0.28730  0.32775  1.0000
  H   H4198     1.0  0.80815  0.25463  0.26934  1.0000
  C   C5256     1.0  0.86924  0.27271  0.32302  1.0000
  C   C5257     1.0  0.85311  0.29384  0.33616  1.0000
  C   C5258     1.0  0.86853  0.40454  0.45827  1.0000
  C   C5259     1.0  0.70662  0.26726  0.26914  1.0000
  H   H4199     1.0  0.99311  0.40205  0.38947  1.0000
  H   H4200     1.0  0.96672  0.31431  0.28847  1.0000
  H   H4201     1.0  0.75613  0.35281  0.25716  1.0000
  C   C5260     1.0  0.97723  0.26985  0.38309  1.0000
  C   C5261     1.0  0.95758  0.25991  0.34616  1.0000
  C   C5262     1.0  0.95654  0.26657  0.33349  1.0000
  C   C5263     1.0  0.93987  0.27289  0.33019  1.0000
  C   C5264     1.0  0.99414  0.43414  0.40940  1.0000
  C   C5265     1.0  0.92525  0.26623  0.35224  1.0000
  C   C5266     1.0  0.96214  0.26763  0.38013  1.0000
  C   C5267     1.0  0.97079  0.46563  0.34763  1.0000
  C   C5268     1.0  0.99859  0.30746  0.33377  1.0000
  H   H4202     1.0  0.85482  0.25889  0.29544  1.0000
  H   H4203     1.0  0.83382  0.24894  0.28568  1.0000
  C   C5269     1.0  0.98488  0.42056  0.34258  1.0000
  H   H4204     1.0  0.77124  0.36857  0.26550  1.0000
  H   H4205     1.0  0.89507  0.24996  0.26225  1.0000
  C   C5270     1.0  0.89218  0.27446  0.39781  1.0000
  C   C5271     1.0  0.90172  0.28527  0.38791  1.0000
  C   C5272     1.0  0.91713  0.27781  0.38002  1.0000
  H   H4206     1.0  0.93707  0.31193  0.30263  1.0000
  P   P172      1.0  0.69558  0.29880  0.23580  1.0000
  H   H4207     1.0  0.96387  0.41675  0.38422  1.0000
  H   H4208     1.0  0.77712  0.26969  0.24839  1.0000
  C   C5273     1.0  0.69660  0.27719  0.27807  1.0000
  C   C5274     1.0  0.89095  0.24810  0.27241  1.0000
  H   H4209     1.0  0.96871  0.26644  0.32624  1.0000
  C   C5275     1.0  0.80430  0.42267  0.44739  1.0000
  C   C5276     1.0  0.86206  0.46490  0.40817  1.0000
  H   H4210     1.0  0.67824  0.30154  0.28117  1.0000
  H   H4211     1.0  0.94984  0.27736  0.38178  1.0000
  H   H4212     1.0  0.97633  0.28113  0.38689  1.0000
  H   H4213     1.0  0.87630  0.24051  0.30881  1.0000
  C   C5277     1.0  0.82831  0.31885  0.35842  1.0000
  C   C5278     1.0  0.98191  0.40232  0.44094  1.0000
  H   H4214     1.0  0.89962  0.45194  0.45735  1.0000
  C   C5279     1.0  0.82372  0.26258  0.36799  1.0000
  H   H4215     1.0  0.87984  0.28038  0.40354  1.0000
  H   H4216     1.0  0.89680  0.29945  0.38612  1.0000
  H   H4217     1.0  0.92407  0.28640  0.37215  1.0000
  H   H4218     1.0  0.95855  0.39278  0.45237  1.0000
  Fe  Fe353     1.0  0.90232  0.45842  0.42042  1.0000
  C   C5280     1.0  0.93349  0.47361  0.35510  1.0000
  C   C5281     1.0  0.96216  0.37690  0.33515  1.0000
  H   H4219     1.0  0.67832  0.26815  0.24779  1.0000
  H   H4220     1.0  0.91904  0.47669  0.35813  1.0000
  H   H4221     1.0  0.91128  0.27771  0.33703  1.0000
  H   H4222     1.0  0.95485  0.31928  0.33301  1.0000
  C   C5282     1.0  0.97774  0.31806  0.30280  1.0000
  H   H4223     1.0  0.71491  0.25441  0.27208  1.0000
  C   C5283     1.0  0.98903  0.37637  0.40035  1.0000
  H   H4224     1.0  0.79556  0.28307  0.39652  1.0000
  C   C5284     1.0  0.70702  0.37320  0.24863  1.0000
  S   S707      1.0  0.88844  0.48751  0.41742  1.0000
  C   C5285     1.0  0.86825  0.25320  0.29108  1.0000
  P   P173      1.0  0.81797  0.29440  0.35026  1.0000
  H   H4225     1.0  0.78086  0.41992  0.46221  1.0000
  H   H4226     1.0  0.83220  0.25671  0.36026  1.0000
  H   H4227     1.0  0.96080  0.44857  0.43484  1.0000
  H   H4228     1.0  0.82141  0.31076  0.24228  1.0000
  C   C5286     1.0  0.81799  0.35062  0.35276  1.0000
  C   C5287     1.0  0.80710  0.34839  0.34570  1.0000
  C   C5288     1.0  0.80698  0.33139  0.34487  1.0000
  C   C5289     1.0  0.70603  0.27385  0.25642  1.0000
  C   C5290     1.0  0.96434  0.31514  0.29824  1.0000
  C   C5291     1.0  0.97310  0.39879  0.46371  1.0000
  P   P174      1.0  0.99199  0.40733  0.47815  1.0000
  C   C5292     1.0  0.78718  0.29859  0.32549  1.0000
  C   C5293     1.0  0.80094  0.29920  0.33072  1.0000
  H   H4229     1.0  0.66029  0.25450  0.24021  1.0000
  H   H4230     1.0  0.81850  0.36378  0.35311  1.0000
  H   H4231     1.0  0.79924  0.35986  0.34050  1.0000
  H   H4232     1.0  0.79899  0.33000  0.33897  1.0000
  H   H4233     1.0  0.88202  0.26221  0.34896  1.0000
  C   C5294     1.0  0.81115  0.25924  0.39042  1.0000
  H   H4234     1.0  0.78841  0.30240  0.31535  1.0000
  H   H4235     1.0  0.81276  0.30336  0.32452  1.0000
  H   H4236     1.0  0.64740  0.35279  0.23712  1.0000
  C   C5295     1.0  0.85459  0.26468  0.32671  1.0000
  H   H4237     1.0  0.89539  0.47280  0.47109  1.0000
  C   C5296     1.0  0.99828  0.27836  0.34747  1.0000
  C   C5297     1.0  0.97969  0.34540  0.32682  1.0000
  C   C5298     1.0  0.83993  0.44763  0.42044  1.0000
  C   C5299     1.0  0.73800  0.25520  0.30627  1.0000
  C   C5300     1.0  0.97975  0.24151  0.37241  1.0000
  C   C5301     1.0  0.77198  0.29289  0.33327  1.0000
  C   C5302     1.0  0.84570  0.42704  0.44898  1.0000
  C   C5303     1.0  0.97657  0.36571  0.34012  1.0000
  H   H4238     1.0  0.76149  0.29221  0.32909  1.0000
  H   H4239     1.0  0.99509  0.45188  0.38507  1.0000
  H   H4240     1.0  0.98075  0.36898  0.34741  1.0000
  C   C5304     1.0  0.77388  0.43289  0.44424  1.0000
  H   H4241     1.0  0.75960  0.43444  0.44800  1.0000
  H   H4242     1.0  0.87987  0.38212  0.44953  1.0000
  C   C5305     1.0  0.78415  0.28876  0.35164  1.0000
  C   C5306     1.0  0.95779  0.31786  0.32333  1.0000
  H   H4243     1.0  0.69883  0.38591  0.25023  1.0000
  H   H4244     1.0  0.72706  0.30733  0.23843  1.0000
  C   C5307     1.0  0.81987  0.25975  0.24945  1.0000
  C   C5308     1.0  0.80322  0.27729  0.38854  1.0000
  H   H4245     1.0  0.82799  0.26493  0.33761  1.0000
  H   H4246     1.0  0.72687  0.25136  0.31356  1.0000
  C   C5309     1.0  0.99790  0.32233  0.41258  1.0000
  C   C5310     1.0  0.85630  0.42078  0.45802  1.0000
  H   H4247     1.0  0.83683  0.43998  0.44859  1.0000
  H   H4248     1.0  0.80975  0.25101  0.39985  1.0000
  C   C5311     1.0  0.91395  0.24858  0.39234  1.0000
  C   C5312     1.0  0.96596  0.34354  0.45798  1.0000
  C   C5313     1.0  0.95829  0.33445  0.45267  1.0000
  C   C5314     1.0  0.96392  0.33427  0.43981  1.0000
  C   C5315     1.0  0.97723  0.34326  0.43214  1.0000
  C   C5316     1.0  0.99476  0.24367  0.37555  1.0000
  P   P175      1.0  0.98383  0.34331  0.41545  1.0000
  C   C5317     1.0  0.94307  0.47907  0.38424  1.0000
  C   C5318     1.0  0.96339  0.34756  0.41000  1.0000
  C   C5319     1.0  0.96138  0.33691  0.40270  1.0000
  C   C5320     1.0  0.94489  0.33909  0.39969  1.0000
  C   C5321     1.0  0.93033  0.35198  0.40384  1.0000
  C   C5322     1.0  0.93223  0.36278  0.41100  1.0000
  C   C5323     1.0  0.94870  0.36062  0.41405  1.0000
  C   C5324     1.0  0.94767  0.31373  0.30618  1.0000
  H   H4249     1.0  0.95082  0.41152  0.35090  1.0000
  C   C5325     1.0  0.69543  0.29055  0.25245  1.0000
  C   C5326     1.0  0.96549  0.35705  0.32159  1.0000
  C   C5327     1.0  0.85925  0.40056  0.44066  1.0000
  C   C5328     1.0  0.94614  0.44681  0.46627  1.0000
  H   H4250     1.0  0.97893  0.44539  0.32925  1.0000
  P   P176      1.0  0.94328  0.24976  0.37189  1.0000
  C   C5329     1.0  0.99660  0.36011  0.40744  1.0000
  C   C5330     1.0  0.81577  0.28067  0.36600  1.0000
  H   H4251     1.0  0.98523  0.35952  0.45453  1.0000
  H   H4252     1.0  0.69717  0.27191  0.28794  1.0000
  H   H4253     1.0  0.96148  0.34382  0.46791  1.0000
  H   H4254     1.0  0.94785  0.32768  0.45848  1.0000
  H   H4255     1.0  0.95776  0.32728  0.43580  1.0000
  H   H4256     1.0  0.77612  0.35264  0.23513  1.0000
  H   H4257     1.0  0.97242  0.32689  0.39926  1.0000
  H   H4258     1.0  0.94347  0.33090  0.39398  1.0000
  H   H4259     1.0  0.91766  0.35370  0.40135  1.0000
  H   H4260     1.0  0.92094  0.37291  0.41412  1.0000
  H   H4261     1.0  0.94994  0.36904  0.41966  1.0000
  H   H4262     1.0  0.73784  0.32861  0.24228  1.0000
  C   C5331     1.0  0.74273  0.24922  0.29505  1.0000
  H   H4263     1.0  0.83676  0.30753  0.36328  1.0000
  C   C5332     1.0  0.94620  0.46403  0.46650  1.0000
  H   H4264     1.0  0.94413  0.46508  0.38517  1.0000
  H   H4265     1.0  0.97554  0.37900  0.39901  1.0000
  C   C5333     1.0  0.79876  0.43690  0.42647  1.0000
  H   H4266     1.0  0.80362  0.44154  0.41645  1.0000
  H   H4267     1.0  0.79912  0.30191  0.37507  1.0000
  C   C5334     1.0  0.82706  0.24091  0.29399  1.0000
  C   C5335     1.0  0.77643  0.29312  0.25435  1.0000
  C   C5336     1.0  0.76877  0.28047  0.25272  1.0000
  C   C5337     1.0  0.75034  0.28180  0.25663  1.0000
  C   C5338     1.0  0.73953  0.29595  0.26196  1.0000
  C   C5339     1.0  0.74715  0.30877  0.26359  1.0000
  C   C5340     1.0  0.76571  0.30727  0.25974  1.0000
  P   P177      1.0  0.73272  0.32780  0.26938  1.0000
  C   C5341     1.0  0.72428  0.34408  0.25652  1.0000
  C   C5342     1.0  0.71507  0.32012  0.28201  1.0000
  C   C5343     1.0  0.69744  0.33019  0.28376  1.0000
  C   C5344     1.0  0.68430  0.32432  0.29398  1.0000
  C   C5345     1.0  0.68857  0.30824  0.30240  1.0000
  C   C5346     1.0  0.70598  0.29801  0.30062  1.0000
  C   C5347     1.0  0.71917  0.30392  0.29050  1.0000
  C   C5348     1.0  0.71393  0.36072  0.25846  1.0000
  C   C5349     1.0  0.97459  0.31932  0.31544  1.0000
  H   H4268     1.0  0.93905  0.27783  0.32037  1.0000
  H   H4269     1.0  0.98527  0.46270  0.34495  1.0000
  C   C5350     1.0  0.85708  0.44859  0.41302  1.0000
  C   C5351     1.0  0.74477  0.33835  0.27554  1.0000
  C   C5352     1.0  0.75464  0.35055  0.26727  1.0000
  C   C5353     1.0  0.76310  0.35967  0.27197  1.0000
  C   C5354     1.0  0.76177  0.35672  0.28496  1.0000
  C   C5355     1.0  0.75231  0.34432  0.29324  1.0000
  C   C5356     1.0  0.74393  0.33508  0.28857  1.0000
  H   H4270     1.0  0.79073  0.29196  0.25139  1.0000
  C   C5357     1.0  0.98587  0.44094  0.37324  1.0000
  H   H4271     1.0  0.74442  0.27191  0.25542  1.0000
  H   H4272     1.0  0.72522  0.29699  0.26469  1.0000
  H   H4273     1.0  0.77197  0.31699  0.26080  1.0000
  H   H4274     1.0  0.69369  0.34256  0.27737  1.0000
  H   H4275     1.0  0.67077  0.33223  0.29535  1.0000
  H   H4276     1.0  0.67840  0.30366  0.31031  1.0000
  H   H4277     1.0  0.70933  0.28552  0.30712  1.0000
  H   H4278     1.0  0.73268  0.29594  0.28940  1.0000
  H   H4279     1.0  0.71124  0.36403  0.26758  1.0000
  H   H4280     1.0  0.93147  0.31415  0.32485  1.0000
  H   H4281     1.0  0.96095  0.35407  0.31435  1.0000
  H   H4282     1.0  0.92057  0.48502  0.44811  1.0000
  C   C5358     1.0  0.99407  0.42448  0.31977  1.0000
  H   H4283     1.0  0.76877  0.36342  0.28855  1.0000
  H   H4284     1.0  0.75195  0.34147  0.30326  1.0000
  H   H4285     1.0  0.73703  0.32530  0.29517  1.0000
  C   C5359     1.0  0.81085  0.42891  0.43447  1.0000
  C   C5360     1.0  0.80542  0.28796  0.37637  1.0000
  H   H4286     1.0  0.96363  0.39521  0.47238  1.0000
  H   H4287     1.0  0.94527  0.38112  0.32214  1.0000
  C   C5361     1.0  0.68561  0.30065  0.26146  1.0000
  C   C5362     1.0  0.83889  0.41245  0.41664  1.0000
  C   C5363     1.0  0.84347  0.41923  0.40358  1.0000
  C   C5364     1.0  0.84605  0.40855  0.39504  1.0000
  C   C5365     1.0  0.84391  0.39111  0.39944  1.0000
  C   C5366     1.0  0.83895  0.38438  0.41239  1.0000
  C   C5367     1.0  0.83626  0.39505  0.42095  1.0000
  H   H4288     1.0  0.92977  0.39291  0.36436  1.0000
  H   H4289     1.0  0.86678  0.43667  0.41121  1.0000
  H   H4290     1.0  0.86116  0.39276  0.43380  1.0000
  H   H4291     1.0  0.84517  0.43268  0.39986  1.0000
  H   H4292     1.0  0.85020  0.41362  0.38499  1.0000
  H   H4293     1.0  0.84642  0.38275  0.39278  1.0000
  H   H4294     1.0  0.83738  0.37081  0.41577  1.0000
  H   H4295     1.0  0.83227  0.38969  0.43096  1.0000
  H   H4296     1.0  0.99255  0.39370  0.35306  1.0000
  H   H4297     1.0  0.94945  0.42864  0.45459  1.0000
  H   H4298     1.0  0.85517  0.24538  0.38725  1.0000
  C   C5368     1.0  0.78033  0.43893  0.43135  1.0000
  C   C5369     1.0  0.83924  0.27120  0.33505  1.0000
  H   H4299     1.0  0.97071  0.47815  0.37541  1.0000
  C   C5370     1.0  0.90213  0.44694  0.46679  1.0000
  C   C5371     1.0  0.66861  0.32937  0.23675  1.0000
  H   H4300     1.0  0.94267  0.39843  0.39746  1.0000
  C   C5372     1.0  0.95923  0.41522  0.36654  1.0000
  C   C5373     1.0  0.95668  0.41158  0.37972  1.0000
  C   C5374     1.0  0.94463  0.40117  0.38728  1.0000
  C   C5375     1.0  0.93512  0.39433  0.38171  1.0000
  C   C5376     1.0  0.93732  0.39817  0.36861  1.0000
  C   C5377     1.0  0.94935  0.40857  0.36103  1.0000
  C   C5378     1.0  0.99096  0.29252  0.33869  1.0000
  H   H4301     1.0  0.78272  0.28488  0.36177  1.0000
  C   C5379     1.0  0.99872  0.44289  0.37875  1.0000
  C   C5380     1.0  0.98704  0.46123  0.46961  1.0000
  C   C5381     1.0  0.95097  0.44143  0.45484  1.0000
  C   C5382     1.0  0.96158  0.45182  0.35303  1.0000
  S   S708      1.0  0.99125  0.35807  0.37294  1.0000
  C   C5383     1.0  0.94284  0.45595  0.35674  1.0000
  H   H4302     1.0  0.87546  0.46551  0.40269  1.0000
  C   C5384     1.0  0.89974  0.45874  0.47456  1.0000
  H   H4303     1.0  0.96853  0.48262  0.40978  1.0000
  C   C5385     1.0  0.86860  0.25182  0.36779  1.0000
  H   H4304     1.0  0.85870  0.24599  0.25202  1.0000
  C   C5386     1.0  0.98488  0.35237  0.43756  1.0000
  H   H4305     1.0  0.81492  0.46289  0.42932  1.0000
  H   H4306     1.0  0.76072  0.24993  0.27684  1.0000
  H   H4307     1.0  0.93536  0.44565  0.36116  1.0000
  H   H4308     1.0  0.85566  0.42884  0.46448  1.0000
  C   C5387     1.0  0.97930  0.35241  0.45044  1.0000
  C   C5388     1.0  0.79893  0.33257  0.23980  1.0000
  C   C5389     1.0  0.81065  0.31686  0.23729  1.0000
  H   H4309     1.0  0.66017  0.32075  0.24320  1.0000
  H   H4310     1.0  0.98849  0.47163  0.46123  1.0000
  H   H4311     1.0  0.97950  0.29154  0.33577  1.0000
  P   P178      1.0  0.99071  0.32511  0.32136  1.0000
  H   H4312     1.0  0.99248  0.26682  0.35111  1.0000
  C   C5390     1.0  0.98771  0.43017  0.47932  1.0000
  C   C5391     1.0  0.94274  0.48727  0.34976  1.0000
  H   H4313     1.0  0.94155  0.43790  0.47490  1.0000
  H   H4314     1.0  0.82655  0.26952  0.24998  1.0000
  C   C5392     1.0  0.98857  0.44393  0.46852  1.0000
  H   H4315     1.0  0.87733  0.40008  0.46489  1.0000
  H   H4316     1.0  0.99439  0.43293  0.31044  1.0000
  C   C5393     1.0  0.98533  0.43150  0.33048  1.0000
  C   C5394     1.0  0.95811  0.48650  0.37880  1.0000
  C   C5395     1.0  0.67533  0.27387  0.23853  1.0000
  C   C5396     1.0  0.98463  0.46490  0.48143  1.0000
  H   H4317     1.0  0.98406  0.47813  0.48224  1.0000
  C   C5397     1.0  0.91089  0.42240  0.48351  1.0000
  H   H4318     1.0  0.83812  0.35950  0.23405  1.0000
  C   C5398     1.0  0.99901  0.38947  0.39484  1.0000
  H   H4319     1.0  0.76276  0.39726  0.23592  1.0000
  H   H4320     1.0  0.99494  0.35969  0.43193  1.0000
  C   C5399     1.0  0.99963  0.41001  0.45219  1.0000
  C   C5400     1.0  0.72189  0.35322  0.23453  1.0000
  C   C5401     1.0  0.99942  0.30721  0.42239  1.0000
  H   H4321     1.0  0.99502  0.49024  0.35369  1.0000
  C   C5402     1.0  0.92668  0.48958  0.38886  1.0000
  C   C5403     1.0  0.66501  0.26609  0.23428  1.0000
  H   H4322     1.0  0.86091  0.41607  0.56403  1.0000
  S   S709      1.0  0.96789  0.41192  0.52588  1.0000
  C   C5404     1.0  0.64191  0.30940  0.72709  1.0000
  S   S710      1.0  0.89131  0.43668  0.56036  1.0000
  S   S711      1.0  0.91665  0.43112  0.52566  1.0000
  H   H4323     1.0  0.97554  0.32657  0.69188  1.0000
  H   H4324     1.0  0.94767  0.37338  0.52161  1.0000
  C   C5405     1.0  0.67313  0.28362  0.70135  1.0000
  C   C5406     1.0  0.98527  0.25277  0.59251  1.0000
  C   C5407     1.0  0.90880  0.43425  0.49121  1.0000
  H   H4325     1.0  0.72877  0.24365  0.69156  1.0000
  H   H4326     1.0  0.97770  0.33576  0.65822  1.0000
  H   H4327     1.0  0.88756  0.41586  0.58587  1.0000
  C   C5408     1.0  0.91322  0.46805  0.56610  1.0000
  C   C5409     1.0  0.89803  0.34659  0.66461  1.0000
  C   C5410     1.0  0.93263  0.26105  0.68511  1.0000
  C   C5411     1.0  0.86453  0.24750  0.62085  1.0000
  C   C5412     1.0  0.84629  0.25518  0.62366  1.0000
  H   H4328     1.0  0.70383  0.29553  0.69629  1.0000
  C   C5413     1.0  0.97132  0.39699  0.68421  1.0000
  Fe  Fe354     1.0  0.78867  0.32591  0.67065  1.0000
  S   S712      1.0  0.80753  0.30291  0.67989  1.0000
  S   S713      1.0  0.79240  0.35394  0.66306  1.0000
  Fe  Fe355     1.0  0.76129  0.30373  0.67334  1.0000
  S   S714      1.0  0.77788  0.27896  0.68273  1.0000
  S   S715      1.0  0.73419  0.30659  0.66927  1.0000
  Fe  Fe356     1.0  0.78256  0.29642  0.69352  1.0000
  S   S716      1.0  0.77888  0.28745  0.71457  1.0000
  Fe  Fe357     1.0  0.80107  0.28780  0.66830  1.0000
  S   S717      1.0  0.82132  0.27118  0.65581  1.0000
  S   S718      1.0  0.76402  0.32064  0.68529  1.0000
  S   S719      1.0  0.78421  0.31129  0.65801  1.0000
  Fe  Fe358     1.0  0.91116  0.34618  0.60297  1.0000
  S   S720      1.0  0.91568  0.35969  0.61638  1.0000
  S   S721      1.0  0.91829  0.35499  0.58193  1.0000
  Fe  Fe359     1.0  0.89741  0.31717  0.62355  1.0000
  S   S722      1.0  0.90115  0.32788  0.63872  1.0000
  S   S723      1.0  0.88276  0.29510  0.63010  1.0000
  Fe  Fe360     1.0  0.88919  0.35412  0.62805  1.0000
  S   S724      1.0  0.86822  0.37353  0.63821  1.0000
  Fe  Fe361     1.0  0.92737  0.33225  0.62596  1.0000
  S   S725      1.0  0.95262  0.32426  0.63365  1.0000
  S   S726      1.0  0.88353  0.34330  0.61365  1.0000
  S   S727      1.0  0.92474  0.31890  0.61166  1.0000
  H   H4329     1.0  0.93556  0.40303  0.50959  1.0000
  C   C5414     1.0  0.96643  0.33972  0.62946  1.0000
  C   C5415     1.0  0.96107  0.35721  0.62309  1.0000
  C   C5416     1.0  0.97239  0.36915  0.62005  1.0000
  H   H4330     1.0  0.94952  0.39515  0.55275  1.0000
  C   C5417     1.0  0.95634  0.37642  0.56942  1.0000
  H   H4331     1.0  0.64892  0.29727  0.67836  1.0000
  H   H4332     1.0  0.94819  0.36162  0.62059  1.0000
  H   H4333     1.0  0.96818  0.38267  0.61517  1.0000
  S   S728      1.0  0.90048  0.46767  0.49609  1.0000
  S   S729      1.0  0.90278  0.47270  0.52880  1.0000
  H   H4334     1.0  0.98935  0.46240  0.56494  1.0000
  H   H4335     1.0  0.89716  0.33101  0.58081  1.0000
  H   H4336     1.0  0.79982  0.31478  0.70564  1.0000
  C   C5418     1.0  0.81392  0.35840  0.65634  1.0000
  C   C5419     1.0  0.81549  0.37607  0.65291  1.0000
  C   C5420     1.0  0.83220  0.38045  0.64747  1.0000
  C   C5421     1.0  0.84754  0.36723  0.64516  1.0000
  C   C5422     1.0  0.84611  0.34946  0.64854  1.0000
  C   C5423     1.0  0.82930  0.34502  0.65421  1.0000
  H   H4337     1.0  0.80372  0.38646  0.65457  1.0000
  H   H4338     1.0  0.83320  0.39417  0.64496  1.0000
  H   H4339     1.0  0.85796  0.33914  0.64693  1.0000
  H   H4340     1.0  0.82820  0.33132  0.65683  1.0000
  P   P179      1.0  0.69869  0.35508  0.73305  1.0000
  H   H4341     1.0  0.85416  0.24891  0.64701  1.0000
  C   C5424     1.0  0.95682  0.40848  0.69009  1.0000
  C   C5425     1.0  0.97791  0.39609  0.49166  1.0000
  C   C5426     1.0  0.85974  0.27027  0.69461  1.0000
  H   H4342     1.0  0.97032  0.44725  0.67642  1.0000
  H   H4343     1.0  0.62996  0.35399  0.72477  1.0000
  C   C5427     1.0  0.82845  0.24549  0.67668  1.0000
  C   C5428     1.0  0.92590  0.25307  0.64858  1.0000
  H   H4344     1.0  0.64941  0.30396  0.69837  1.0000
  C   C5429     1.0  0.93464  0.44495  0.57662  1.0000
  C   C5430     1.0  0.91723  0.25406  0.61609  1.0000
  C   C5431     1.0  0.90848  0.27136  0.61756  1.0000
  C   C5432     1.0  0.89475  0.27395  0.62814  1.0000
  C   C5433     1.0  0.88985  0.25937  0.63721  1.0000
  C   C5434     1.0  0.98318  0.33433  0.63271  1.0000
  H   H4345     1.0  0.90667  0.44474  0.57928  1.0000
  H   H4346     1.0  0.91217  0.28265  0.61048  1.0000
  H   H4347     1.0  0.87932  0.26140  0.64542  1.0000
  H   H4348     1.0  0.94587  0.40334  0.69684  1.0000
  C   C5435     1.0  0.71581  0.26467  0.65819  1.0000
  C   C5436     1.0  0.70833  0.28274  0.65480  1.0000
  C   C5437     1.0  0.71423  0.29528  0.65822  1.0000
  C   C5438     1.0  0.72818  0.29006  0.66469  1.0000
  C   C5439     1.0  0.73625  0.27203  0.66771  1.0000
  C   C5440     1.0  0.72990  0.25931  0.66461  1.0000
  H   H4349     1.0  0.69750  0.28703  0.64983  1.0000
  H   H4350     1.0  0.70790  0.30914  0.65586  1.0000
  H   H4351     1.0  0.74720  0.26792  0.67253  1.0000
  C   C5441     1.0  0.99653  0.29002  0.67943  1.0000
  H   H4352     1.0  0.66351  0.25411  0.71561  1.0000
  H   H4353     1.0  0.69873  0.39240  0.72980  1.0000
  C   C5442     1.0  0.79925  0.32347  0.72229  1.0000
  H   H4354     1.0  0.82659  0.39147  0.55720  1.0000
  C   C5443     1.0  0.99536  0.25770  0.59885  1.0000
  C   C5444     1.0  0.97857  0.26480  0.64144  1.0000
  H   H4355     1.0  0.97343  0.39005  0.65801  1.0000
  C   C5445     1.0  0.94420  0.47016  0.56113  1.0000
  S   S730      1.0  0.70671  0.24947  0.65444  1.0000
  C   C5446     1.0  0.86373  0.40765  0.55743  1.0000
  C   C5447     1.0  0.85790  0.27774  0.67263  1.0000
  C   C5448     1.0  0.99762  0.48298  0.54942  1.0000
  H   H4356     1.0  0.99675  0.28920  0.64509  1.0000
  H   H4357     1.0  0.91900  0.39635  0.60147  1.0000
  H   H4358     1.0  0.87378  0.31503  0.67246  1.0000
  H   H4359     1.0  0.67161  0.27253  0.67023  1.0000
  C   C5449     1.0  0.98821  0.42173  0.60340  1.0000
  C   C5450     1.0  0.89865  0.41395  0.56648  1.0000
  C   C5451     1.0  0.90799  0.40251  0.55836  1.0000
  C   C5452     1.0  0.91355  0.38439  0.56319  1.0000
  C   C5453     1.0  0.91031  0.37763  0.57621  1.0000
  C   C5454     1.0  0.90086  0.38896  0.58440  1.0000
  C   C5455     1.0  0.89487  0.40710  0.57953  1.0000
  H   H4360     1.0  0.91085  0.40753  0.54833  1.0000
  H   H4361     1.0  0.92078  0.37567  0.55680  1.0000
  H   H4362     1.0  0.89819  0.38376  0.59447  1.0000
  H   H4363     1.0  0.91144  0.42932  0.50058  1.0000
  C   C5456     1.0  0.94472  0.40785  0.56818  1.0000
  C   C5457     1.0  0.99306  0.43843  0.53892  1.0000
  C   C5458     1.0  0.77063  0.35418  0.58892  1.0000
  C   C5459     1.0  0.98042  0.41708  0.53448  1.0000
  C   C5460     1.0  0.98732  0.40413  0.54411  1.0000
  C   C5461     1.0  0.75275  0.35212  0.72612  1.0000
  H   H4364     1.0  0.87677  0.42190  0.62757  1.0000
  C   C5462     1.0  0.94876  0.29789  0.72031  1.0000
  H   H4365     1.0  0.98534  0.39081  0.54604  1.0000
  H   H4366     1.0  0.98406  0.42383  0.49969  1.0000
  H   H4367     1.0  0.92866  0.32197  0.72141  1.0000
  C   C5463     1.0  0.87492  0.28149  0.66912  1.0000
  H   H4368     1.0  0.98252  0.32216  0.59927  1.0000
  C   C5464     1.0  0.78591  0.33659  0.60572  1.0000
  H   H4369     1.0  0.75839  0.36166  0.58588  1.0000
  C   C5465     1.0  0.83942  0.41327  0.58709  1.0000
  H   H4370     1.0  0.95472  0.47695  0.55547  1.0000
  C   C5466     1.0  0.97838  0.48818  0.56932  1.0000
  H   H4371     1.0  0.63547  0.25156  0.52947  1.0000
  H   H4372     1.0  0.87003  0.34733  0.66718  1.0000
  C   C5467     1.0  0.73539  0.34398  0.64225  1.0000
  C   C5468     1.0  0.73849  0.35444  0.64914  1.0000
  C   C5469     1.0  0.75572  0.35696  0.64747  1.0000
  C   C5470     1.0  0.76993  0.34884  0.63905  1.0000
  C   C5471     1.0  0.76704  0.33797  0.63227  1.0000
  C   C5472     1.0  0.74955  0.33589  0.63379  1.0000
  P   P180      1.0  0.78551  0.32606  0.62214  1.0000
  C   C5473     1.0  0.80675  0.32593  0.62518  1.0000
  C   C5474     1.0  0.78347  0.30337  0.62474  1.0000
  C   C5475     1.0  0.77319  0.29535  0.63603  1.0000
  C   C5476     1.0  0.77250  0.27759  0.63823  1.0000
  C   C5477     1.0  0.78200  0.26763  0.62922  1.0000
  C   C5478     1.0  0.79230  0.27539  0.61796  1.0000
  C   C5479     1.0  0.79310  0.29318  0.61574  1.0000
  C   C5480     1.0  0.81739  0.31013  0.63062  1.0000
  C   C5481     1.0  0.84000  0.32582  0.62929  1.0000
  C   C5482     1.0  0.82951  0.34163  0.62393  1.0000
  C   C5483     1.0  0.81302  0.34167  0.62174  1.0000
  H   H4373     1.0  0.72213  0.34159  0.64383  1.0000
  H   H4374     1.0  0.72764  0.36026  0.65598  1.0000
  H   H4375     1.0  0.75829  0.36469  0.65304  1.0000
  H   H4376     1.0  0.78318  0.35045  0.63849  1.0000
  H   H4377     1.0  0.74695  0.32742  0.62882  1.0000
  H   H4378     1.0  0.76577  0.30259  0.64330  1.0000
  H   H4379     1.0  0.76469  0.27149  0.64701  1.0000
  C   C5484     1.0  0.96007  0.40453  0.49572  1.0000
  H   H4380     1.0  0.79984  0.26756  0.61103  1.0000
  H   H4381     1.0  0.80144  0.29883  0.60709  1.0000
  H   H4382     1.0  0.85275  0.32574  0.63104  1.0000
  H   H4383     1.0  0.83414  0.35383  0.62165  1.0000
  H   H4384     1.0  0.80501  0.35402  0.61760  1.0000
  H   H4385     1.0  0.75746  0.34807  0.60836  1.0000
  H   H4386     1.0  0.87617  0.42632  0.54231  1.0000
  H   H4387     1.0  0.93075  0.30923  0.66770  1.0000
  C   C5485     1.0  0.88282  0.33584  0.58347  1.0000
  H   H4388     1.0  0.94148  0.28896  0.62979  1.0000
  H   H4389     1.0  0.90995  0.25175  0.66735  1.0000
  C   C5486     1.0  0.93467  0.26351  0.63794  1.0000
  H   H4390     1.0  0.95297  0.38682  0.59731  1.0000
  H   H4391     1.0  0.92664  0.34175  0.66215  1.0000
  C   C5487     1.0  0.91722  0.25986  0.65934  1.0000
  H   H4392     1.0  0.92760  0.30051  0.64891  1.0000
  H   H4393     1.0  0.73309  0.29963  0.69667  1.0000
  C   C5488     1.0  0.99640  0.40852  0.55147  1.0000
  C   C5489     1.0  0.94162  0.31592  0.71640  1.0000
  C   C5490     1.0  0.91941  0.42346  0.60061  1.0000
  C   C5491     1.0  0.97549  0.42028  0.58663  1.0000
  C   C5492     1.0  0.95128  0.32618  0.70613  1.0000
  C   C5493     1.0  0.98512  0.42177  0.67268  1.0000
  H   H4394     1.0  0.93969  0.42069  0.56274  1.0000
  C   C5494     1.0  0.65888  0.30815  0.71893  1.0000
  C   C5495     1.0  0.65458  0.34019  0.71464  1.0000
  C   C5496     1.0  0.87219  0.32470  0.59204  1.0000
  H   H4395     1.0  0.95994  0.36511  0.56510  1.0000
  C   C5497     1.0  0.99719  0.25463  0.70207  1.0000
  H   H4396     1.0  0.76150  0.25980  0.70908  1.0000
  C   C5498     1.0  0.72387  0.29586  0.70548  1.0000
  C   C5499     1.0  0.84994  0.41446  0.60501  1.0000
  C   C5500     1.0  0.69530  0.28814  0.71674  1.0000
  H   H4397     1.0  0.92315  0.28477  0.71265  1.0000
  C   C5501     1.0  0.77015  0.34643  0.60170  1.0000
  H   H4398     1.0  0.97752  0.41825  0.57718  1.0000
  Fe  Fe362     1.0  0.94415  0.43448  0.52453  1.0000
  C   C5502     1.0  0.98318  0.43428  0.53196  1.0000
  C   C5503     1.0  0.81132  0.38664  0.58906  1.0000
  H   H4399     1.0  0.84189  0.26945  0.62221  1.0000
  H   H4400     1.0  0.89981  0.47311  0.56437  1.0000
  C   C5504     1.0  0.81269  0.24562  0.72680  1.0000
  H   H4401     1.0  0.80785  0.33263  0.71724  1.0000
  C   C5505     1.0  0.95612  0.42583  0.60648  1.0000
  C   C5506     1.0  0.98918  0.36362  0.62328  1.0000
  C   C5507     1.0  0.85381  0.33112  0.59573  1.0000
  C   C5508     1.0  0.87516  0.35347  0.57873  1.0000
  C   C5509     1.0  0.75714  0.24937  0.70710  1.0000
  C   C5510     1.0  0.95645  0.42658  0.68727  1.0000
  C   C5511     1.0  0.84606  0.34873  0.59095  1.0000
  C   C5512     1.0  0.85909  0.39683  0.60582  1.0000
  H   H4402     1.0  0.73905  0.26731  0.69576  1.0000
  C   C5513     1.0  0.84012  0.42270  0.59562  1.0000
  H   H4403     1.0  0.83168  0.41980  0.57991  1.0000
  C   C5514     1.0  0.68599  0.26985  0.69656  1.0000
  C   C5515     1.0  0.66500  0.32371  0.71259  1.0000
  C   C5516     1.0  0.89510  0.43796  0.61533  1.0000
  C   C5517     1.0  0.97059  0.43321  0.67858  1.0000
  H   H4404     1.0  0.97056  0.27336  0.63487  1.0000
  H   H4405     1.0  0.88043  0.28612  0.65918  1.0000
  C   C5518     1.0  0.84884  0.39560  0.58775  1.0000
  H   H4406     1.0  0.87425  0.25581  0.61708  1.0000
  H   H4407     1.0  0.81517  0.34116  0.57715  1.0000
  C   C5519     1.0  0.88546  0.32051  0.67052  1.0000
  C   C5520     1.0  0.68523  0.26575  0.68550  1.0000
  C   C5521     1.0  0.82370  0.38691  0.57745  1.0000
  H   H4408     1.0  0.88821  0.44961  0.61913  1.0000
  H   H4409     1.0  0.83313  0.43642  0.59492  1.0000
  C   C5522     1.0  0.90323  0.45246  0.48673  1.0000
  C   C5523     1.0  0.99454  0.34618  0.62962  1.0000
  H   H4410     1.0  0.81973  0.25067  0.63094  1.0000
  H   H4411     1.0  0.96931  0.30532  0.67975  1.0000
  H   H4412     1.0  0.97649  0.25013  0.67302  1.0000
  H   H4413     1.0  0.86673  0.39042  0.61305  1.0000
  C   C5524     1.0  0.69844  0.35620  0.71684  1.0000
  C   C5525     1.0  0.69050  0.37193  0.70937  1.0000
  C   C5526     1.0  0.69085  0.37279  0.69675  1.0000
  C   C5527     1.0  0.69920  0.35802  0.69145  1.0000
  C   C5528     1.0  0.70707  0.34233  0.69879  1.0000
  C   C5529     1.0  0.70651  0.34132  0.71148  1.0000
  C   C5530     1.0  0.65966  0.29347  0.69477  1.0000
  H   H4414     1.0  0.88412  0.40745  0.52671  1.0000
  H   H4415     1.0  0.77259  0.39734  0.57866  1.0000
  H   H4416     1.0  0.62120  0.24441  0.55221  1.0000
  C   C5531     1.0  0.93958  0.26305  0.70423  1.0000
  H   H4417     1.0  0.98262  0.29036  0.60568  1.0000
  H   H4418     1.0  0.65945  0.35212  0.70973  1.0000
  C   C5532     1.0  0.95602  0.37952  0.51313  1.0000
  C   C5533     1.0  0.97112  0.42477  0.61108  1.0000
  C   C5534     1.0  0.87680  0.27405  0.69113  1.0000
  C   C5535     1.0  0.88454  0.27961  0.67835  1.0000
  C   C5536     1.0  0.92668  0.47726  0.55950  1.0000
  C   C5537     1.0  0.97372  0.37095  0.50911  1.0000
  S   S731      1.0  0.93627  0.44746  0.54089  1.0000
  H   H4419     1.0  0.68418  0.38366  0.71315  1.0000
  H   H4420     1.0  0.68489  0.38503  0.69100  1.0000
  H   H4421     1.0  0.69980  0.35875  0.68160  1.0000
  H   H4422     1.0  0.71385  0.33106  0.69452  1.0000
  H   H4423     1.0  0.71281  0.32912  0.71703  1.0000
  H   H4424     1.0  0.73516  0.34652  0.71718  1.0000
  H   H4425     1.0  0.90508  0.29664  0.69637  1.0000
  H   H4426     1.0  0.97146  0.38297  0.68657  1.0000
  C   C5538     1.0  0.78683  0.39432  0.57833  1.0000
  C   C5539     1.0  0.81742  0.39088  0.56629  1.0000
  C   C5540     1.0  0.98127  0.29844  0.67433  1.0000
  H   H4427     1.0  0.78142  0.25387  0.63109  1.0000
  C   C5541     1.0  0.97136  0.26239  0.65442  1.0000
  C   C5542     1.0  0.91891  0.27637  0.68569  1.0000
  C   C5543     1.0  0.95822  0.42373  0.59416  1.0000
  C   C5544     1.0  0.98018  0.37629  0.66034  1.0000
  H   H4428     1.0  0.79427  0.39792  0.55808  1.0000
  H   H4429     1.0  0.89626  0.36086  0.66186  1.0000
  C   C5545     1.0  0.94559  0.40570  0.58077  1.0000
  H   H4430     1.0  0.84573  0.32251  0.60260  1.0000
  H   H4431     1.0  0.83191  0.35349  0.59419  1.0000
  C   C5546     1.0  0.78385  0.30128  0.72223  1.0000
  H   H4432     1.0  0.86613  0.37396  0.59791  1.0000
  C   C5547     1.0  0.89741  0.40748  0.61506  1.0000
  C   C5548     1.0  0.92588  0.27819  0.70493  1.0000
  H   H4433     1.0  0.76462  0.34789  0.71924  1.0000
  C   C5549     1.0  0.91720  0.45191  0.57454  1.0000
  C   C5550     1.0  0.94822  0.45407  0.56965  1.0000
  H   H4434     1.0  0.85053  0.42169  0.61163  1.0000
  H   H4435     1.0  0.88379  0.27277  0.69843  1.0000
  C   C5551     1.0  0.96548  0.29005  0.71386  1.0000
  C   C5552     1.0  0.91511  0.33581  0.66479  1.0000
  C   C5553     1.0  0.85864  0.38746  0.59721  1.0000
  H   H4436     1.0  0.81291  0.29781  0.63354  1.0000
  C   C5554     1.0  0.85931  0.39096  0.56117  1.0000
  C   C5555     1.0  0.91561  0.28485  0.69571  1.0000
  C   C5556     1.0  0.99197  0.25362  0.61209  1.0000
  C   C5557     1.0  0.78682  0.35225  0.58008  1.0000
  C   C5558     1.0  0.93493  0.28070  0.63810  1.0000
  H   H4437     1.0  0.67785  0.32314  0.70605  1.0000
  C   C5559     1.0  0.91268  0.40799  0.60533  1.0000
  C   C5560     1.0  0.70726  0.29326  0.70534  1.0000
  C   C5561     1.0  0.80258  0.34261  0.58400  1.0000
  H   H4438     1.0  0.82231  0.24855  0.70672  1.0000
  H   H4439     1.0  0.97125  0.48312  0.57871  1.0000
  C   C5562     1.0  0.94917  0.39624  0.50637  1.0000
  C   C5563     1.0  0.94293  0.25447  0.69434  1.0000
  C   C5564     1.0  0.63799  0.34124  0.72309  1.0000
  C   C5565     1.0  0.83395  0.31011  0.63264  1.0000
  C   C5566     1.0  0.85031  0.27213  0.68535  1.0000
  C   C5567     1.0  0.92680  0.28733  0.64899  1.0000
  C   C5568     1.0  0.99661  0.28932  0.65469  1.0000
  C   C5569     1.0  0.91045  0.43848  0.60566  1.0000
  C   C5570     1.0  0.91739  0.31738  0.66785  1.0000
  C   C5571     1.0  0.91768  0.27705  0.65966  1.0000
  H   H4440     1.0  0.97904  0.35806  0.51444  1.0000
  H   H4441     1.0  0.78352  0.39004  0.59848  1.0000
  C   C5572     1.0  0.65924  0.28963  0.68348  1.0000
  H   H4442     1.0  0.96967  0.30470  0.65798  1.0000
  P   P181      1.0  0.99705  0.29064  0.69521  1.0000
  P   P182      1.0  0.84727  0.38330  0.57703  1.0000
  H   H4443     1.0  0.84203  0.29792  0.63701  1.0000
  C   C5573     1.0  0.97524  0.30027  0.70351  1.0000
  H   H4444     1.0  0.81585  0.38387  0.59778  1.0000
  C   C5574     1.0  0.99238  0.31319  0.60438  1.0000
  H   H4445     1.0  0.94520  0.43548  0.69182  1.0000
  H   H4446     1.0  0.74137  0.29600  0.71700  1.0000
  C   C5575     1.0  0.98858  0.47649  0.56158  1.0000
  H   H4447     1.0  0.96150  0.36101  0.58745  1.0000
  H   H4448     1.0  0.96194  0.44876  0.57053  1.0000
  C   C5576     1.0  0.96809  0.31843  0.69976  1.0000
  Fe  Fe363     1.0  0.91336  0.45814  0.51293  1.0000
  H   H4449     1.0  0.98726  0.25768  0.69641  1.0000
  P   P183      1.0  0.90598  0.28572  0.67357  1.0000
  C   C5577     1.0  0.95211  0.38875  0.58759  1.0000
  C   C5578     1.0  0.95720  0.37413  0.58199  1.0000
  C   C5579     1.0  0.99252  0.29508  0.60804  1.0000
  C   C5580     1.0  0.90264  0.30957  0.67047  1.0000
  Fe  Fe364     1.0  0.93147  0.47297  0.52683  1.0000
  C   C5581     1.0  0.88322  0.33894  0.66760  1.0000
  H   H4450     1.0  0.86050  0.36745  0.55489  1.0000
  C   C5582     1.0  0.98248  0.34564  0.66046  1.0000
  H   H4451     1.0  0.98771  0.25623  0.58229  1.0000
  C   C5583     1.0  0.87707  0.40287  0.53626  1.0000
  C   C5584     1.0  0.88862  0.42242  0.62005  1.0000
  H   H4452     1.0  0.94305  0.42799  0.61264  1.0000
  C   C5585     1.0  0.80212  0.33472  0.59675  1.0000
  C   C5586     1.0  0.98136  0.29808  0.66199  1.0000
  P   P184      1.0  0.67293  0.28690  0.71660  1.0000
  H   H4453     1.0  0.94579  0.34018  0.70315  1.0000
  H   H4454     1.0  0.98755  0.32086  0.63745  1.0000
  C   C5587     1.0  0.95028  0.39331  0.56250  1.0000
  P   P185      1.0  0.93922  0.42446  0.58809  1.0000
  Fe  Fe365     1.0  0.90856  0.44576  0.54136  1.0000
  S   S732      1.0  0.94178  0.46005  0.51022  1.0000
  C   C5588     1.0  0.86379  0.38035  0.55225  1.0000
  C   C5589     1.0  0.79904  0.39459  0.56675  1.0000
  H   H4455     1.0  0.97079  0.27610  0.71712  1.0000
  H   H4456     1.0  0.87828  0.31124  0.59608  1.0000
  C   C5590     1.0  0.87271  0.38626  0.53987  1.0000
  H   H4457     1.0  0.96215  0.36718  0.65360  1.0000
  H   H4458     1.0  0.91531  0.45063  0.60206  1.0000
  C   C5591     1.0  0.99563  0.37153  0.66532  1.0000
  H   H4459     1.0  0.97774  0.44439  0.52461  1.0000
  C   C5592     1.0  0.79469  0.31339  0.71570  1.0000
  C   C5593     1.0  0.97367  0.36338  0.65789  1.0000
  H   H4460     1.0  0.89233  0.39547  0.61873  1.0000
  H   H4461     1.0  0.93555  0.25413  0.67757  1.0000
  C   C5594     1.0  0.85670  0.36008  0.58242  1.0000
  C   C5595     1.0  0.72859  0.29377  0.71691  1.0000
  H   H4462     1.0  0.87635  0.37795  0.53307  1.0000
  H   H4463     1.0  0.88379  0.36205  0.57249  1.0000
  H   H4464     1.0  0.81442  0.32703  0.59957  1.0000
  C   C5596     1.0  0.73592  0.35134  0.72502  1.0000
  C   C5597     1.0  0.79297  0.39022  0.58949  1.0000
  H   H4465     1.0  0.78717  0.35826  0.57018  1.0000
  C   C5598     1.0  0.87250  0.41356  0.54502  1.0000
  C   C5599     1.0  0.74438  0.25366  0.69973  1.0000
  C   C5600     1.0  0.63165  0.32586  0.72929  1.0000
  H   H4466     1.0  0.96954  0.42604  0.62065  1.0000
  C   C5601     1.0  0.97192  0.24350  0.59935  1.0000
  C   C5602     1.0  0.99037  0.41950  0.59119  1.0000
  H   H4467     1.0  0.83702  0.26945  0.68801  1.0000
  H   H4468     1.0  0.91521  0.40833  0.48700  1.0000
  C   C5603     1.0  0.99785  0.34077  0.66540  1.0000
  H   H4469     1.0  0.85053  0.27938  0.66544  1.0000
  H   H4470     1.0  0.94755  0.25787  0.71137  1.0000
  C   C5604     1.0  0.98344  0.45137  0.49222  1.0000
  H   H4471     1.0  0.99521  0.45171  0.53687  1.0000
  H   H4472     1.0  0.92777  0.25199  0.60791  1.0000
  H   H4473     1.0  0.92370  0.48957  0.55275  1.0000
  H   H4474     1.0  0.69632  0.26194  0.70158  1.0000
  C   C5605     1.0  0.98478  0.43413  0.49120  1.0000
  C   C5606     1.0  0.67197  0.27571  0.67889  1.0000
  H   H4475     1.0  0.98176  0.45419  0.50138  1.0000
  H   H4476     1.0  0.71112  0.24514  0.71916  1.0000
  C   C5607     1.0  0.70027  0.28599  0.72817  1.0000
  H   H4477     1.0  0.95773  0.26884  0.65786  1.0000
  C   C5608     1.0  0.98193  0.25202  0.66296  1.0000
  H   H4478     1.0  0.94079  0.25847  0.62945  1.0000
  H   H4479     1.0  0.85370  0.26612  0.70447  1.0000
  H   H4480     1.0  0.94138  0.29000  0.72839  1.0000
  H   H4481     1.0  0.99590  0.42722  0.66602  1.0000
  H   H4482     1.0  0.81609  0.25205  0.68197  1.0000
  C   C5609     1.0  0.98556  0.40356  0.67542  1.0000
  H   H4483     1.0  0.69486  0.25473  0.68208  1.0000
  H   H4484     1.0  0.95468  0.41770  0.49082  1.0000
  C   C5610     1.0  0.98465  0.37917  0.49840  1.0000
  C   C5611     1.0  0.83408  0.25234  0.66380  1.0000
  C   C5612     1.0  0.66064  0.25525  0.72531  1.0000
  H   H4485     1.0  0.99984  0.42074  0.60695  1.0000
  C   C5613     1.0  0.66445  0.26919  0.72870  1.0000
  C   C5614     1.0  0.99626  0.25653  0.63690  1.0000
  H   H4486     1.0  0.63649  0.29775  0.73179  1.0000
  C   C5615     1.0  0.71667  0.28912  0.72823  1.0000
  H   H4487     1.0  0.80172  0.25704  0.72585  1.0000
  H   H4488     1.0  0.95352  0.24266  0.69384  1.0000
  H   H4489     1.0  0.73591  0.24540  0.66708  1.0000
  C   C5616     1.0  0.89875  0.24219  0.63584  1.0000
  H   H4490     1.0  0.79210  0.24683  0.66982  1.0000
  C   C5617     1.0  0.84982  0.24363  0.65693  1.0000
  C   C5618     1.0  0.83378  0.24446  0.62880  1.0000
  C   C5619     1.0  0.97877  0.24402  0.61887  1.0000
  C   C5620     1.0  0.82444  0.24090  0.71593  1.0000
  H   H4491     1.0  0.99797  0.35859  0.58161  1.0000
  C   C5621     1.0  0.99975  0.24429  0.65851  1.0000
  H   H4492     1.0  0.99837  0.37241  0.49555  1.0000
  C   C5622     1.0  0.99951  0.42558  0.54877  1.0000
  H   H4493     1.0  0.97617  0.24037  0.62904  1.0000
  Fe  Fe366     1.0  0.93896  0.42515  0.91385  1.0000
  S   S733      1.0  0.91411  0.41448  0.92305  1.0000
  S   S734      1.0  0.96654  0.40791  0.91463  1.0000
  Fe  Fe367     1.0  0.91783  0.46267  0.90530  1.0000
  S   S735      1.0  0.89149  0.45475  0.91356  1.0000
  C   C5623     1.0  0.97635  0.43946  0.90889  1.0000
  Fe  Fe368     1.0  0.90381  0.43974  0.93027  1.0000
  Fe  Fe369     1.0  0.90410  0.43044  0.90553  1.0000
  S   S736      1.0  0.89475  0.42009  0.89209  1.0000
  S   S737      1.0  0.92943  0.44907  0.92236  1.0000
  S   S738      1.0  0.92983  0.43959  0.89593  1.0000
  Fe  Fe370     1.0  0.64172  0.41264  0.82899  1.0000
  S   S739      1.0  0.64479  0.43858  0.81547  1.0000
  S   S740      1.0  0.62466  0.39336  0.83035  1.0000
  Fe  Fe371     1.0  0.66945  0.41369  0.84310  1.0000
  S   S741      1.0  0.67505  0.43939  0.83077  1.0000
  S   S742      1.0  0.68121  0.39689  0.85974  1.0000
  Fe  Fe372     1.0  0.64529  0.44796  0.83243  1.0000
  H   H4494     1.0  0.68586  0.28431  0.79364  1.0000
  Fe  Fe373     1.0  0.67421  0.42814  0.81484  1.0000
  S   S743      1.0  0.69504  0.43153  0.79678  1.0000
  S   S744      1.0  0.63957  0.42296  0.84610  1.0000
  S   S745      1.0  0.67124  0.40148  0.82708  1.0000
  Fe  Fe374     1.0  0.57825  0.33400  0.78507  1.0000
  S   S746      1.0  0.58332  0.34159  0.80137  1.0000
  S   S747      1.0  0.59812  0.31632  0.77268  1.0000
  Fe  Fe375     1.0  0.54001  0.35609  0.78784  1.0000
  S   S748      1.0  0.54202  0.36607  0.80404  1.0000
  S   S749      1.0  0.51576  0.36278  0.77920  1.0000
  Fe  Fe376     1.0  0.56973  0.36909  0.79315  1.0000
  S   S750      1.0  0.58178  0.39288  0.79035  1.0000
  Fe  Fe377     1.0  0.55544  0.33789  0.81088  1.0000
  S   S751      1.0  0.54544  0.32412  0.83075  1.0000
  S   S752      1.0  0.56641  0.36177  0.77614  1.0000
  S   S753      1.0  0.55170  0.32774  0.79541  1.0000
  Fe  Fe378     1.0  0.78429  0.33470  0.76361  1.0000
  S   S754      1.0  0.79705  0.32538  0.78050  1.0000
  S   S755      1.0  0.79933  0.33393  0.74351  1.0000
  Fe  Fe379     1.0  0.74772  0.34715  0.77913  1.0000
  S   S756      1.0  0.75678  0.33820  0.79740  1.0000
  S   S757      1.0  0.71911  0.35959  0.77854  1.0000
  Fe  Fe380     1.0  0.78030  0.35036  0.78668  1.0000
  S   S758      1.0  0.78610  0.37206  0.79335  1.0000
  Fe  Fe381     1.0  0.77250  0.31408  0.78990  1.0000
  S   S759      1.0  0.76997  0.36081  0.76872  1.0000
  S   S760      1.0  0.76090  0.32184  0.77272  1.0000
  Fe  Fe382     1.0  0.77284  0.40827  0.86867  1.0000
  S   S761      1.0  0.78042  0.41680  0.84768  1.0000
  S   S762      1.0  0.74642  0.40174  0.87997  1.0000
  Fe  Fe383     1.0  0.80958  0.40891  0.87275  1.0000
  S   S763      1.0  0.82038  0.41689  0.85182  1.0000
  S   S764      1.0  0.82038  0.40682  0.89002  1.0000
  Fe  Fe384     1.0  0.79362  0.43550  0.85160  1.0000
  S   S765      1.0  0.79052  0.46422  0.84181  1.0000
  Fe  Fe385     1.0  0.80635  0.39733  0.84959  1.0000
  S   S766      1.0  0.81941  0.37803  0.83656  1.0000
  S   S767      1.0  0.78361  0.42877  0.87248  1.0000
  S   S768      1.0  0.79801  0.38757  0.87059  1.0000
  H   H4495     1.0  0.85884  0.44466  0.93595  1.0000
  C   C5624     1.0  0.95552  0.41176  0.94809  1.0000
  C   C5625     1.0  0.74137  0.25767  0.74992  1.0000
  C   C5626     1.0  0.81836  0.48295  0.80121  1.0000
  C   C5627     1.0  0.77756  0.24935  0.75108  1.0000
  C   C5628     1.0  0.80756  0.46571  0.85937  1.0000
  C   C5629     1.0  0.50865  0.28866  0.80809  1.0000
  C   C5630     1.0  0.70422  0.31861  0.79141  1.0000
  H   H4496     1.0  0.82058  0.46691  0.87334  1.0000
  H   H4497     1.0  0.81180  0.45149  0.86071  1.0000
  C   C5631     1.0  0.79327  0.37063  0.80721  1.0000
  C   C5632     1.0  0.80955  0.35965  0.80950  1.0000
  C   C5633     1.0  0.81712  0.36172  0.81880  1.0000
  C   C5634     1.0  0.80836  0.37455  0.82603  1.0000
  C   C5635     1.0  0.79153  0.38476  0.82429  1.0000
  C   C5636     1.0  0.78421  0.38307  0.81474  1.0000
  H   H4498     1.0  0.81687  0.35033  0.80358  1.0000
  H   H4499     1.0  0.83012  0.35372  0.82010  1.0000
  H   H4500     1.0  0.78452  0.39452  0.82988  1.0000
  H   H4501     1.0  0.77176  0.39185  0.81291  1.0000
  H   H4502     1.0  0.65088  0.25365  0.84796  1.0000
  C   C5637     1.0  0.98136  0.42125  0.91329  1.0000
  H   H4503     1.0  0.79870  0.35819  0.85968  1.0000
  C   C5638     1.0  0.75440  0.35811  0.73616  1.0000
  C   C5639     1.0  0.87663  0.48130  0.82847  1.0000
  H   H4504     1.0  0.66501  0.30753  0.74734  1.0000
  C   C5640     1.0  0.51012  0.40096  0.87113  1.0000
  H   H4505     1.0  0.94167  0.44439  0.96283  1.0000
  H   H4506     1.0  0.79468  0.25638  0.77552  1.0000
  H   H4507     1.0  0.58373  0.31143  0.82599  1.0000
  C   C5641     1.0  0.53614  0.41188  0.80318  1.0000
  H   H4508     1.0  0.55546  0.26183  0.85228  1.0000
  H   H4509     1.0  0.97358  0.47265  0.93009  1.0000
  H   H4510     1.0  0.88510  0.47659  0.82023  1.0000
  H   H4511     1.0  0.92347  0.31840  0.98117  1.0000
  H   H4512     1.0  0.50732  0.34542  0.80558  1.0000
  C   C5642     1.0  0.69962  0.30815  0.75929  1.0000
  P   P186      1.0  0.51361  0.28296  0.79292  1.0000
  H   H4513     1.0  0.60488  0.25513  0.73663  1.0000
  C   C5643     1.0  0.70110  0.41231  0.79077  1.0000
  C   C5644     1.0  0.69030  0.39993  0.79520  1.0000
  C   C5645     1.0  0.69599  0.38374  0.79144  1.0000
  C   C5646     1.0  0.71250  0.37985  0.78323  1.0000
  C   C5647     1.0  0.72325  0.39235  0.77858  1.0000
  C   C5648     1.0  0.71740  0.40871  0.78222  1.0000
  H   H4514     1.0  0.67737  0.40292  0.80135  1.0000
  H   H4515     1.0  0.68749  0.37428  0.79490  1.0000
  H   H4516     1.0  0.73591  0.38950  0.77208  1.0000
  H   H4517     1.0  0.72566  0.41840  0.77869  1.0000
  C   C5649     1.0  0.69967  0.39934  0.86448  1.0000
  C   C5650     1.0  0.71225  0.40916  0.85663  1.0000
  C   C5651     1.0  0.72713  0.40968  0.86101  1.0000
  C   C5652     1.0  0.72907  0.40083  0.87333  1.0000
  C   C5653     1.0  0.71642  0.39121  0.88105  1.0000
  C   C5654     1.0  0.70201  0.39027  0.87660  1.0000
  H   H4518     1.0  0.71064  0.41613  0.84720  1.0000
  H   H4519     1.0  0.73689  0.41713  0.85500  1.0000
  H   H4520     1.0  0.71779  0.38436  0.89055  1.0000
  H   H4521     1.0  0.69245  0.38262  0.88270  1.0000
  C   C5655     1.0  0.61239  0.39422  0.81916  1.0000
  C   C5656     1.0  0.61109  0.40801  0.80851  1.0000
  C   C5657     1.0  0.60161  0.40759  0.79971  1.0000
  C   C5658     1.0  0.59360  0.39330  0.80145  1.0000
  C   C5659     1.0  0.59486  0.37967  0.81212  1.0000
  C   C5660     1.0  0.60374  0.38040  0.82108  1.0000
  H   H4522     1.0  0.61734  0.41896  0.80707  1.0000
  H   H4523     1.0  0.60058  0.41830  0.79152  1.0000
  H   H4524     1.0  0.58886  0.36859  0.81351  1.0000
  H   H4525     1.0  0.60391  0.37018  0.82957  1.0000
  H   H4526     1.0  0.70903  0.33901  0.89137  1.0000
  H   H4527     1.0  0.74645  0.28964  0.78915  1.0000
  C   C5661     1.0  0.77047  0.43840  0.77465  1.0000
  C   C5662     1.0  0.64135  0.28076  0.79324  1.0000
  C   C5663     1.0  0.64358  0.28194  0.78032  1.0000
  C   C5664     1.0  0.63012  0.29268  0.77398  1.0000
  C   C5665     1.0  0.61451  0.30214  0.78062  1.0000
  C   C5666     1.0  0.61219  0.30050  0.79358  1.0000
  C   C5667     1.0  0.62566  0.28999  0.79985  1.0000
  H   H4528     1.0  0.65567  0.27470  0.77523  1.0000
  H   H4529     1.0  0.63185  0.29381  0.76397  1.0000
  H   H4530     1.0  0.59988  0.30706  0.79885  1.0000
  H   H4531     1.0  0.70169  0.35242  0.84722  1.0000
  H   H4532     1.0  0.83828  0.45939  0.90853  1.0000
  S   S769      1.0  0.59378  0.24969  0.84911  1.0000
  C   C5668     1.0  0.61787  0.24681  0.80672  1.0000
  H   H4533     1.0  0.76261  0.27995  0.83151  1.0000
  H   H4534     1.0  0.77709  0.30783  0.75184  1.0000
  C   C5669     1.0  0.93534  0.35755  0.97722  1.0000
  C   C5670     1.0  0.87333  0.41805  0.89162  1.0000
  C   C5671     1.0  0.87032  0.41733  0.88006  1.0000
  C   C5672     1.0  0.85398  0.41449  0.87932  1.0000
  C   C5673     1.0  0.84061  0.41189  0.89022  1.0000
  C   C5674     1.0  0.84352  0.41284  0.90176  1.0000
  C   C5675     1.0  0.85973  0.41606  0.90246  1.0000
  H   H4535     1.0  0.88080  0.41877  0.87164  1.0000
  H   H4536     1.0  0.85193  0.41376  0.87039  1.0000
  H   H4537     1.0  0.83325  0.41082  0.91024  1.0000
  H   H4538     1.0  0.86194  0.41646  0.91141  1.0000
  C   C5676     1.0  0.53205  0.24958  0.80303  1.0000
  C   C5677     1.0  0.79717  0.47531  0.85054  1.0000
  H   H4539     1.0  0.50828  0.28142  0.76876  1.0000
  C   C5678     1.0  0.74445  0.47645  0.85615  1.0000
  C   C5679     1.0  0.60452  0.24801  0.74633  1.0000
  H   H4540     1.0  0.86716  0.48025  0.95308  1.0000
  P   P187      1.0  0.80052  0.24273  0.75280  1.0000
  H   H4541     1.0  0.89090  0.48153  0.96264  1.0000
  C   C5680     1.0  0.68200  0.37327  0.73859  1.0000
  H   H4542     1.0  0.85676  0.48001  0.90797  1.0000
  H   H4543     1.0  0.59760  0.25562  0.77561  1.0000
  C   C5681     1.0  0.73545  0.46499  0.78593  1.0000
  H   H4544     1.0  0.76026  0.47422  0.86949  1.0000
  H   H4545     1.0  0.74057  0.36762  0.75307  1.0000
  H   H4546     1.0  0.80825  0.42022  0.82286  1.0000
  C   C5682     1.0  0.86804  0.48284  0.88806  1.0000
  H   H4547     1.0  0.73552  0.45261  0.78385  1.0000
  H   H4548     1.0  0.51059  0.40309  0.83809  1.0000
  H   H4549     1.0  0.81463  0.40666  0.80448  1.0000
  C   C5683     1.0  0.75051  0.48512  0.78935  1.0000
  H   H4550     1.0  0.70723  0.30045  0.76635  1.0000
  H   H4551     1.0  0.98161  0.46116  0.95219  1.0000
  H   H4552     1.0  0.62982  0.24838  0.80873  1.0000
  C   C5684     1.0  0.66036  0.26978  0.74155  1.0000
  C   C5685     1.0  0.51900  0.25905  0.79599  1.0000
  H   H4553     1.0  0.51241  0.44359  0.86798  1.0000
  H   H4554     1.0  0.77378  0.43130  0.74553  1.0000
  H   H4555     1.0  0.96758  0.48795  0.86882  1.0000
  C   C5686     1.0  0.68020  0.32787  0.74090  1.0000
  C   C5687     1.0  0.80667  0.26120  0.75552  1.0000
  H   H4556     1.0  0.94844  0.47247  0.84764  1.0000
  H   H4557     1.0  0.64375  0.41051  0.78942  1.0000
  C   C5688     1.0  0.51207  0.30588  0.82157  1.0000
  C   C5689     1.0  0.77918  0.44567  0.90104  1.0000
  C   C5690     1.0  0.84720  0.45967  0.88868  1.0000
  C   C5691     1.0  0.70120  0.48853  0.84453  1.0000
  C   C5692     1.0  0.98743  0.45046  0.90841  1.0000
  S   S770      1.0  0.63087  0.47494  0.83650  1.0000
  C   C5693     1.0  0.50867  0.24973  0.79301  1.0000
  C   C5694     1.0  0.70335  0.47317  0.92982  1.0000
  H   H4558     1.0  0.71442  0.32860  0.75343  1.0000
  C   C5695     1.0  0.54937  0.28419  0.78099  1.0000
  H   H4559     1.0  0.57680  0.28636  0.77282  1.0000
  C   C5696     1.0  0.56168  0.27262  0.84663  1.0000
  H   H4560     1.0  0.65928  0.48015  0.85380  1.0000
  H   H4561     1.0  0.63812  0.32838  0.75672  1.0000
  H   H4562     1.0  0.77926  0.43185  0.90203  1.0000
  H   H4563     1.0  0.75073  0.45392  0.90398  1.0000
  C   C5697     1.0  0.69039  0.34602  0.87917  1.0000
  C   C5698     1.0  0.68669  0.29779  0.79271  1.0000
  C   C5699     1.0  0.67153  0.31157  0.79189  1.0000
  C   C5700     1.0  0.67278  0.32908  0.79054  1.0000
  C   C5701     1.0  0.68903  0.33231  0.79090  1.0000
  P   P188      1.0  0.65313  0.34683  0.79043  1.0000
  C   C5702     1.0  0.63941  0.34717  0.78001  1.0000
  C   C5703     1.0  0.64076  0.34391  0.80653  1.0000
  C   C5704     1.0  0.62657  0.33511  0.81038  1.0000
  C   C5705     1.0  0.61789  0.33163  0.82310  1.0000
  C   C5706     1.0  0.62344  0.33677  0.83202  1.0000
  C   C5707     1.0  0.63742  0.34573  0.82821  1.0000
  C   C5708     1.0  0.64619  0.34914  0.81552  1.0000
  C   C5709     1.0  0.64493  0.33599  0.77143  1.0000
  C   C5710     1.0  0.78840  0.44244  0.81587  1.0000
  C   C5711     1.0  0.61846  0.35034  0.76283  1.0000
  C   C5712     1.0  0.61309  0.36168  0.77120  1.0000
  C   C5713     1.0  0.62341  0.36001  0.77983  1.0000
  C   C5714     1.0  0.65870  0.36832  0.78476  1.0000
  C   C5715     1.0  0.64806  0.38269  0.79002  1.0000
  C   C5716     1.0  0.67655  0.38805  0.76951  1.0000
  C   C5717     1.0  0.67275  0.37120  0.77428  1.0000
  H   H4564     1.0  0.65886  0.30851  0.79246  1.0000
  H   H4565     1.0  0.74962  0.48751  0.84974  1.0000
  H   H4566     1.0  0.62238  0.33065  0.80363  1.0000
  H   H4567     1.0  0.60691  0.32491  0.82602  1.0000
  H   H4568     1.0  0.61657  0.33430  0.84184  1.0000
  H   H4569     1.0  0.64110  0.35054  0.83502  1.0000
  H   H4570     1.0  0.65708  0.35600  0.81273  1.0000
  H   H4571     1.0  0.65733  0.32621  0.77120  1.0000
  H   H4572     1.0  0.79895  0.42103  0.78706  1.0000
  C   C5718     1.0  0.76306  0.45832  0.90193  1.0000
  H   H4573     1.0  0.60081  0.37171  0.77113  1.0000
  H   H4574     1.0  0.61894  0.36888  0.78631  1.0000
  C   C5719     1.0  0.75536  0.31012  0.84945  1.0000
  H   H4575     1.0  0.68098  0.36040  0.76991  1.0000
  C   C5720     1.0  0.82066  0.28655  0.74780  1.0000
  H   H4576     1.0  0.76651  0.48673  0.76258  1.0000
  C   C5721     1.0  0.68566  0.30216  0.75769  1.0000
  C   C5722     1.0  0.58580  0.25502  0.80862  1.0000
  C   C5723     1.0  0.99787  0.41399  0.91692  1.0000
  P   P189      1.0  0.99163  0.46832  0.97336  1.0000
  H   H4577     1.0  0.72737  0.26051  0.74969  1.0000
  C   C5724     1.0  0.58032  0.27020  0.84365  1.0000
  H   H4578     1.0  0.86632  0.47375  0.93194  1.0000
  C   C5725     1.0  0.87319  0.48730  0.84910  1.0000
  C   C5726     1.0  0.51532  0.30216  0.80966  1.0000
  C   C5727     1.0  0.81253  0.47449  0.86656  1.0000
  C   C5728     1.0  0.50651  0.41761  0.87396  1.0000
  H   H4579     1.0  0.69157  0.28197  0.73708  1.0000
  H   H4580     1.0  0.85229  0.48645  0.82190  1.0000
  C   C5729     1.0  0.89999  0.44366  0.96083  1.0000
  C   C5730     1.0  0.72260  0.34113  0.87184  1.0000
  C   C5731     1.0  0.51432  0.25507  0.74974  1.0000
  H   H4581     1.0  0.76748  0.35860  0.73703  1.0000
  C   C5732     1.0  0.51853  0.40975  0.80619  1.0000
  C   C5733     1.0  0.85815  0.48683  0.82941  1.0000
  H   H4582     1.0  0.78544  0.44817  0.82403  1.0000
  C   C5734     1.0  0.95467  0.48076  0.97468  1.0000
  C   C5735     1.0  0.89476  0.38504  0.95146  1.0000
  H   H4583     1.0  0.99732  0.44172  0.93746  1.0000
  H   H4584     1.0  0.91507  0.48405  0.92220  1.0000
  H   H4585     1.0  0.81916  0.46997  0.79974  1.0000
  C   C5736     1.0  0.81595  0.28988  0.75993  1.0000
  C   C5737     1.0  0.77927  0.45066  0.80609  1.0000
  H   H4586     1.0  0.54345  0.41376  0.79344  1.0000
  H   H4587     1.0  0.71686  0.32142  0.79124  1.0000
  H   H4588     1.0  0.69817  0.47292  0.93978  1.0000
  H   H4589     1.0  0.53401  0.43747  0.84858  1.0000
  H   H4590     1.0  0.52501  0.38438  0.85807  1.0000
  C   C5738     1.0  0.70371  0.32415  0.75185  1.0000
  C   C5739     1.0  0.78299  0.44316  0.79554  1.0000
  C   C5740     1.0  0.79048  0.34480  0.84889  1.0000
  C   C5741     1.0  0.69406  0.33410  0.74253  1.0000
  H   H4591     1.0  0.80785  0.44098  0.89795  1.0000
  C   C5742     1.0  0.75132  0.46893  0.78651  1.0000
  C   C5743     1.0  0.50181  0.29645  0.83195  1.0000
  H   H4592     1.0  0.70694  0.47404  0.78751  1.0000
  C   C5744     1.0  0.56286  0.29301  0.77353  1.0000
  C   C5745     1.0  0.81810  0.46783  0.94845  1.0000
  C   C5746     1.0  0.80208  0.26459  0.76771  1.0000
  C   C5747     1.0  0.96145  0.33324  0.97620  1.0000
  C   C5748     1.0  0.87743  0.40386  0.96597  1.0000
  P   P190      1.0  0.77281  0.45452  0.78217  1.0000
  C   C5749     1.0  0.69060  0.31812  0.83171  1.0000
  C   C5750     1.0  0.70349  0.32158  0.82059  1.0000
  P   P191      1.0  0.68945  0.29580  0.84025  1.0000
  C   C5751     1.0  0.70824  0.27966  0.83400  1.0000
  C   C5752     1.0  0.68924  0.29586  0.85632  1.0000
  C   C5753     1.0  0.70269  0.30197  0.85868  1.0000
  C   C5754     1.0  0.70246  0.30290  0.87091  1.0000
  C   C5755     1.0  0.68852  0.29821  0.88086  1.0000
  C   C5756     1.0  0.67480  0.29261  0.87856  1.0000
  C   C5757     1.0  0.67506  0.29153  0.86633  1.0000
  C   C5758     1.0  0.70763  0.27379  0.82350  1.0000
  C   C5759     1.0  0.81014  0.48965  0.75429  1.0000
  H   H4593     1.0  0.50542  0.27710  0.86680  1.0000
  H   H4594     1.0  0.89845  0.47692  0.83744  1.0000
  C   C5760     1.0  0.72263  0.27161  0.84006  1.0000
  C   C5761     1.0  0.67030  0.28944  0.83858  1.0000
  C   C5762     1.0  0.66130  0.29912  0.82888  1.0000
  C   C5763     1.0  0.64871  0.29239  0.82613  1.0000
  C   C5764     1.0  0.64478  0.27615  0.83311  1.0000
  C   C5765     1.0  0.65363  0.26646  0.84279  1.0000
  C   C5766     1.0  0.66656  0.27291  0.84538  1.0000
  H   H4595     1.0  0.71252  0.31088  0.81647  1.0000
  H   H4596     1.0  0.71333  0.30616  0.85101  1.0000
  H   H4597     1.0  0.71295  0.30754  0.87263  1.0000
  H   H4598     1.0  0.68824  0.29917  0.89032  1.0000
  H   H4599     1.0  0.66381  0.28930  0.88625  1.0000
  H   H4600     1.0  0.66398  0.28774  0.86476  1.0000
  H   H4601     1.0  0.69664  0.27957  0.81869  1.0000
  H   H4602     1.0  0.82728  0.29552  0.74003  1.0000
  C   C5767     1.0  0.51517  0.43069  0.86578  1.0000
  H   H4603     1.0  0.66460  0.31138  0.82299  1.0000
  H   H4604     1.0  0.64247  0.29941  0.81824  1.0000
  H   H4605     1.0  0.63532  0.27080  0.83075  1.0000
  C   C5768     1.0  0.66499  0.37091  0.74568  1.0000
  H   H4606     1.0  0.67412  0.26471  0.85236  1.0000
  C   C5769     1.0  0.58866  0.42928  0.83345  1.0000
  C   C5770     1.0  0.58386  0.44562  0.82549  1.0000
  C   C5771     1.0  0.56808  0.44973  0.82111  1.0000
  C   C5772     1.0  0.55712  0.43748  0.82471  1.0000
  C   C5773     1.0  0.56207  0.42080  0.83249  1.0000
  C   C5774     1.0  0.57791  0.41687  0.83690  1.0000
  P   P192      1.0  0.54712  0.40558  0.83775  1.0000
  C   C5775     1.0  0.53555  0.40791  0.82544  1.0000
  C   C5776     1.0  0.55896  0.38278  0.84160  1.0000
  C   C5777     1.0  0.56013  0.37077  0.83426  1.0000
  C   C5778     1.0  0.56847  0.35298  0.83771  1.0000
  C   C5779     1.0  0.57551  0.34693  0.84856  1.0000
  C   C5780     1.0  0.57433  0.35873  0.85596  1.0000
  C   C5781     1.0  0.56597  0.37655  0.85256  1.0000
  C   C5782     1.0  0.54465  0.41088  0.81276  1.0000
  H   H4607     1.0  0.95576  0.41815  0.93827  1.0000
  H   H4608     1.0  0.74720  0.25180  0.84034  1.0000
  C   C5783     1.0  0.53118  0.41043  0.85187  1.0000
  C   C5784     1.0  0.72395  0.48231  0.91021  1.0000
  H   H4609     1.0  0.52560  0.26132  0.74525  1.0000
  C   C5785     1.0  0.97981  0.48672  0.87179  1.0000
  P   P193      1.0  0.88253  0.48675  0.86216  1.0000
  C   C5786     1.0  0.73514  0.25203  0.82541  1.0000
  H   H4610     1.0  0.60099  0.42604  0.83677  1.0000
  H   H4611     1.0  0.59245  0.45503  0.82269  1.0000
  H   H4612     1.0  0.56436  0.46242  0.81493  1.0000
  H   H4613     1.0  0.54479  0.44105  0.82140  1.0000
  H   H4614     1.0  0.58230  0.40419  0.84281  1.0000
  H   H4615     1.0  0.55476  0.37498  0.82581  1.0000
  H   H4616     1.0  0.58173  0.33307  0.85124  1.0000
  H   H4617     1.0  0.57977  0.35406  0.86440  1.0000
  H   H4618     1.0  0.56486  0.38545  0.85854  1.0000
  H   H4619     1.0  0.55848  0.41205  0.81026  1.0000
  C   C5787     1.0  0.71722  0.48188  0.92314  1.0000
  C   C5788     1.0  0.52240  0.39736  0.86014  1.0000
  H   H4620     1.0  0.53927  0.25648  0.80628  1.0000
  C   C5789     1.0  0.60122  0.25700  0.81122  1.0000
  C   C5790     1.0  0.99458  0.45290  0.95330  1.0000
  C   C5791     1.0  0.90868  0.37992  0.95793  1.0000
  H   H4621     1.0  0.76894  0.26654  0.76442  1.0000
  C   C5792     1.0  0.74708  0.30656  0.82786  1.0000
  H   H4622     1.0  0.63683  0.38091  0.79785  1.0000
  C   C5793     1.0  0.77515  0.25304  0.80117  1.0000
  H   H4623     1.0  0.51341  0.31869  0.77777  1.0000
  C   C5794     1.0  0.54059  0.31979  0.76882  1.0000
  C   C5795     1.0  0.65572  0.40213  0.74597  1.0000
  C   C5796     1.0  0.79546  0.46854  0.89736  1.0000
  H   H4624     1.0  0.83943  0.45041  0.88894  1.0000
  C   C5797     1.0  0.73922  0.36321  0.74519  1.0000
  H   H4625     1.0  0.80277  0.28165  0.77926  1.0000
  H   H4626     1.0  0.92090  0.37103  0.95446  1.0000
  C   C5798     1.0  0.68740  0.47959  0.84677  1.0000
  C   C5799     1.0  0.86841  0.47818  0.87687  1.0000
  H   H4627     1.0  0.63893  0.38335  0.75500  1.0000
  C   C5800     1.0  0.77945  0.48129  0.89784  1.0000
  H   H4628     1.0  0.83139  0.47109  0.76245  1.0000
  H   H4629     1.0  0.81179  0.45215  0.77726  1.0000
  H   H4630     1.0  0.68231  0.28991  0.76360  1.0000
  C   C5801     1.0  0.52744  0.42715  0.85476  1.0000
  C   C5802     1.0  0.79580  0.42720  0.79504  1.0000
  H   H4631     1.0  0.89464  0.44878  0.87141  1.0000
  C   C5803     1.0  0.67593  0.31206  0.74852  1.0000
  C   C5804     1.0  0.84658  0.46471  0.89971  1.0000
  H   H4632     1.0  0.52297  0.30991  0.80175  1.0000
  H   H4633     1.0  0.76926  0.28277  0.85108  1.0000
  H   H4634     1.0  0.71088  0.36590  0.75151  1.0000
  C   C5805     1.0  0.90447  0.47228  0.86088  1.0000
  H   H4635     1.0  0.66268  0.28044  0.74451  1.0000
  C   C5806     1.0  0.52711  0.31113  0.77636  1.0000
  C   C5807     1.0  0.79537  0.45078  0.89876  1.0000
  C   C5808     1.0  0.85280  0.47222  0.93653  1.0000
  C   C5809     1.0  0.65194  0.38529  0.74937  1.0000
  H   H4636     1.0  0.66216  0.47490  0.81645  1.0000
  C   C5810     1.0  0.74520  0.36397  0.82109  1.0000
  C   C5811     1.0  0.74112  0.37792  0.81105  1.0000
  C   C5812     1.0  0.72765  0.39269  0.81330  1.0000
  C   C5813     1.0  0.71817  0.39357  0.82558  1.0000
  H   H4637     1.0  0.75634  0.35304  0.81926  1.0000
  H   H4638     1.0  0.74860  0.37744  0.80153  1.0000
  H   H4639     1.0  0.72490  0.40367  0.80558  1.0000
  H   H4640     1.0  0.70804  0.40527  0.82736  1.0000
  H   H4641     1.0  0.73338  0.33377  0.82602  1.0000
  H   H4642     1.0  0.56938  0.34385  0.83195  1.0000
  C   C5814     1.0  0.76628  0.41341  0.76313  1.0000
  C   C5815     1.0  0.80126  0.42671  0.81522  1.0000
  C   C5816     1.0  0.87915  0.39702  0.95546  1.0000
  H   H4643     1.0  0.81862  0.47347  0.82099  1.0000
  C   C5817     1.0  0.81719  0.47455  0.76258  1.0000
  C   C5818     1.0  0.77135  0.42899  0.75572  1.0000
  C   C5819     1.0  0.75271  0.27582  0.79175  1.0000
  H   H4644     1.0  0.77726  0.45346  0.75552  1.0000
  S   S771      1.0  0.77480  0.28654  0.80208  1.0000
  C   C5820     1.0  0.89106  0.44466  0.97330  1.0000
  C   C5821     1.0  0.93837  0.44941  0.85863  1.0000
  C   C5822     1.0  0.77607  0.34199  0.84545  1.0000
  H   H4645     1.0  0.73738  0.27406  0.76304  1.0000
  H   H4646     1.0  0.51736  0.31628  0.82271  1.0000
  H   H4647     1.0  0.98305  0.46456  0.90533  1.0000
  C   C5823     1.0  0.96795  0.41358  0.95402  1.0000
  C   C5824     1.0  0.77337  0.44150  0.76144  1.0000
  C   C5825     1.0  0.78062  0.48324  0.76274  1.0000
  H   H4648     1.0  0.66169  0.35806  0.74845  1.0000
  H   H4649     1.0  0.53658  0.29119  0.84519  1.0000
  H   H4650     1.0  0.73570  0.33782  0.87403  1.0000
  H   H4651     1.0  0.71460  0.29064  0.79316  1.0000
  H   H4652     1.0  0.71455  0.38044  0.84504  1.0000
  H   H4653     1.0  0.76880  0.29044  0.74025  1.0000
  H   H4654     1.0  0.68993  0.34539  0.79099  1.0000
  C   C5826     1.0  0.92749  0.44465  0.96578  1.0000
  C   C5827     1.0  0.93197  0.32756  0.97970  1.0000
  C   C5828     1.0  0.67261  0.40460  0.73894  1.0000
  C   C5829     1.0  0.85810  0.46629  0.87732  1.0000
  H   H4655     1.0  0.93301  0.40103  0.94995  1.0000
  H   H4656     1.0  0.77877  0.33392  0.83861  1.0000
  C   C5830     1.0  0.74603  0.26268  0.78951  1.0000
  C   C5831     1.0  0.79279  0.32169  0.73537  1.0000
  C   C5832     1.0  0.60053  0.25729  0.75592  1.0000
  H   H4657     1.0  0.68550  0.45794  0.92883  1.0000
  C   C5833     1.0  0.51783  0.40578  0.82841  1.0000
  C   C5834     1.0  0.72669  0.46080  0.83096  1.0000
  C   C5835     1.0  0.71560  0.46260  0.82272  1.0000
  C   C5836     1.0  0.71828  0.44937  0.81613  1.0000
  C   C5837     1.0  0.73248  0.43469  0.81731  1.0000
  C   C5838     1.0  0.74370  0.43289  0.82538  1.0000
  C   C5839     1.0  0.74084  0.44593  0.83217  1.0000
  C   C5840     1.0  0.81803  0.48491  0.81320  1.0000
  C   C5841     1.0  0.75415  0.24477  0.79293  1.0000
  C   C5842     1.0  0.53136  0.29323  0.78248  1.0000
  C   C5843     1.0  0.74699  0.26511  0.75756  1.0000
  H   H4658     1.0  0.56890  0.31767  0.76185  1.0000
  C   C5844     1.0  0.73236  0.46919  0.85318  1.0000
  H   H4659     1.0  0.86861  0.40143  0.95020  1.0000
  C   C5845     1.0  0.75028  0.46917  0.86748  1.0000
  C   C5846     1.0  0.74367  0.45502  0.87602  1.0000
  C   C5847     1.0  0.73121  0.44815  0.87330  1.0000
  C   C5848     1.0  0.72564  0.45513  0.86190  1.0000
  H   H4660     1.0  0.89627  0.38013  0.94310  1.0000
  H   H4661     1.0  0.99687  0.47511  0.85648  1.0000
  H   H4662     1.0  0.64563  0.41320  0.74898  1.0000
  C   C5849     1.0  0.70292  0.46499  0.91081  1.0000
  H   H4663     1.0  0.70943  0.45057  0.81001  1.0000
  H   H4664     1.0  0.73482  0.42478  0.81191  1.0000
  H   H4665     1.0  0.75466  0.42144  0.82635  1.0000
  H   H4666     1.0  0.74982  0.44448  0.83825  1.0000
  H   H4667     1.0  0.69006  0.46678  0.84447  1.0000
  H   H4668     1.0  0.80464  0.46613  0.95299  1.0000
  H   H4669     1.0  0.69746  0.45839  0.90601  1.0000
  C   C5850     1.0  0.72186  0.37943  0.83558  1.0000
  C   C5851     1.0  0.75847  0.34982  0.85066  1.0000
  P   P194      1.0  0.72416  0.47825  0.83885  1.0000
  C   C5852     1.0  0.77728  0.29965  0.73523  1.0000
  H   H4670     1.0  0.74850  0.44903  0.88462  1.0000
  H   H4671     1.0  0.72618  0.43711  0.87990  1.0000
  H   H4672     1.0  0.71611  0.44949  0.85986  1.0000
  C   C5853     1.0  0.50938  0.40670  0.81880  1.0000
  C   C5854     1.0  0.72064  0.34542  0.85928  1.0000
  C   C5855     1.0  0.72089  0.25991  0.81935  1.0000
  C   C5856     1.0  0.84856  0.45574  0.93875  1.0000
  H   H4673     1.0  0.80408  0.33890  0.84480  1.0000
  H   H4674     1.0  0.62366  0.28872  0.80990  1.0000
  H   H4675     1.0  0.66892  0.32998  0.84532  1.0000
  C   C5857     1.0  0.96740  0.40573  0.96677  1.0000
  H   H4676     1.0  0.85859  0.46187  0.86896  1.0000
  S   S772      1.0  0.88822  0.44206  0.95011  1.0000
  H   H4677     1.0  0.92528  0.44284  0.94770  1.0000
  C   C5858     1.0  0.83122  0.45353  0.94471  1.0000
  H   H4678     1.0  0.68799  0.39000  0.76187  1.0000
  H   H4679     1.0  0.95144  0.44059  0.85806  1.0000
  C   C5859     1.0  0.67904  0.33234  0.83678  1.0000
  C   C5860     1.0  0.73609  0.25795  0.83569  1.0000
  C   C5861     1.0  0.73506  0.36430  0.83337  1.0000
  C   C5862     1.0  0.74578  0.32483  0.84215  1.0000
  H   H4680     1.0  0.74427  0.30521  0.81933  1.0000
  H   H4681     1.0  0.64988  0.25712  0.76064  1.0000
  C   C5863     1.0  0.90704  0.38673  0.96851  1.0000
  C   C5864     1.0  0.63433  0.33746  0.76297  1.0000
  C   C5865     1.0  0.55895  0.30324  0.83519  1.0000
  C   C5866     1.0  0.57760  0.30067  0.83182  1.0000
  C   C5867     1.0  0.78744  0.35586  0.85721  1.0000
  H   H4682     1.0  0.76934  0.46277  0.80686  1.0000
  C   C5868     1.0  0.90626  0.45416  0.86628  1.0000
  C   C5869     1.0  0.91818  0.44378  0.95714  1.0000
  C   C5870     1.0  0.75739  0.29223  0.83479  1.0000
  H   H4683     1.0  0.96388  0.44514  0.90580  1.0000
  C   C5871     1.0  0.71674  0.47371  0.90412  1.0000
  H   H4684     1.0  0.76244  0.42025  0.79224  1.0000
  C   C5872     1.0  0.80597  0.46380  0.77100  1.0000
  S   S773      1.0  0.70326  0.25556  0.77615  1.0000
  H   H4685     1.0  0.78628  0.24918  0.80584  1.0000
  C   C5873     1.0  0.76307  0.47630  0.90018  1.0000
  C   C5874     1.0  0.68079  0.34972  0.83107  1.0000
  H   H4686     1.0  0.72352  0.27554  0.84823  1.0000
  H   H4687     1.0  0.51215  0.41002  0.79877  1.0000
  C   C5875     1.0  0.55845  0.31074  0.76739  1.0000
  C   C5876     1.0  0.80491  0.41909  0.80483  1.0000
  C   C5877     1.0  0.92315  0.44281  0.86525  1.0000
  H   H4688     1.0  0.92435  0.42890  0.86981  1.0000
  H   H4689     1.0  0.81909  0.30127  0.76151  1.0000
  H   H4690     1.0  0.75881  0.31137  0.85777  1.0000
  C   C5878     1.0  0.77003  0.36448  0.86186  1.0000
  C   C5879     1.0  0.75558  0.36170  0.85845  1.0000
  H   H4691     1.0  0.73460  0.26629  0.78522  1.0000
  P   P195      1.0  0.73986  0.34612  0.84633  1.0000
  C   C5880     1.0  0.74114  0.32276  0.83159  1.0000
  H   H4692     1.0  0.76774  0.37349  0.86800  1.0000
  H   H4693     1.0  0.74220  0.36886  0.86189  1.0000
  C   C5881     1.0  0.70300  0.30133  0.79241  1.0000
  H   H4694     1.0  0.86566  0.41375  0.96872  1.0000
  C   C5882     1.0  0.78755  0.46813  0.77121  1.0000
  H   H4695     1.0  0.57290  0.26285  0.81227  1.0000
  C   C5883     1.0  0.78171  0.30979  0.74177  1.0000
  C   C5884     1.0  0.76709  0.27094  0.79782  1.0000
  C   C5885     1.0  0.70749  0.34158  0.88174  1.0000
  C   C5886     1.0  0.76500  0.42288  0.78203  1.0000
  C   C5887     1.0  0.80667  0.27890  0.76988  1.0000
  H   H4696     1.0  0.72014  0.28806  0.73707  1.0000
  C   C5888     1.0  0.65283  0.25666  0.75076  1.0000
  H   H4697     1.0  0.55314  0.27058  0.78576  1.0000
  C   C5889     1.0  0.99640  0.47925  0.86494  1.0000
  C   C5890     1.0  0.88415  0.48153  0.83827  1.0000
  C   C5891     1.0  0.76498  0.26084  0.75825  1.0000
  C   C5892     1.0  0.72238  0.36234  0.74420  1.0000
  C   C5893     1.0  0.85698  0.47631  0.89939  1.0000
  C   C5894     1.0  0.70512  0.33903  0.81485  1.0000
  C   C5895     1.0  0.55100  0.28923  0.84263  1.0000
  H   H4698     1.0  0.67203  0.36066  0.83512  1.0000
  C   C5896     1.0  0.76125  0.29389  0.84572  1.0000
  C   C5897     1.0  0.70348  0.34916  0.85683  1.0000
  H   H4699     1.0  0.67515  0.35358  0.86469  1.0000
  C   C5898     1.0  0.76305  0.41043  0.77626  1.0000
  H   H4700     1.0  0.75910  0.39835  0.78198  1.0000
  C   C5899     1.0  0.66602  0.40224  0.77490  1.0000
  H   H4701     1.0  0.72180  0.47377  0.89417  1.0000
  H   H4702     1.0  0.61002  0.35118  0.75651  1.0000
  H   H4703     1.0  0.60027  0.26639  0.81677  1.0000
  C   C5900     1.0  0.69402  0.35303  0.82023  1.0000
  C   C5901     1.0  0.91975  0.47874  0.85382  1.0000
  H   H4704     1.0  0.97785  0.42125  0.94873  1.0000
  C   C5902     1.0  0.71915  0.47719  0.78794  1.0000
  H   H4705     1.0  0.59780  0.27164  0.75365  1.0000
  H   H4706     1.0  0.76487  0.40361  0.75873  1.0000
  C   C5903     1.0  0.58827  0.28429  0.83632  1.0000
  H   H4707     1.0  0.70493  0.47422  0.82135  1.0000
  H   H4708     1.0  0.71521  0.34177  0.80633  1.0000
  C   C5904     1.0  0.65176  0.39956  0.78513  1.0000
  H   H4709     1.0  0.66926  0.41519  0.77141  1.0000
  H   H4710     1.0  0.60266  0.28244  0.83395  1.0000
  H   H4711     1.0  0.69572  0.36646  0.81606  1.0000
  S   S774      1.0  0.65798  0.26796  0.80141  1.0000
  C   C5905     1.0  0.68841  0.34964  0.86672  1.0000
  H   H4712     1.0  0.53720  0.33376  0.76450  1.0000
  H   H4713     1.0  0.67867  0.34705  0.88678  1.0000
  H   H4714     1.0  0.82799  0.44073  0.94640  1.0000
  C   C5906     1.0  0.81594  0.27237  0.74555  1.0000
  C   C5907     1.0  0.66992  0.48698  0.85231  1.0000
  Fe  Fe386     1.0  0.67922  0.24920  0.79095  1.0000
  C   C5908     1.0  0.69621  0.46472  0.92366  1.0000
  H   H4715     1.0  0.80801  0.47255  0.89550  1.0000
  C   C5909     1.0  0.93666  0.46736  0.85283  1.0000
  H   H4716     1.0  0.72005  0.25510  0.81149  1.0000
  H   H4717     1.0  0.81918  0.27055  0.73599  1.0000
  H   H4718     1.0  0.76229  0.47566  0.82882  1.0000
  C   C5910     1.0  0.94256  0.40197  0.95482  1.0000
  C   C5911     1.0  0.94196  0.39387  0.96762  1.0000
  H   H4719     1.0  0.51109  0.24924  0.85959  1.0000
  C   C5912     1.0  0.68572  0.39024  0.73529  1.0000
  C   C5913     1.0  0.97200  0.48276  0.96817  1.0000
  C   C5914     1.0  0.65951  0.48678  0.81998  1.0000
  H   H4720     1.0  0.95242  0.47140  0.98357  1.0000
  H   H4721     1.0  0.76254  0.48857  0.78976  1.0000
  H   H4722     1.0  0.92662  0.48875  0.97453  1.0000
  H   H4723     1.0  0.67559  0.41764  0.73643  1.0000
  C   C5915     1.0  0.58704  0.24276  0.80155  1.0000
  C   C5916     1.0  0.97652  0.48549  0.92526  1.0000
  C   C5917     1.0  0.75544  0.48850  0.82439  1.0000
  S   S775      1.0  0.70377  0.24325  0.74558  1.0000
  C   C5918     1.0  0.60035  0.24811  0.76842  1.0000
  C   C5919     1.0  0.91873  0.44538  0.97825  1.0000
  H   H4724     1.0  0.87697  0.44450  0.97627  1.0000
  P   P196      1.0  0.92548  0.38083  0.97637  1.0000
  H   H4725     1.0  0.75888  0.48821  0.92274  1.0000
  C   C5920     1.0  0.82234  0.48434  0.94624  1.0000
  C   C5921     1.0  0.89138  0.39890  0.97240  1.0000
  H   H4726     1.0  0.61871  0.32668  0.73579  1.0000
  C   C5922     1.0  0.83979  0.48658  0.94034  1.0000
  H   H4727     1.0  0.57496  0.24129  0.79967  1.0000
  C   C5923     1.0  0.75374  0.24639  0.74266  1.0000
  H   H4728     1.0  0.97684  0.40747  0.97142  1.0000
  C   C5924     1.0  0.77178  0.24204  0.74331  1.0000
  H   H4729     1.0  0.74916  0.24095  0.73665  1.0000
  C   C5925     1.0  0.95452  0.39582  0.97354  1.0000
  H   H4730     1.0  0.95635  0.30748  0.97847  1.0000
  C   C5926     1.0  0.92441  0.34555  0.97923  1.0000
  H   H4731     1.0  0.74542  0.24128  0.82215  1.0000
  H   H4732     1.0  0.50340  0.39081  0.87747  1.0000
  H   H4733     1.0  0.97065  0.44112  0.98246  1.0000
  C   C5927     1.0  0.95393  0.35124  0.97571  1.0000
  H   H4734     1.0  0.96271  0.36016  0.97406  1.0000
  C   C5928     1.0  0.90041  0.44549  0.98202  1.0000
  C   C5929     1.0  0.99155  0.49005  0.92651  1.0000
  H   H4735     1.0  0.97582  0.32850  0.97493  1.0000
  H   H4736     1.0  0.72260  0.48825  0.92811  1.0000
  H   H4737     1.0  0.91004  0.35011  0.98036  1.0000
  H   H4738     1.0  0.89006  0.40500  0.98014  1.0000
  C   C5930     1.0  0.95049  0.32141  0.97818  1.0000
  C   C5931     1.0  0.72054  0.35656  0.73402  1.0000
  C   C5932     1.0  0.64933  0.24284  0.74723  1.0000
  H   H4739     1.0  0.59293  0.24406  0.87924  1.0000
  C   C5933     1.0  0.65316  0.24218  0.73453  1.0000
  H   H4740     1.0  0.95428  0.38980  0.98341  1.0000
  H   H4741     1.0  0.67250  0.33542  0.73388  1.0000
  H   H4742     1.0  0.95080  0.68307  0.99484  1.0000
  Fe  Fe387     1.0  0.91826  0.59035  0.02118  1.0000
  S   S776      1.0  0.92647  0.56542  0.03509  1.0000
  S   S777      1.0  0.92981  0.58692  0.00105  1.0000
  Fe  Fe388     1.0  0.89982  0.61003  0.04238  1.0000
  S   S778      1.0  0.90707  0.58657  0.05759  1.0000
  S   S779      1.0  0.88436  0.63502  0.04881  1.0000
  Fe  Fe389     1.0  0.93395  0.58254  0.04462  1.0000
  S   S780      1.0  0.95990  0.57303  0.05138  1.0000
  Fe  Fe390     1.0  0.89889  0.57217  0.04649  1.0000
  S   S781      1.0  0.88255  0.55172  0.05599  1.0000
  S   S782      1.0  0.92756  0.60720  0.03007  1.0000
  S   S783      1.0  0.88975  0.59589  0.03199  1.0000
  Fe  Fe391     1.0  0.84229  0.59727  0.11860  1.0000
  S   S784      1.0  0.85201  0.57786  0.13504  1.0000
  S   S785      1.0  0.85686  0.61912  0.10815  1.0000
  Fe  Fe392     1.0  0.80960  0.58228  0.12336  1.0000
  S   S786      1.0  0.81654  0.56128  0.14008  1.0000
  S   S787      1.0  0.78474  0.58661  0.11618  1.0000
  Fe  Fe393     1.0  0.82353  0.58304  0.14544  1.0000
  S   S788      1.0  0.81579  0.58585  0.16559  1.0000
  Fe  Fe394     1.0  0.84441  0.55778  0.12823  1.0000
  S   S789      1.0  0.86552  0.53262  0.12799  1.0000
  S   S790      1.0  0.81427  0.60429  0.12970  1.0000
  S   S791      1.0  0.83699  0.57688  0.11082  1.0000
  H   H4743     1.0  0.59159  0.52341  0.17482  1.0000
  Fe  Fe395     1.0  0.66424  0.60580  0.18128  1.0000
  S   S792      1.0  0.67213  0.57649  0.18869  1.0000
  S   S793      1.0  0.63894  0.62215  0.19061  1.0000
  Fe  Fe396     1.0  0.69980  0.60748  0.16311  1.0000
  S   S794      1.0  0.71096  0.57853  0.16897  1.0000
  S   S795      1.0  0.71411  0.62631  0.14782  1.0000
  Fe  Fe397     1.0  0.68415  0.57504  0.16843  1.0000
  S   S796      1.0  0.68595  0.55398  0.15805  1.0000
  Fe  Fe398     1.0  0.69813  0.58241  0.18861  1.0000
  C   C5934     1.0  0.62468  0.61663  0.14134  1.0000
  S   S797      1.0  0.67396  0.60403  0.16094  1.0000
  S   S798      1.0  0.68930  0.61176  0.18282  1.0000
  C   C5935     1.0  0.99278  0.65279  0.98526  1.0000
  H   H4744     1.0  0.98397  0.49708  0.98615  1.0000
  Fe  Fe399     1.0  0.57400  0.70173  0.16549  1.0000
  S   S799      1.0  0.55412  0.69794  0.18400  1.0000
  S   S800      1.0  0.59138  0.68005  0.15576  1.0000
  H   H4745     1.0  0.67779  0.71807  0.21974  1.0000
  Fe  Fe400     1.0  0.56541  0.71789  0.18843  1.0000
  C   C5936     1.0  0.90854  0.53689  0.98587  1.0000
  S   S801      1.0  0.58695  0.71902  0.17102  1.0000
  S   S802      1.0  0.74475  0.65338  0.20062  1.0000
  S   S803      1.0  0.76056  0.68501  0.20477  1.0000
  Fe  Fe401     1.0  0.77060  0.66249  0.19460  1.0000
  S   S804      1.0  0.78538  0.66409  0.17427  1.0000
  H   H4746     1.0  0.95704  0.55191  0.01672  1.0000
  H   H4747     1.0  0.61426  0.60149  0.21339  1.0000
  H   H4748     1.0  0.91307  0.51173  0.04215  1.0000
  H   H4749     1.0  0.96059  0.54706  0.03876  1.0000
  H   H4750     1.0  0.91402  0.49205  0.10046  1.0000
  C   C5937     1.0  0.70316  0.68559  0.17002  1.0000
  H   H4751     1.0  0.96189  0.49282  0.09628  1.0000
  C   C5938     1.0  0.95579  0.50947  0.05319  1.0000
  C   C5939     1.0  0.95681  0.50904  0.04071  1.0000
  H   H4752     1.0  0.59872  0.61976  0.15345  1.0000
  H   H4753     1.0  0.99127  0.62192  0.02632  1.0000
  H   H4754     1.0  0.73224  0.62063  0.20532  1.0000
  H   H4755     1.0  0.71578  0.60515  0.19745  1.0000
  C   C5940     1.0  0.62590  0.63798  0.18070  1.0000
  C   C5941     1.0  0.61165  0.65029  0.18594  1.0000
  C   C5942     1.0  0.60119  0.66343  0.17829  1.0000
  C   C5943     1.0  0.60465  0.66395  0.16538  1.0000
  C   C5944     1.0  0.61867  0.65139  0.16013  1.0000
  C   C5945     1.0  0.62937  0.63845  0.16778  1.0000
  H   H4756     1.0  0.60880  0.64974  0.19595  1.0000
  H   H4757     1.0  0.59040  0.67305  0.18242  1.0000
  H   H4758     1.0  0.62129  0.65168  0.15015  1.0000
  H   H4759     1.0  0.64013  0.62880  0.16370  1.0000
  H   H4760     1.0  0.92690  0.51497  0.10407  1.0000
  H   H4761     1.0  0.90161  0.53525  0.11465  1.0000
  C   C5946     1.0  0.97213  0.54408  0.03137  1.0000
  Fe  Fe402     1.0  0.77077  0.66521  0.22103  1.0000
  H   H4762     1.0  0.88938  0.65021  0.00230  1.0000
  C   C5947     1.0  0.62126  0.71262  0.13855  1.0000
  C   C5948     1.0  0.81974  0.68317  0.19723  1.0000
  C   C5949     1.0  0.67087  0.53995  0.16162  1.0000
  C   C5950     1.0  0.65722  0.53919  0.17249  1.0000
  C   C5951     1.0  0.64526  0.52804  0.17473  1.0000
  H   H4763     1.0  0.65597  0.54716  0.17911  1.0000
  H   H4764     1.0  0.63457  0.52758  0.18305  1.0000
  C   C5952     1.0  0.80813  0.60774  0.16771  1.0000
  C   C5953     1.0  0.81142  0.62225  0.15785  1.0000
  C   C5954     1.0  0.80468  0.63959  0.15988  1.0000
  C   C5955     1.0  0.79436  0.64244  0.17169  1.0000
  C   C5956     1.0  0.79115  0.62789  0.18147  1.0000
  C   C5957     1.0  0.79818  0.61064  0.17953  1.0000
  H   H4765     1.0  0.81927  0.62011  0.14873  1.0000
  H   H4766     1.0  0.80735  0.65072  0.15227  1.0000
  H   H4767     1.0  0.78281  0.62982  0.19047  1.0000
  H   H4768     1.0  0.79556  0.59951  0.18715  1.0000
  C   C5958     1.0  0.76545  0.59784  0.12512  1.0000
  C   C5959     1.0  0.75134  0.60786  0.11929  1.0000
  C   C5960     1.0  0.73569  0.61676  0.12626  1.0000
  C   C5961     1.0  0.73372  0.61495  0.13923  1.0000
  C   C5962     1.0  0.74762  0.60456  0.14514  1.0000
  C   C5963     1.0  0.76372  0.59643  0.13803  1.0000
  H   H4769     1.0  0.75260  0.60892  0.10933  1.0000
  H   H4770     1.0  0.72496  0.62475  0.12165  1.0000
  H   H4771     1.0  0.74608  0.60317  0.15516  1.0000
  H   H4772     1.0  0.77461  0.58880  0.14259  1.0000
  C   C5964     1.0  0.86079  0.51180  0.13012  1.0000
  C   C5965     1.0  0.76711  0.50229  0.19241  1.0000
  C   C5966     1.0  0.84483  0.50974  0.12830  1.0000
  H   H4773     1.0  0.66819  0.65053  0.18746  1.0000
  H   H4774     1.0  0.83481  0.52130  0.12564  1.0000
  C   C5967     1.0  0.87556  0.63056  0.06521  1.0000
  C   C5968     1.0  0.87024  0.61459  0.07151  1.0000
  C   C5969     1.0  0.86404  0.61100  0.08470  1.0000
  C   C5970     1.0  0.86332  0.62333  0.09159  1.0000
  C   C5971     1.0  0.86838  0.63935  0.08525  1.0000
  C   C5972     1.0  0.87426  0.64305  0.07210  1.0000
  H   H4775     1.0  0.87077  0.60507  0.06620  1.0000
  H   H4776     1.0  0.86016  0.59859  0.08953  1.0000
  H   H4777     1.0  0.86781  0.64893  0.09053  1.0000
  H   H4778     1.0  0.87824  0.65543  0.06731  1.0000
  H   H4779     1.0  0.98716  0.50165  0.09985  1.0000
  C   C5973     1.0  0.89123  0.53603  0.02355  1.0000
  C   C5974     1.0  0.89046  0.54568  0.03231  1.0000
  C   C5975     1.0  0.88254  0.54022  0.04496  1.0000
  S   S805      1.0  0.71156  0.56831  0.20481  1.0000
  Fe  Fe403     1.0  0.75620  0.63583  0.21691  1.0000
  H   H4780     1.0  0.89732  0.54051  0.01381  1.0000
  H   H4781     1.0  0.89598  0.55739  0.02921  1.0000
  C   C5976     1.0  0.72190  0.71185  0.12164  1.0000
  H   H4782     1.0  0.57527  0.67947  0.21346  1.0000
  C   C5977     1.0  0.75134  0.55608  0.14110  1.0000
  C   C5978     1.0  0.75927  0.49246  0.20388  1.0000
  C   C5979     1.0  0.96984  0.58867  0.05355  1.0000
  C   C5980     1.0  0.96055  0.60614  0.05374  1.0000
  C   C5981     1.0  0.96886  0.61809  0.05584  1.0000
  C   C5982     1.0  0.67837  0.62533  0.21611  1.0000
  C   C5983     1.0  0.58502  0.54353  0.18566  1.0000
  H   H4783     1.0  0.94692  0.61034  0.05243  1.0000
  H   H4784     1.0  0.96161  0.63153  0.05611  1.0000
  C   C5984     1.0  0.70508  0.67082  0.16504  1.0000
  H   H4785     1.0  0.95948  0.63129  0.99870  1.0000
  H   H4786     1.0  0.64907  0.70096  0.13827  1.0000
  C   C5985     1.0  0.60337  0.56334  0.16403  1.0000
  C   C5986     1.0  0.99587  0.66447  0.03893  1.0000
  C   C5987     1.0  0.72302  0.59800  0.20476  1.0000
  H   H4787     1.0  0.89409  0.60835  0.99870  1.0000
  C   C5988     1.0  0.66120  0.51773  0.15563  1.0000
  H   H4788     1.0  0.70130  0.66498  0.20090  1.0000
  P   P197      1.0  0.97244  0.65268  0.00978  1.0000
  H   H4789     1.0  0.96913  0.66793  0.05019  1.0000
  C   C5989     1.0  0.70551  0.65404  0.17301  1.0000
  C   C5990     1.0  0.72318  0.57997  0.20980  1.0000
  H   H4790     1.0  0.67981  0.70132  0.14662  1.0000
  H   H4791     1.0  0.98367  0.54553  0.99988  1.0000
  C   C5991     1.0  0.84681  0.61684  0.18482  1.0000
  C   C5992     1.0  0.88513  0.50643  0.98591  1.0000
  H   H4792     1.0  0.96394  0.62965  0.07938  1.0000
  C   C5993     1.0  0.85509  0.56711  0.01792  1.0000
  C   C5994     1.0  0.51769  0.70079  0.10942  1.0000
  C   C5995     1.0  0.64857  0.67383  0.16313  1.0000
  H   H4793     1.0  0.65672  0.63244  0.20653  1.0000
  H   H4794     1.0  0.62554  0.69549  0.16407  1.0000
  H   H4795     1.0  0.66063  0.58364  0.14716  1.0000
  C   C5996     1.0  0.63349  0.68537  0.18189  1.0000
  C   C5997     1.0  0.87625  0.51528  0.04009  1.0000
  C   C5998     1.0  0.74199  0.59742  0.21863  1.0000
  C   C5999     1.0  0.98127  0.65757  0.02125  1.0000
  C   C6000     1.0  0.69138  0.53025  0.20336  1.0000
  C   C6001     1.0  0.87525  0.52516  0.04886  1.0000
  C   C6002     1.0  0.62198  0.56773  0.19268  1.0000
  C   C6003     1.0  0.62710  0.57514  0.21060  1.0000
  C   C6004     1.0  0.66406  0.63715  0.21128  1.0000
  H   H4796     1.0  0.72926  0.55201  0.13546  1.0000
  H   H4797     1.0  0.53976  0.70582  0.09391  1.0000
  C   C6005     1.0  0.85374  0.54592  0.00672  1.0000
  H   H4798     1.0  0.72289  0.52412  0.21255  1.0000
  S   S806      1.0  0.99668  0.62755  0.06054  1.0000
  P   P198      1.0  0.70417  0.70717  0.15997  1.0000
  H   H4799     1.0  0.61084  0.57052  0.15561  1.0000
  H   H4800     1.0  0.62294  0.69490  0.18631  1.0000
  C   C6006     1.0  0.65293  0.70164  0.20039  1.0000
  C   C6007     1.0  0.97874  0.59245  0.01584  1.0000
  C   C6008     1.0  0.72351  0.71387  0.16128  1.0000
  C   C6009     1.0  0.66062  0.66135  0.16980  1.0000
  C   C6010     1.0  0.88420  0.52080  0.02739  1.0000
  C   C6011     1.0  0.70410  0.65190  0.18594  1.0000
  C   C6012     1.0  0.75643  0.53923  0.16174  1.0000
  C   C6013     1.0  0.98688  0.59902  0.02254  1.0000
  H   H4801     1.0  0.67084  0.65167  0.16523  1.0000
  H   H4802     1.0  0.84740  0.64314  0.17311  1.0000
  H   H4803     1.0  0.65174  0.60994  0.13081  1.0000
  C   C6014     1.0  0.75879  0.51992  0.18801  1.0000
  H   H4804     1.0  0.70657  0.67203  0.15505  1.0000
  P   P199      1.0  0.92727  0.62699  0.09235  1.0000
  C   C6015     1.0  0.84872  0.62934  0.17333  1.0000
  H   H4805     1.0  0.62446  0.55821  0.18692  1.0000
  H   H4806     1.0  0.76524  0.59297  0.19342  1.0000
  H   H4807     1.0  0.78772  0.70079  0.21482  1.0000
  H   H4808     1.0  0.73365  0.71461  0.11458  1.0000
  C   C6016     1.0  0.67280  0.52919  0.15323  1.0000
  C   C6017     1.0  0.80651  0.52865  0.16662  1.0000
  H   H4809     1.0  0.84172  0.52890  0.98818  1.0000
  H   H4810     1.0  0.69985  0.69459  0.18712  1.0000
  H   H4811     1.0  0.96028  0.62183  0.12512  1.0000
  C   C6018     1.0  0.93064  0.63157  0.98719  1.0000
  H   H4812     1.0  0.80531  0.54096  0.16923  1.0000
  C   C6019     1.0  0.58685  0.65378  0.22353  1.0000
  H   H4813     1.0  0.56255  0.59136  0.17971  1.0000
  C   C6020     1.0  0.98508  0.61724  0.02079  1.0000
  H   H4814     1.0  0.68209  0.61174  0.21498  1.0000
  C   C6021     1.0  0.64496  0.67227  0.18890  1.0000
  C   C6022     1.0  0.73277  0.57078  0.21919  1.0000
  C   C6023     1.0  0.65044  0.72766  0.17068  1.0000
  C   C6024     1.0  0.63518  0.68602  0.16912  1.0000
  H   H4815     1.0  0.86913  0.52109  0.05866  1.0000
  C   C6025     1.0  0.87050  0.52094  0.98579  1.0000
  C   C6026     1.0  0.69410  0.49869  0.20639  1.0000
  C   C6027     1.0  0.94867  0.66157  0.01134  1.0000
  C   C6028     1.0  0.93667  0.65274  0.02092  1.0000
  C   C6029     1.0  0.91825  0.65844  0.02159  1.0000
  C   C6030     1.0  0.91163  0.67308  0.01283  1.0000
  C   C6031     1.0  0.92346  0.68200  0.00329  1.0000
  C   C6032     1.0  0.94192  0.67624  0.00249  1.0000
  H   H4816     1.0  0.95607  0.66203  0.03464  1.0000
  H   H4817     1.0  0.94158  0.64116  0.02770  1.0000
  H   H4818     1.0  0.90910  0.65130  0.02881  1.0000
  H   H4819     1.0  0.89734  0.67736  0.01338  1.0000
  C   C6033     1.0  0.74213  0.57944  0.22356  1.0000
  H   H4820     1.0  0.99741  0.52852  0.08611  1.0000
  C   C6034     1.0  0.74560  0.72850  0.21035  1.0000
  H   H4821     1.0  0.73137  0.49982  0.13375  1.0000
  C   C6035     1.0  0.71585  0.71604  0.19685  1.0000
  C   C6036     1.0  0.76103  0.55158  0.15058  1.0000
  H   H4822     1.0  0.63088  0.63818  0.22373  1.0000
  C   C6037     1.0  0.62501  0.71730  0.21778  1.0000
  C   C6038     1.0  0.79134  0.52240  0.16735  1.0000
  H   H4823     1.0  0.94214  0.50981  0.02702  1.0000
  C   C6039     1.0  0.77786  0.56578  0.19301  1.0000
  H   H4824     1.0  0.78247  0.72742  0.13026  1.0000
  C   C6040     1.0  0.68234  0.73820  0.16749  1.0000
  H   H4825     1.0  0.83922  0.54736  0.02570  1.0000
  S   S807      1.0  0.55568  0.72424  0.15515  1.0000
  C   C6041     1.0  0.86617  0.55269  0.99626  1.0000
  C   C6042     1.0  0.76639  0.58189  0.18934  1.0000
  C   C6043     1.0  0.73241  0.60676  0.20919  1.0000
  C   C6044     1.0  0.75754  0.56923  0.17546  1.0000
  C   C6045     1.0  0.84346  0.49776  0.09610  1.0000
  C   C6046     1.0  0.70144  0.49966  0.19345  1.0000
  H   H4826     1.0  0.70737  0.64261  0.16910  1.0000
  H   H4827     1.0  0.53222  0.73801  0.09243  1.0000
  C   C6047     1.0  0.70198  0.66660  0.19094  1.0000
  C   C6048     1.0  0.92948  0.57324  0.08427  1.0000
  C   C6049     1.0  0.89716  0.65069  0.10240  1.0000
  S   S808      1.0  0.75416  0.60735  0.22458  1.0000
  H   H4828     1.0  0.90829  0.60141  0.21577  1.0000
  C   C6050     1.0  0.61341  0.49661  0.06613  1.0000
  C   C6051     1.0  0.59244  0.53664  0.17480  1.0000
  H   H4829     1.0  0.63711  0.73996  0.21104  1.0000
  H   H4830     1.0  0.87478  0.63690  0.19122  1.0000
  C   C6052     1.0  0.94478  0.59418  0.08631  1.0000
  H   H4831     1.0  0.62071  0.62806  0.13416  1.0000
  C   C6053     1.0  0.82572  0.50347  0.15838  1.0000
  H   H4832     1.0  0.78747  0.53871  0.19134  1.0000
  C   C6054     1.0  0.61228  0.61199  0.15246  1.0000
  H   H4833     1.0  0.77590  0.50240  0.12210  1.0000
  C   C6055     1.0  0.96292  0.62806  0.08938  1.0000
  H   H4834     1.0  0.93604  0.68328  0.06236  1.0000
  H   H4835     1.0  0.92391  0.67772  0.04605  1.0000
  C   C6056     1.0  0.99582  0.59529  0.05723  1.0000
  C   C6057     1.0  0.61902  0.64734  0.22124  1.0000
  H   H4836     1.0  0.60013  0.60985  0.19529  1.0000
  S   S809      1.0  0.78278  0.64360  0.21026  1.0000
  C   C6058     1.0  0.90005  0.60275  0.99044  1.0000
  H   H4837     1.0  0.99155  0.63930  0.98675  1.0000
  C   C6059     1.0  0.73630  0.70189  0.16777  1.0000
  S   S810      1.0  0.57111  0.71852  0.20684  1.0000
  C   C6060     1.0  0.93248  0.65863  0.07533  1.0000
  H   H4838     1.0  0.91356  0.64992  0.04990  1.0000
  C   C6061     1.0  0.74174  0.73587  0.15567  1.0000
  H   H4839     1.0  0.66567  0.67387  0.22018  1.0000
  C   C6062     1.0  0.68318  0.64851  0.22382  1.0000
  H   H4840     1.0  0.66284  0.50948  0.14908  1.0000
  H   H4841     1.0  0.78202  0.50247  0.16283  1.0000
  C   C6063     1.0  0.79429  0.70098  0.22199  1.0000
  Fe  Fe404     1.0  0.73575  0.67384  0.21238  1.0000
  C   C6064     1.0  0.90096  0.64813  0.99470  1.0000
  C   C6065     1.0  0.84825  0.55310  0.01750  1.0000
  H   H4842     1.0  0.68781  0.54207  0.20717  1.0000
  H   H4843     1.0  0.77204  0.55782  0.14926  1.0000
  H   H4844     1.0  0.99436  0.58996  0.02925  1.0000
  C   C6066     1.0  0.73703  0.54825  0.14268  1.0000
  H   H4845     1.0  0.76095  0.69776  0.17366  1.0000
  C   C6067     1.0  0.68306  0.72159  0.16537  1.0000
  H   H4846     1.0  0.65781  0.72953  0.13362  1.0000
  H   H4847     1.0  0.73485  0.68853  0.17238  1.0000
  C   C6068     1.0  0.66892  0.66039  0.21895  1.0000
  H   H4848     1.0  0.72217  0.73782  0.18160  1.0000
  H   H4849     1.0  0.88306  0.57185  0.98908  1.0000
  H   H4850     1.0  0.96219  0.59893  0.00232  1.0000
  P   P200      1.0  0.76910  0.53367  0.17385  1.0000
  H   H4851     1.0  0.70477  0.63886  0.19209  1.0000
  C   C6069     1.0  0.73857  0.49235  0.15188  1.0000
  H   H4852     1.0  0.51984  0.70499  0.15678  1.0000
  H   H4853     1.0  0.74914  0.57079  0.16899  1.0000
  H   H4854     1.0  0.87352  0.66863  0.10990  1.0000
  C   C6070     1.0  0.59628  0.57022  0.17499  1.0000
  C   C6071     1.0  0.63001  0.56304  0.20305  1.0000
  C   C6072     1.0  0.94533  0.57806  0.08361  1.0000
  H   H4855     1.0  0.69970  0.54398  0.18419  1.0000
  H   H4856     1.0  0.70788  0.71090  0.10808  1.0000
  C   C6073     1.0  0.91986  0.63986  0.06824  1.0000
  C   C6074     1.0  0.75135  0.70703  0.16845  1.0000
  C   C6075     1.0  0.76914  0.55301  0.17901  1.0000
  S   S811      1.0  0.70707  0.68858  0.21610  1.0000
  C   C6076     1.0  0.70735  0.70981  0.11796  1.0000
  C   C6077     1.0  0.70334  0.71048  0.20759  1.0000
  C   C6078     1.0  0.64729  0.51723  0.16632  1.0000
  C   C6079     1.0  0.96101  0.62358  0.11514  1.0000
  C   C6080     1.0  0.75022  0.73633  0.21836  1.0000
  H   H4857     1.0  0.61582  0.69320  0.22275  1.0000
  H   H4858     1.0  0.66693  0.70306  0.16673  1.0000
  C   C6081     1.0  0.70590  0.70709  0.14360  1.0000
  C   C6082     1.0  0.87306  0.56671  0.99683  1.0000
  C   C6083     1.0  0.80266  0.71495  0.22054  1.0000
  C   C6084     1.0  0.69156  0.70451  0.13980  1.0000
  H   H4859     1.0  0.75488  0.56568  0.13252  1.0000
  C   C6085     1.0  0.65888  0.66060  0.18260  1.0000
  H   H4860     1.0  0.95726  0.59792  0.08521  1.0000
  C   C6086     1.0  0.72133  0.71026  0.13441  1.0000
  H   H4861     1.0  0.59553  0.62805  0.17537  1.0000
  H   H4862     1.0  0.84899  0.58891  0.19329  1.0000
  C   C6087     1.0  0.69231  0.70586  0.12705  1.0000
  C   C6088     1.0  0.82094  0.61632  0.22381  1.0000
  H   H4863     1.0  0.98226  0.54641  0.06878  1.0000
  H   H4864     1.0  0.60381  0.68854  0.20448  1.0000
  C   C6089     1.0  0.97550  0.62905  0.01197  1.0000
  C   C6090     1.0  0.79355  0.50716  0.16280  1.0000
  C   C6091     1.0  0.65204  0.71870  0.20162  1.0000
  H   H4865     1.0  0.52107  0.68662  0.11009  1.0000
  C   C6092     1.0  0.83392  0.64685  0.19847  1.0000
  C   C6093     1.0  0.97013  0.54676  0.01901  1.0000
  H   H4866     1.0  0.64923  0.67359  0.15347  1.0000
  C   C6094     1.0  0.96724  0.62235  0.00532  1.0000
  H   H4867     1.0  0.60773  0.54092  0.15573  1.0000
  C   C6095     1.0  0.56413  0.60444  0.17926  1.0000
  C   C6096     1.0  0.81480  0.60435  0.20831  1.0000
  S   S812      1.0  0.74524  0.65549  0.22925  1.0000
  C   C6097     1.0  0.85214  0.62411  0.16189  1.0000
  C   C6098     1.0  0.85410  0.60635  0.16181  1.0000
  C   C6099     1.0  0.85308  0.59373  0.17315  1.0000
  H   H4868     1.0  0.85282  0.63389  0.15310  1.0000
  H   H4869     1.0  0.85602  0.60237  0.15301  1.0000
  H   H4870     1.0  0.85428  0.58001  0.17307  1.0000
  C   C6100     1.0  0.87183  0.50847  0.09982  1.0000
  H   H4871     1.0  0.99013  0.53619  0.04387  1.0000
  C   C6101     1.0  0.71253  0.73353  0.18994  1.0000
  H   H4872     1.0  0.83903  0.49605  0.15511  1.0000
  C   C6102     1.0  0.84261  0.51586  0.09458  1.0000
  C   C6103     1.0  0.85673  0.52110  0.09680  1.0000
  P   P201      1.0  0.82238  0.53165  0.09159  1.0000
  C   C6104     1.0  0.82523  0.55421  0.08643  1.0000
  C   C6105     1.0  0.81548  0.52783  0.07880  1.0000
  C   C6106     1.0  0.82808  0.51972  0.06951  1.0000
  C   C6107     1.0  0.82290  0.51792  0.05913  1.0000
  C   C6108     1.0  0.80505  0.52396  0.05804  1.0000
  C   C6109     1.0  0.79242  0.53211  0.06723  1.0000
  C   C6110     1.0  0.79765  0.53421  0.07752  1.0000
  C   C6111     1.0  0.81137  0.56817  0.09007  1.0000
  C   C6112     1.0  0.81361  0.58564  0.08587  1.0000
  C   C6113     1.0  0.82957  0.58933  0.07786  1.0000
  C   C6114     1.0  0.84314  0.57558  0.07380  1.0000
  C   C6115     1.0  0.84088  0.55812  0.07793  1.0000
  C   C6116     1.0  0.80611  0.52818  0.10620  1.0000
  C   C6117     1.0  0.80521  0.53655  0.11581  1.0000
  C   C6118     1.0  0.79381  0.53268  0.12757  1.0000
  C   C6119     1.0  0.78307  0.52056  0.12980  1.0000
  C   C6120     1.0  0.78394  0.51210  0.12029  1.0000
  C   C6121     1.0  0.79558  0.51572  0.10857  1.0000
  H   H4873     1.0  0.88245  0.51262  0.10175  1.0000
  C   C6122     1.0  0.62595  0.70015  0.21668  1.0000
  C   C6123     1.0  0.86748  0.57391  0.00759  1.0000
  C   C6124     1.0  0.87674  0.62551  0.19890  1.0000
  H   H4874     1.0  0.85594  0.53479  0.09663  1.0000
  H   H4875     1.0  0.84192  0.51490  0.07022  1.0000
  H   H4876     1.0  0.73486  0.72141  0.21379  1.0000
  H   H4877     1.0  0.80105  0.52238  0.05004  1.0000
  H   H4878     1.0  0.77861  0.53692  0.06634  1.0000
  H   H4879     1.0  0.78783  0.54089  0.08443  1.0000
  H   H4880     1.0  0.79881  0.56567  0.09615  1.0000
  H   H4881     1.0  0.80297  0.59625  0.08896  1.0000
  H   H4882     1.0  0.83141  0.60283  0.07472  1.0000
  H   H4883     1.0  0.85538  0.57845  0.06737  1.0000
  H   H4884     1.0  0.85133  0.54765  0.07450  1.0000
  H   H4885     1.0  0.81363  0.54578  0.11436  1.0000
  H   H4886     1.0  0.79353  0.53899  0.13496  1.0000
  H   H4887     1.0  0.77421  0.51762  0.13892  1.0000
  H   H4888     1.0  0.69971  0.49790  0.14273  1.0000
  H   H4889     1.0  0.79664  0.50849  0.10149  1.0000
  H   H4890     1.0  0.74662  0.59579  0.17823  1.0000
  C   C6125     1.0  0.64212  0.60646  0.13945  1.0000
  C   C6126     1.0  0.77902  0.55129  0.18804  1.0000
  C   C6127     1.0  0.93153  0.67115  0.06400  1.0000
  H   H4891     1.0  0.94167  0.62065  0.98914  1.0000
  S   S813      1.0  0.82023  0.73385  0.22808  1.0000
  C   C6128     1.0  0.76816  0.62208  0.15965  1.0000
  C   C6129     1.0  0.75748  0.63014  0.16950  1.0000
  C   C6130     1.0  0.74937  0.64807  0.16695  1.0000
  C   C6131     1.0  0.75175  0.65795  0.15456  1.0000
  C   C6132     1.0  0.76277  0.65003  0.14464  1.0000
  C   C6133     1.0  0.77081  0.63198  0.14726  1.0000
  P   P202      1.0  0.76651  0.66324  0.12878  1.0000
  C   C6134     1.0  0.74726  0.66715  0.12201  1.0000
  C   C6135     1.0  0.77139  0.68369  0.12925  1.0000
  C   C6136     1.0  0.77820  0.68459  0.13927  1.0000
  C   C6137     1.0  0.78204  0.70032  0.13965  1.0000
  H   H4892     1.0  0.90344  0.62751  0.19825  1.0000
  C   C6138     1.0  0.77309  0.71437  0.11978  1.0000
  C   C6139     1.0  0.76924  0.69861  0.11937  1.0000
  C   C6140     1.0  0.74889  0.67263  0.10886  1.0000
  C   C6141     1.0  0.73465  0.67389  0.10341  1.0000
  C   C6142     1.0  0.71870  0.66961  0.11102  1.0000
  C   C6143     1.0  0.71691  0.66428  0.12409  1.0000
  C   C6144     1.0  0.73112  0.66301  0.12957  1.0000
  C   C6145     1.0  0.78518  0.65184  0.11862  1.0000
  C   C6146     1.0  0.80200  0.65623  0.11536  1.0000
  C   C6147     1.0  0.81591  0.64817  0.10673  1.0000
  C   C6148     1.0  0.81322  0.63558  0.10142  1.0000
  C   C6149     1.0  0.79662  0.63093  0.10480  1.0000
  C   C6150     1.0  0.78267  0.63896  0.11341  1.0000
  H   H4893     1.0  0.77476  0.60822  0.16162  1.0000
  H   H4894     1.0  0.75586  0.62262  0.17915  1.0000
  H   H4895     1.0  0.74146  0.65435  0.17463  1.0000
  H   H4896     1.0  0.74534  0.67184  0.15276  1.0000
  H   H4897     1.0  0.77923  0.62547  0.13984  1.0000
  H   H4898     1.0  0.78074  0.67313  0.14680  1.0000
  H   H4899     1.0  0.78722  0.70077  0.14749  1.0000
  C   C6151     1.0  0.90719  0.63319  0.10386  1.0000
  C   C6152     1.0  0.73501  0.51780  0.20684  1.0000
  H   H4900     1.0  0.76482  0.69804  0.11128  1.0000
  H   H4901     1.0  0.76144  0.67518  0.10277  1.0000
  H   H4902     1.0  0.73620  0.67762  0.09324  1.0000
  H   H4903     1.0  0.70784  0.67003  0.10680  1.0000
  H   H4904     1.0  0.70478  0.66037  0.12999  1.0000
  H   H4905     1.0  0.72968  0.65794  0.13962  1.0000
  H   H4906     1.0  0.80447  0.66576  0.11946  1.0000
  H   H4907     1.0  0.82897  0.65138  0.10431  1.0000
  H   H4908     1.0  0.82417  0.62906  0.09496  1.0000
  H   H4909     1.0  0.79465  0.62078  0.10101  1.0000
  H   H4910     1.0  0.76995  0.63504  0.11604  1.0000
  C   C6153     1.0  0.98065  0.50940  0.09220  1.0000
  C   C6154     1.0  0.98638  0.52456  0.08452  1.0000
  C   C6155     1.0  0.97790  0.53464  0.07473  1.0000
  C   C6156     1.0  0.96354  0.52979  0.07270  1.0000
  C   C6157     1.0  0.95787  0.51448  0.08022  1.0000
  C   C6158     1.0  0.96641  0.50437  0.09008  1.0000
  P   P203      1.0  0.93817  0.50956  0.07826  1.0000
  C   C6159     1.0  0.91983  0.52485  0.08577  1.0000
  C   C6160     1.0  0.93919  0.51122  0.06177  1.0000
  C   C6161     1.0  0.92376  0.51198  0.05771  1.0000
  C   C6162     1.0  0.92490  0.51143  0.04523  1.0000
  C   C6163     1.0  0.81071  0.49765  0.15843  1.0000
  H   H4911     1.0  0.70744  0.51763  0.17540  1.0000
  C   C6164     1.0  0.98514  0.54316  0.00951  1.0000
  C   C6165     1.0  0.90830  0.53794  0.07887  1.0000
  C   C6166     1.0  0.89386  0.54925  0.08497  1.0000
  C   C6167     1.0  0.89130  0.54808  0.09789  1.0000
  C   C6168     1.0  0.90346  0.53591  0.10466  1.0000
  C   C6169     1.0  0.91770  0.52438  0.09863  1.0000
  C   C6170     1.0  0.61096  0.58458  0.18971  1.0000
  C   C6171     1.0  0.60260  0.64228  0.22638  1.0000
  C   C6172     1.0  0.81424  0.67423  0.19046  1.0000
  H   H4912     1.0  0.66392  0.69567  0.19372  1.0000
  C   C6173     1.0  0.83191  0.67393  0.20491  1.0000
  C   C6174     1.0  0.68921  0.51393  0.21133  1.0000
  H   H4913     1.0  0.66224  0.72580  0.19588  1.0000
  H   H4914     1.0  0.87073  0.50354  0.04309  1.0000
  H   H4915     1.0  0.63369  0.57172  0.21844  1.0000
  H   H4916     1.0  0.95673  0.53807  0.06531  1.0000
  C   C6175     1.0  0.87384  0.49684  0.13353  1.0000
  H   H4917     1.0  0.91086  0.51261  0.06421  1.0000
  S   S814      1.0  0.63223  0.50335  0.16920  1.0000
  C   C6176     1.0  0.58698  0.56022  0.18578  1.0000
  H   H4918     1.0  0.91050  0.53969  0.06877  1.0000
  H   H4919     1.0  0.88471  0.55903  0.07963  1.0000
  H   H4920     1.0  0.88002  0.55673  0.10266  1.0000
  H   H4921     1.0  0.85129  0.57227  0.02643  1.0000
  C   C6177     1.0  0.82362  0.51915  0.16219  1.0000
  C   C6178     1.0  0.91897  0.65237  0.05693  1.0000
  H   H4922     1.0  0.81627  0.64922  0.18625  1.0000
  H   H4923     1.0  0.87319  0.58442  0.00806  1.0000
  C   C6179     1.0  0.88572  0.62500  0.12322  1.0000
  C   C6180     1.0  0.60809  0.59662  0.19738  1.0000
  C   C6181     1.0  0.84976  0.59889  0.18459  1.0000
  H   H4924     1.0  0.77144  0.72584  0.11211  1.0000
  C   C6182     1.0  0.58114  0.60777  0.17765  1.0000
  C   C6183     1.0  0.96880  0.60411  0.00730  1.0000
  C   C6184     1.0  0.90139  0.62040  0.11440  1.0000
  C   C6185     1.0  0.52383  0.72993  0.09951  1.0000
  C   C6186     1.0  0.70128  0.68340  0.18306  1.0000
  H   H4925     1.0  0.78561  0.56449  0.19988  1.0000
  C   C6187     1.0  0.75607  0.58354  0.18069  1.0000
  C   C6188     1.0  0.98446  0.66259  0.99460  1.0000
  C   C6189     1.0  0.92663  0.64288  0.07754  1.0000
  H   H4926     1.0  0.91573  0.62628  0.00633  1.0000
  H   H4927     1.0  0.57818  0.53569  0.19407  1.0000
  H   H4928     1.0  0.93520  0.53125  0.98901  1.0000
  H   H4929     1.0  0.98887  0.62493  0.10971  1.0000
  H   H4930     1.0  0.72795  0.70676  0.19383  1.0000
  C   C6190     1.0  0.87264  0.49050  0.10116  1.0000
  C   C6191     1.0  0.50893  0.73750  0.10787  1.0000
  H   H4931     1.0  0.84882  0.53464  0.00686  1.0000
  C   C6192     1.0  0.86304  0.61626  0.20493  1.0000
  C   C6193     1.0  0.94136  0.51017  0.03670  1.0000
  C   C6194     1.0  0.88146  0.65523  0.11124  1.0000
  C   C6195     1.0  0.92475  0.66803  0.05481  1.0000
  C   C6196     1.0  0.74228  0.53112  0.16316  1.0000
  C   C6197     1.0  0.73260  0.53569  0.15364  1.0000
  H   H4932     1.0  0.73862  0.52138  0.17158  1.0000
  C   C6198     1.0  0.60386  0.67546  0.21041  1.0000
  C   C6199     1.0  0.64717  0.59169  0.14869  1.0000
  C   C6200     1.0  0.70297  0.51620  0.18549  1.0000
  S   S815      1.0  0.88481  0.50925  0.01616  1.0000
  C   C6201     1.0  0.91705  0.59155  0.98946  1.0000
  H   H4933     1.0  0.73604  0.54117  0.19213  1.0000
  C   C6202     1.0  0.61740  0.59744  0.16198  1.0000
  C   C6203     1.0  0.74258  0.52751  0.19526  1.0000
  H   H4934     1.0  0.86318  0.64572  0.12818  1.0000
  H   H4935     1.0  0.92998  0.56104  0.08174  1.0000
  C   C6204     1.0  0.58748  0.67040  0.21560  1.0000
  H   H4936     1.0  0.83241  0.49336  0.09496  1.0000
  H   H4937     1.0  0.88621  0.49837  0.13492  1.0000
  C   C6205     1.0  0.65934  0.65490  0.21246  1.0000
  C   C6206     1.0  0.97019  0.66178  0.03252  1.0000
  H   H4938     1.0  0.83530  0.52408  0.16153  1.0000
  H   H4939     1.0  0.72145  0.52974  0.15476  1.0000
  H   H4940     1.0  0.96964  0.50779  0.03413  1.0000
  H   H4941     1.0  0.58173  0.56513  0.19440  1.0000
  C   C6207     1.0  0.63500  0.58736  0.16000  1.0000
  C   C6208     1.0  0.61987  0.66393  0.21306  1.0000
  H   H4942     1.0  0.63929  0.57591  0.16702  1.0000
  S   S816      1.0  0.50606  0.72448  0.17722  1.0000
  H   H4943     1.0  0.83552  0.68075  0.21061  1.0000
  C   C6209     1.0  0.77938  0.71526  0.12996  1.0000
  H   H4944     1.0  0.98087  0.68758  0.99972  1.0000
  H   H4945     1.0  0.88092  0.61491  0.13102  1.0000
  H   H4946     1.0  0.61412  0.72345  0.22445  1.0000
  H   H4947     1.0  0.68331  0.52979  0.14479  1.0000
  C   C6210     1.0  0.60153  0.54656  0.16400  1.0000
  H   H4948     1.0  0.81421  0.69715  0.19680  1.0000
  C   C6211     1.0  0.98746  0.58331  0.05533  1.0000
  C   C6212     1.0  0.68799  0.63103  0.22234  1.0000
  C   C6213     1.0  0.97806  0.62748  0.09362  1.0000
  H   H4949     1.0  0.97997  0.57834  0.01742  1.0000
  P   P204      1.0  0.64114  0.67040  0.20579  1.0000
  C   C6214     1.0  0.69822  0.53135  0.19045  1.0000
  H   H4950     1.0  0.79295  0.59083  0.21492  1.0000
  C   C6215     1.0  0.58256  0.62510  0.17682  1.0000
  H   H4951     1.0  0.53581  0.61559  0.18132  1.0000
  H   H4952     1.0  0.90878  0.60678  0.11566  1.0000
  H   H4953     1.0  0.90119  0.66079  0.09434  1.0000
  H   H4954     1.0  0.53873  0.64608  0.17979  1.0000
  C   C6216     1.0  0.87569  0.64237  0.12160  1.0000
  C   C6217     1.0  0.50545  0.70659  0.15947  1.0000
  C   C6218     1.0  0.91239  0.60053  0.09053  1.0000
  C   C6219     1.0  0.97711  0.62530  0.10648  1.0000
  C   C6220     1.0  0.55050  0.63537  0.17926  1.0000
  H   H4955     1.0  0.56868  0.65219  0.17673  1.0000
  C   C6221     1.0  0.56735  0.63882  0.17758  1.0000
  C   C6222     1.0  0.54889  0.61820  0.18011  1.0000
  P   P205      1.0  0.84219  0.62329  0.19975  1.0000
  H   H4956     1.0  0.95809  0.56962  0.08051  1.0000
  C   C6223     1.0  0.94584  0.62411  0.11092  1.0000
  H   H4957     1.0  0.89950  0.60926  0.09284  1.0000
  H   H4958     1.0  0.83277  0.51184  0.05192  1.0000
  C   C6224     1.0  0.89299  0.62019  0.20283  1.0000
  H   H4959     1.0  0.90068  0.58113  0.08794  1.0000
  C   C6225     1.0  0.94664  0.62655  0.09797  1.0000
  C   C6226     1.0  0.91302  0.58449  0.08775  1.0000
  H   H4960     1.0  0.93357  0.62268  0.11779  1.0000
  C   C6227     1.0  0.92827  0.60551  0.08985  1.0000
  H   H4961     1.0  0.93766  0.66130  0.08240  1.0000
  H   H4962     1.0  0.91507  0.62797  0.06964  1.0000
  C   C6228     1.0  0.83896  0.65582  0.20557  1.0000
  C   C6229     1.0  0.72666  0.73077  0.15497  1.0000
  C   C6230     1.0  0.91585  0.63471  0.99701  1.0000
  H   H4963     1.0  0.90281  0.53269  0.99573  1.0000
  C   C6231     1.0  0.82114  0.65610  0.19119  1.0000
  C   C6232     1.0  0.63977  0.69232  0.20778  1.0000
  C   C6233     1.0  0.81081  0.71555  0.22997  1.0000
  H   H4964     1.0  0.81684  0.60289  0.19877  1.0000
  C   C6234     1.0  0.97750  0.66530  0.04130  1.0000
  C   C6235     1.0  0.98900  0.53748  0.03432  1.0000
  P   P206      1.0  0.60118  0.59041  0.17598  1.0000
  H   H4965     1.0  0.82810  0.62404  0.22633  1.0000
  H   H4966     1.0  0.68368  0.51315  0.22133  1.0000
  H   H4967     1.0  0.99057  0.62868  0.08687  1.0000
  C   C6236     1.0  0.70884  0.49522  0.14895  1.0000
  C   C6237     1.0  0.61605  0.59185  0.20782  1.0000
  H   H4968     1.0  0.84795  0.64883  0.21187  1.0000
  H   H4969     1.0  0.50415  0.69314  0.14570  1.0000
  C   C6238     1.0  0.88226  0.59600  0.21857  1.0000
  C   C6239     1.0  0.98655  0.61268  0.05755  1.0000
  C   C6240     1.0  0.52819  0.71163  0.10031  1.0000
  C   C6241     1.0  0.66690  0.71622  0.16740  1.0000
  C   C6242     1.0  0.82499  0.61359  0.21146  1.0000
  C   C6243     1.0  0.99976  0.65641  0.01907  1.0000
  H   H4970     1.0  0.73296  0.71157  0.13698  1.0000
  H   H4971     1.0  0.60150  0.50522  0.06315  1.0000
  H   H4972     1.0  0.63878  0.55015  0.20507  1.0000
  C   C6244     1.0  0.86599  0.60130  0.21467  1.0000
  H   H4973     1.0  0.80431  0.68122  0.18486  1.0000
  H   H4974     1.0  0.63130  0.51202  0.05257  1.0000
  H   H4975     1.0  0.96805  0.50811  0.05609  1.0000
  H   H4976     1.0  0.60213  0.62941  0.23256  1.0000
  H   H4977     1.0  0.73744  0.49283  0.22018  1.0000
  C   C6245     1.0  0.75403  0.72403  0.16248  1.0000
  Fe  Fe405     1.0  0.53627  0.72129  0.17393  1.0000
  H   H4978     1.0  0.61740  0.70003  0.14073  1.0000
  H   H4979     1.0  0.91831  0.69323  0.99640  1.0000
  H   H4980     1.0  0.57414  0.64988  0.22749  1.0000
  H   H4981     1.0  0.56750  0.73361  0.22753  1.0000
  C   C6246     1.0  0.80113  0.59752  0.21746  1.0000
  C   C6247     1.0  0.63909  0.71316  0.13721  1.0000
  H   H4982     1.0  0.85580  0.59368  0.21926  1.0000
  C   C6248     1.0  0.72667  0.49635  0.14389  1.0000
  H   H4983     1.0  0.83733  0.49842  0.99211  1.0000
  C   C6249     1.0  0.50286  0.70822  0.11777  1.0000
  H   H4984     1.0  0.69918  0.62190  0.22599  1.0000
  C   C6250     1.0  0.85320  0.51792  0.98810  1.0000
  H   H4985     1.0  0.75111  0.72378  0.19163  1.0000
  H   H4986     1.0  0.68125  0.70376  0.12420  1.0000
  C   C6251     1.0  0.64400  0.72941  0.13452  1.0000
  H   H4987     1.0  0.73301  0.55687  0.22310  1.0000
  C   C6252     1.0  0.79730  0.60015  0.22974  1.0000
  H   H4988     1.0  0.80266  0.72543  0.21217  1.0000
  H   H4989     1.0  0.77592  0.73964  0.18334  1.0000
  C   C6253     1.0  0.68755  0.72240  0.21145  1.0000
  H   H4990     1.0  0.71743  0.74006  0.14952  1.0000
  H   H4991     1.0  0.98229  0.49654  0.00785  1.0000
  H   H4992     1.0  0.66965  0.49811  0.18779  1.0000
  H   H4993     1.0  0.89857  0.50814  0.98449  1.0000
  C   C6254     1.0  0.75473  0.72988  0.19773  1.0000
  H   H4994     1.0  0.50552  0.73155  0.20852  1.0000
  H   H4995     1.0  0.75252  0.49271  0.14790  1.0000
  C   C6255     1.0  0.63798  0.72662  0.21021  1.0000
  H   H4996     1.0  0.88441  0.58453  0.22617  1.0000
  H   H4997     1.0  0.69074  0.65299  0.22856  1.0000
  C   C6256     1.0  0.79462  0.68717  0.23267  1.0000
  C   C6257     1.0  0.85068  0.50070  0.99028  1.0000
  H   H4998     1.0  0.76566  0.72797  0.16313  1.0000
  H   H4999     1.0  0.63803  0.72346  0.17227  1.0000
  H   H5000     1.0  0.74952  0.57215  0.23083  1.0000
  C   C6258     1.0  0.89573  0.60548  0.21269  1.0000
  C   C6259     1.0  0.84200  0.49263  0.12986  1.0000
  C   C6260     1.0  0.98691  0.67990  0.99251  1.0000
  H   H5001     1.0  0.77981  0.49616  0.18725  1.0000
  C   C6261     1.0  0.74329  0.50025  0.21114  1.0000
  H   H5002     1.0  0.59443  0.72795  0.13842  1.0000
  C   C6262     1.0  0.63019  0.50044  0.06016  1.0000
  C   C6263     1.0  0.58029  0.73572  0.20791  1.0000
  H   H5003     1.0  0.99484  0.56992  0.05501  1.0000
  C   C6264     1.0  0.57630  0.74023  0.21964  1.0000
  H   H5004     1.0  0.65855  0.49231  0.05938  1.0000
  H   H5005     1.0  0.88525  0.49262  0.06566  1.0000
  C   C6265     1.0  0.68424  0.73991  0.20455  1.0000
  H   H5006     1.0  0.51548  0.73924  0.13011  1.0000
  C   C6266     1.0  0.76867  0.73887  0.19305  1.0000
  C   C6267     1.0  0.60832  0.72836  0.13718  1.0000
  H   H5007     1.0  0.82968  0.49105  0.12844  1.0000
  H   H5008     1.0  0.71219  0.71559  0.23353  1.0000
  C   C6268     1.0  0.80715  0.60962  0.23290  1.0000
  S   S817      1.0  0.99143  0.65914  0.32489  1.0000
  C   C6269     1.0  0.98667  0.68458  0.34928  1.0000
  Fe  Fe406     1.0  0.90201  0.59951  0.44136  1.0000
  S   S818      1.0  0.91740  0.57151  0.44637  1.0000
  S   S819      1.0  0.87769  0.61410  0.45303  1.0000
  Fe  Fe407     1.0  0.92768  0.60866  0.41694  1.0000
  S   S820      1.0  0.94534  0.58178  0.41959  1.0000
  S   S821      1.0  0.93577  0.63158  0.40186  1.0000
  Fe  Fe408     1.0  0.92042  0.57097  0.42604  1.0000
  S   S822      1.0  0.92795  0.54523  0.41930  1.0000
  Fe  Fe409     1.0  0.94148  0.58360  0.43959  1.0000
  S   S823      1.0  0.96481  0.57266  0.44921  1.0000
  S   S824      1.0  0.90277  0.59818  0.42147  1.0000
  S   S825      1.0  0.92582  0.61146  0.43645  1.0000
  H   H5009     1.0  0.87787  0.72659  0.30476  1.0000
  C   C6270     1.0  0.92532  0.50750  0.38808  1.0000
  C   C6271     1.0  0.99033  0.71431  0.34709  1.0000
  H   H5010     1.0  0.97282  0.62047  0.40491  1.0000
  C   C6272     1.0  0.99591  0.58036  0.44981  1.0000
  C   C6273     1.0  0.91718  0.70640  0.38089  1.0000
  H   H5011     1.0  0.89908  0.65330  0.40446  1.0000
  C   C6274     1.0  0.91171  0.66479  0.43016  1.0000
  H   H5012     1.0  0.88308  0.71243  0.26642  1.0000
  S   S826      1.0  0.85161  0.70398  0.28459  1.0000
  Fe  Fe410     1.0  0.93392  0.68906  0.30966  1.0000
  S   S827      1.0  0.91263  0.69634  0.32619  1.0000
  S   S828      1.0  0.93087  0.69503  0.28967  1.0000
  Fe  Fe411     1.0  0.96303  0.67417  0.32449  1.0000
  S   S829      1.0  0.94459  0.68006  0.34240  1.0000
  C   C6275     1.0  0.94776  0.50309  0.46982  1.0000
  Fe  Fe412     1.0  0.92488  0.66993  0.33697  1.0000
  S   S830      1.0  0.90818  0.65197  0.35141  1.0000
  Fe  Fe413     1.0  0.93351  0.70600  0.33064  1.0000
  H   H5013     1.0  0.92411  0.69580  0.41077  1.0000
  S   S831      1.0  0.94435  0.66161  0.31994  1.0000
  S   S832      1.0  0.95385  0.70125  0.31307  1.0000
  C   C6276     1.0  0.87377  0.70083  0.28596  1.0000
  C   C6277     1.0  0.87857  0.69291  0.29763  1.0000
  C   C6278     1.0  0.89616  0.69087  0.29883  1.0000
  C   C6279     1.0  0.90907  0.69641  0.28830  1.0000
  C   C6280     1.0  0.90437  0.70385  0.27657  1.0000
  C   C6281     1.0  0.88668  0.70637  0.27545  1.0000
  H   H5014     1.0  0.86862  0.68853  0.30575  1.0000
  H   H5015     1.0  0.89976  0.68492  0.30787  1.0000
  H   H5016     1.0  0.91432  0.70804  0.26839  1.0000
  C   C6282     1.0  0.96599  0.72760  0.25557  1.0000
  H   H5017     1.0  0.91583  0.64748  0.46074  1.0000
  H   H5018     1.0  0.99190  0.61614  0.47002  1.0000
  H   H5019     1.0  0.86200  0.64596  0.46193  1.0000
  H   H5020     1.0  0.97104  0.69819  0.28341  1.0000
  H   H5021     1.0  0.70839  0.68525  0.24325  1.0000
  C   C6283     1.0  0.74662  0.70127  0.24902  1.0000
  H   H5022     1.0  0.88475  0.58007  0.46862  1.0000
  C   C6284     1.0  0.85908  0.72989  0.33024  1.0000
  H   H5023     1.0  0.96853  0.49389  0.34191  1.0000
  C   C6285     1.0  0.99014  0.52975  0.34584  1.0000
  C   C6286     1.0  0.81078  0.70194  0.24078  1.0000
  H   H5024     1.0  0.93906  0.52877  0.38253  1.0000
  C   C6287     1.0  0.87420  0.71536  0.44191  1.0000
  H   H5025     1.0  0.97616  0.72346  0.24775  1.0000
  C   C6288     1.0  0.94051  0.62532  0.48224  1.0000
  H   H5026     1.0  0.98450  0.73639  0.36903  1.0000
  C   C6289     1.0  0.97762  0.61871  0.47383  1.0000
  C   C6290     1.0  0.96567  0.61154  0.37508  1.0000
  C   C6291     1.0  0.97082  0.66006  0.37762  1.0000
  C   C6292     1.0  0.92617  0.63755  0.38864  1.0000
  C   C6293     1.0  0.91792  0.62615  0.38595  1.0000
  C   C6294     1.0  0.91162  0.63091  0.37472  1.0000
  C   C6295     1.0  0.91342  0.64710  0.36632  1.0000
  C   C6296     1.0  0.92017  0.65904  0.36967  1.0000
  C   C6297     1.0  0.92678  0.65418  0.38070  1.0000
  H   H5027     1.0  0.91711  0.61341  0.39222  1.0000
  H   H5028     1.0  0.90606  0.62176  0.37228  1.0000
  H   H5029     1.0  0.92017  0.67208  0.36381  1.0000
  H   H5030     1.0  0.93231  0.66335  0.38310  1.0000
  H   H5031     1.0  0.97990  0.67070  0.42926  1.0000
  C   C6298     1.0  0.92475  0.70549  0.39093  1.0000
  H   H5032     1.0  0.93588  0.71170  0.38925  1.0000
  H   H5033     1.0  0.95962  0.61082  0.44158  1.0000
  H   H5034     1.0  0.99503  0.56641  0.41958  1.0000
  C   C6299     1.0  0.89924  0.50321  0.41881  1.0000
  C   C6300     1.0  0.87875  0.74021  0.30053  1.0000
  C   C6301     1.0  0.92598  0.51198  0.41909  1.0000
  C   C6302     1.0  0.91621  0.52925  0.41981  1.0000
  C   C6303     1.0  0.89787  0.53348  0.42005  1.0000
  C   C6304     1.0  0.88947  0.52053  0.41941  1.0000
  H   H5035     1.0  0.91268  0.51552  0.39195  1.0000
  H   H5036     1.0  0.94019  0.50864  0.41882  1.0000
  H   H5037     1.0  0.89029  0.54679  0.42043  1.0000
  H   H5038     1.0  0.87536  0.52395  0.41937  1.0000
  H   H5039     1.0  0.93545  0.50093  0.34864  1.0000
  C   C6305     1.0  0.98314  0.59373  0.41339  1.0000
  H   H5040     1.0  0.98684  0.66740  0.40496  1.0000
  C   C6306     1.0  0.98228  0.66538  0.39735  1.0000
  P   P207      1.0  0.97970  0.65246  0.47470  1.0000
  C   C6307     1.0  0.93110  0.55231  0.47501  1.0000
  S   S833      1.0  0.92578  0.72957  0.33954  1.0000
  H   H5041     1.0  0.75765  0.70502  0.25063  1.0000
  C   C6308     1.0  0.74434  0.68399  0.25447  1.0000
  H   H5042     1.0  0.85830  0.69632  0.41980  1.0000
  S   S834      1.0  0.85946  0.72443  0.24707  1.0000
  C   C6309     1.0  0.96225  0.50920  0.47068  1.0000
  C   C6310     1.0  0.98280  0.64635  0.38375  1.0000
  H   H5043     1.0  0.98333  0.55054  0.36353  1.0000
  C   C6311     1.0  0.87401  0.69944  0.34654  1.0000
  C   C6312     1.0  0.86624  0.69782  0.33732  1.0000
  C   C6313     1.0  0.85897  0.71293  0.32912  1.0000
  C   C6314     1.0  0.90680  0.66014  0.44339  1.0000
  C   C6315     1.0  0.98919  0.53886  0.33347  1.0000
  C   C6316     1.0  0.87424  0.57297  0.47053  1.0000
  P   P208      1.0  0.97599  0.51444  0.37067  1.0000
  C   C6317     1.0  0.96238  0.51054  0.44286  1.0000
  H   H5044     1.0  0.97337  0.51096  0.46274  1.0000
  C   C6318     1.0  0.98049  0.66376  0.44896  1.0000
  C   C6319     1.0  0.95814  0.53167  0.35093  1.0000
  H   H5045     1.0  0.96003  0.73478  0.28502  1.0000
  H   H5046     1.0  0.82386  0.49155  0.42060  1.0000
  H   H5047     1.0  0.96608  0.53404  0.41019  1.0000
  C   C6320     1.0  0.88227  0.62209  0.46460  1.0000
  P   P209      1.0  0.73740  0.73561  0.23438  1.0000
  Fe  Fe414     1.0  0.83192  0.73725  0.24337  1.0000
  H   H5048     1.0  0.95273  0.69487  0.43172  1.0000
  C   C6321     1.0  0.88009  0.69457  0.42843  1.0000
  H   H5049     1.0  0.98937  0.69587  0.31261  1.0000
  P   P210      1.0  0.99196  0.62587  0.37833  1.0000
  H   H5050     1.0  0.88013  0.68763  0.35261  1.0000
  H   H5051     1.0  0.86636  0.68477  0.33630  1.0000
  H   H5052     1.0  0.85354  0.71128  0.32179  1.0000
  C   C6322     1.0  0.97356  0.67378  0.43843  1.0000
  C   C6323     1.0  0.99354  0.60716  0.39147  1.0000
  C   C6324     1.0  0.87500  0.64490  0.47663  1.0000
  C   C6325     1.0  0.93370  0.50094  0.48044  1.0000
  C   C6326     1.0  0.87487  0.71618  0.34737  1.0000
  C   C6327     1.0  0.99264  0.51010  0.43032  1.0000
  H   H5053     1.0  0.94235  0.59949  0.47926  1.0000
  H   H5054     1.0  0.97458  0.59480  0.42252  1.0000
  H   H5055     1.0  0.94505  0.60091  0.37269  1.0000
  C   C6328     1.0  0.91424  0.49794  0.45014  1.0000
  C   C6329     1.0  0.93765  0.64650  0.44450  1.0000
  C   C6330     1.0  0.97108  0.52550  0.39290  1.0000
  C   C6331     1.0  0.95685  0.50450  0.37800  1.0000
  C   C6332     1.0  0.94254  0.65039  0.43131  1.0000
  H   H5056     1.0  0.81699  0.70227  0.24811  1.0000
  H   H5057     1.0  0.93832  0.54717  0.46667  1.0000
  H   H5058     1.0  0.97832  0.66853  0.29651  1.0000
  H   H5059     1.0  0.90083  0.73291  0.28572  1.0000
  H   H5060     1.0  0.89682  0.69926  0.37528  1.0000
  C   C6333     1.0  0.89582  0.68973  0.39524  1.0000
  H   H5061     1.0  0.85421  0.49290  0.40742  1.0000
  H   H5062     1.0  0.97898  0.67582  0.34860  1.0000
  C   C6334     1.0  0.95456  0.60934  0.36819  1.0000
  C   C6335     1.0  0.97024  0.53752  0.40002  1.0000
  C   C6336     1.0  0.96823  0.60589  0.47475  1.0000
  C   C6337     1.0  0.97896  0.55865  0.38089  1.0000
  H   H5063     1.0  0.95625  0.64595  0.42660  1.0000
  H   H5064     1.0  0.94444  0.73033  0.24651  1.0000
  C   C6338     1.0  0.85690  0.72192  0.43968  1.0000
  C   C6339     1.0  0.94803  0.73141  0.25482  1.0000
  C   C6340     1.0  0.96492  0.67640  0.38115  1.0000
  C   C6341     1.0  0.85232  0.56495  0.46313  1.0000
  H   H5065     1.0  0.98170  0.57162  0.37629  1.0000
  H   H5066     1.0  0.92252  0.71315  0.37140  1.0000
  H   H5067     1.0  0.96644  0.70802  0.34534  1.0000
  H   H5068     1.0  0.89294  0.66332  0.44824  1.0000
  C   C6342     1.0  0.97462  0.52604  0.35467  1.0000
  C   C6343     1.0  0.84693  0.55493  0.47517  1.0000
  C   C6344     1.0  0.97291  0.60548  0.44338  1.0000
  H   H5069     1.0  0.98201  0.72018  0.32388  1.0000
  S   S835      1.0  0.78518  0.66883  0.23468  1.0000
  C   C6345     1.0  0.86591  0.57403  0.46083  1.0000
  C   C6346     1.0  0.91751  0.49894  0.41880  1.0000
  H   H5070     1.0  0.84748  0.64265  0.43960  1.0000
  C   C6347     1.0  0.95724  0.54079  0.33855  1.0000
  C   C6348     1.0  0.97274  0.54438  0.32982  1.0000
  C   C6349     1.0  0.94995  0.69081  0.45180  1.0000
  H   H5071     1.0  0.96436  0.60482  0.38491  1.0000
  C   C6350     1.0  0.97577  0.52997  0.37968  1.0000
  C   C6351     1.0  0.94035  0.51491  0.38279  1.0000
  H   H5072     1.0  0.98099  0.68738  0.47679  1.0000
  C   C6352     1.0  0.98239  0.60837  0.40335  1.0000
  C   C6353     1.0  0.90267  0.69859  0.38307  1.0000
  C   C6354     1.0  0.97982  0.54663  0.37370  1.0000
  H   H5073     1.0  0.88199  0.63195  0.40467  1.0000
  C   C6355     1.0  0.98898  0.67538  0.29127  1.0000
  C   C6356     1.0  0.95828  0.68732  0.43984  1.0000
  C   C6357     1.0  0.89618  0.50441  0.44968  1.0000
  C   C6358     1.0  0.97871  0.58720  0.44737  1.0000
  C   C6359     1.0  0.96922  0.73975  0.31028  1.0000
  P   P211      1.0  0.94657  0.49928  0.45500  1.0000
  H   H5074     1.0  0.94591  0.52920  0.35753  1.0000
  C   C6360     1.0  0.80282  0.68776  0.24207  1.0000
  H   H5075     1.0  0.94445  0.54525  0.33576  1.0000
  H   H5076     1.0  0.97197  0.55159  0.32027  1.0000
  H   H5077     1.0  0.96603  0.65829  0.37005  1.0000
  C   C6361     1.0  0.97955  0.50110  0.43815  1.0000
  H   H5078     1.0  0.85609  0.62650  0.42228  1.0000
  C   C6362     1.0  0.92960  0.65935  0.42414  1.0000
  H   H5079     1.0  0.94980  0.68312  0.47160  1.0000
  H   H5080     1.0  0.88911  0.49656  0.44719  1.0000
  H   H5081     1.0  0.89922  0.69704  0.43799  1.0000
  H   H5082     1.0  0.80372  0.61223  0.24230  1.0000
  C   C6363     1.0  0.91813  0.69636  0.40309  1.0000
  C   C6364     1.0  0.97777  0.62275  0.36940  1.0000
  H   H5083     1.0  0.87856  0.72067  0.44813  1.0000
  H   H5084     1.0  0.93786  0.70101  0.45298  1.0000
  H   H5085     1.0  0.88175  0.71737  0.35407  1.0000
  C   C6365     1.0  0.71887  0.68982  0.24506  1.0000
  C   C6366     1.0  0.97215  0.53800  0.43216  1.0000
  C   C6367     1.0  0.95880  0.52911  0.43967  1.0000
  C   C6368     1.0  0.92370  0.50809  0.45316  1.0000
  H   H5086     1.0  0.97362  0.51817  0.48244  1.0000
  C   C6369     1.0  0.86749  0.73135  0.33925  1.0000
  C   C6370     1.0  0.88742  0.52109  0.45212  1.0000
  C   C6371     1.0  0.89669  0.53120  0.45517  1.0000
  C   C6372     1.0  0.91466  0.52467  0.45581  1.0000
  Fe  Fe415     1.0  0.84646  0.72491  0.26740  1.0000
  H   H5087     1.0  0.77362  0.72549  0.23917  1.0000
  H   H5088     1.0  0.72892  0.66478  0.25660  1.0000
  C   C6373     1.0  0.97407  0.55411  0.39405  1.0000
  C   C6374     1.0  0.98491  0.69238  0.28386  1.0000
  H   H5089     1.0  0.96941  0.55226  0.43017  1.0000
  H   H5090     1.0  0.94594  0.53687  0.44323  1.0000
  C   C6375     1.0  0.98434  0.61685  0.44168  1.0000
  C   C6376     1.0  0.73041  0.67830  0.25258  1.0000
  C   C6377     1.0  0.97053  0.72899  0.26640  1.0000
  H   H5091     1.0  0.87354  0.52622  0.45150  1.0000
  H   H5092     1.0  0.89002  0.54413  0.45699  1.0000
  H   H5093     1.0  0.92148  0.53245  0.45851  1.0000
  H   H5094     1.0  0.75377  0.67482  0.25986  1.0000
  H   H5095     1.0  0.86417  0.66448  0.43923  1.0000
  C   C6378     1.0  0.95691  0.73408  0.27645  1.0000
  H   H5096     1.0  0.78624  0.59542  0.23667  1.0000
  C   C6379     1.0  0.73500  0.71304  0.24150  1.0000
  C   C6380     1.0  0.85126  0.71506  0.43167  1.0000
  C   C6381     1.0  0.96673  0.63013  0.35010  1.0000
  C   C6382     1.0  0.95489  0.61883  0.35577  1.0000
  H   H5097     1.0  0.96679  0.63764  0.34053  1.0000
  H   H5098     1.0  0.94560  0.61785  0.35065  1.0000
  H   H5099     1.0  0.95599  0.68694  0.37612  1.0000
  H   H5100     1.0  0.96784  0.51279  0.39778  1.0000
  H   H5101     1.0  0.84786  0.73230  0.44418  1.0000
  H   H5102     1.0  0.96620  0.69177  0.39366  1.0000
  H   H5103     1.0  0.80306  0.67716  0.25039  1.0000
  H   H5104     1.0  0.94759  0.63934  0.45009  1.0000
  H   H5105     1.0  0.97991  0.63095  0.43853  1.0000
  C   C6383     1.0  0.85821  0.64565  0.43161  1.0000
  H   H5106     1.0  0.84599  0.56572  0.45557  1.0000
  C   C6384     1.0  0.87210  0.63835  0.46723  1.0000
  S   S836      1.0  0.81861  0.73516  0.26388  1.0000
  C   C6385     1.0  0.97243  0.66731  0.46096  1.0000
  H   H5107     1.0  0.83787  0.72017  0.42991  1.0000
  H   H5108     1.0  0.86722  0.65761  0.47847  1.0000
  H   H5109     1.0  0.87009  0.58186  0.45150  1.0000
  C   C6386     1.0  0.95691  0.68077  0.46234  1.0000
  C   C6387     1.0  0.88583  0.70184  0.43622  1.0000
  C   C6388     1.0  0.86317  0.63642  0.42191  1.0000
  H   H5110     1.0  0.97291  0.56351  0.39966  1.0000
  C   C6389     1.0  0.91975  0.65117  0.45053  1.0000
  C   C6390     1.0  0.97820  0.63205  0.35685  1.0000
  C   C6391     1.0  0.98904  0.52850  0.42741  1.0000
  P   P212      1.0  0.99351  0.72369  0.26782  1.0000
  H   H5111     1.0  0.93352  0.66155  0.41395  1.0000
  H   H5112     1.0  0.95466  0.55715  0.47812  1.0000
  H   H5113     1.0  0.90576  0.54869  0.47424  1.0000
  C   C6392     1.0  0.89516  0.61218  0.47164  1.0000
  C   C6393     1.0  0.86284  0.70150  0.42600  1.0000
  C   C6394     1.0  0.97067  0.67908  0.39099  1.0000
  C   C6395     1.0  0.97976  0.70283  0.34726  1.0000
  H   H5114     1.0  0.98715  0.64104  0.35232  1.0000
  H   H5115     1.0  0.97535  0.59346  0.47209  1.0000
  C   C6396     1.0  0.87777  0.63943  0.41203  1.0000
  P   P213      1.0  0.89484  0.67696  0.42115  1.0000
  C   C6397     1.0  0.88744  0.65160  0.41189  1.0000
  C   C6398     1.0  0.86778  0.65797  0.43139  1.0000
  C   C6399     1.0  0.88218  0.66139  0.42132  1.0000
  H   H5116     1.0  0.99185  0.65290  0.44782  1.0000
  H   H5117     1.0  0.97144  0.73077  0.30415  1.0000
  H   H5118     1.0  0.90301  0.59951  0.46975  1.0000
  H   H5119     1.0  0.83637  0.54789  0.47698  1.0000
  H   H5120     1.0  0.88430  0.68418  0.39670  1.0000
  C   C6400     1.0  0.90385  0.68804  0.40530  1.0000
  C   C6401     1.0  0.96849  0.63471  0.47752  1.0000
  C   C6402     1.0  0.98834  0.64910  0.39374  1.0000
  H   H5121     1.0  0.99754  0.63871  0.39866  1.0000
  C   C6403     1.0  0.99660  0.49778  0.37030  1.0000
  C   C6404     1.0  0.94965  0.60927  0.47881  1.0000
  C   C6405     1.0  0.93456  0.73663  0.26483  1.0000
  C   C6406     1.0  0.91266  0.55339  0.47924  1.0000
  C   C6407     1.0  0.94039  0.55789  0.48150  1.0000
  H   H5122     1.0  0.79705  0.72365  0.32700  1.0000
  C   C6408     1.0  0.72118  0.70706  0.23950  1.0000
  C   C6409     1.0  0.97525  0.73377  0.32152  1.0000
  C   C6410     1.0  0.93904  0.73792  0.27564  1.0000
  C   C6411     1.0  0.76620  0.73617  0.24387  1.0000
  H   H5123     1.0  0.78874  0.73648  0.25080  1.0000
  H   H5124     1.0  0.99941  0.53530  0.42155  1.0000
  C   C6412     1.0  0.89739  0.61833  0.48155  1.0000
  P   P214      1.0  0.98174  0.73798  0.34354  1.0000
  H   H5125     1.0  0.92238  0.49622  0.48006  1.0000
  C   C6413     1.0  0.94985  0.63794  0.48167  1.0000
  H   H5126     1.0  0.79531  0.73167  0.30440  1.0000
  H   H5127     1.0  0.82040  0.73164  0.33363  1.0000
  C   C6414     1.0  0.80632  0.73097  0.32008  1.0000
  C   C6415     1.0  0.96252  0.51329  0.48187  1.0000
  C   C6416     1.0  0.80530  0.73548  0.30737  1.0000
  C   C6417     1.0  0.81957  0.73550  0.32378  1.0000
  H   H5128     1.0  0.70531  0.73968  0.25426  1.0000
  H   H5129     1.0  0.92068  0.73947  0.26418  1.0000
  C   C6418     1.0  0.99444  0.57757  0.41162  1.0000
  C   C6419     1.0  0.86892  0.56299  0.48265  1.0000
  H   H5130     1.0  0.92584  0.73999  0.31271  1.0000
  C   C6420     1.0  0.99858  0.70152  0.27725  1.0000
  C   C6421     1.0  0.99626  0.73990  0.27512  1.0000
  C   C6422     1.0  0.89408  0.66805  0.67999  1.0000
  C   C6423     1.0  0.99635  0.50119  0.54486  1.0000
  H   H5131     1.0  0.92764  0.62181  0.57475  1.0000
  H   H5132     1.0  0.84807  0.62489  0.49315  1.0000
  C   C6424     1.0  0.90324  0.56059  0.48981  1.0000
  H   H5133     1.0  0.97570  0.57059  0.59563  1.0000
  H   H5134     1.0  0.95600  0.63703  0.60158  1.0000
  Fe  Fe416     1.0  0.94138  0.60780  0.51668  1.0000
  S   S837      1.0  0.92607  0.63588  0.51618  1.0000
  S   S838      1.0  0.97102  0.60121  0.50898  1.0000
  Fe  Fe417     1.0  0.90879  0.59218  0.53007  1.0000
  S   S839      1.0  0.89096  0.61900  0.53077  1.0000
  S   S840      1.0  0.89604  0.56851  0.53785  1.0000
  Fe  Fe418     1.0  0.90544  0.62679  0.51070  1.0000
  Fe  Fe419     1.0  0.91325  0.62533  0.53628  1.0000
  S   S841      1.0  0.90764  0.63637  0.55383  1.0000
  S   S842      1.0  0.92180  0.59951  0.50968  1.0000
  S   S843      1.0  0.93003  0.59770  0.53710  1.0000
  Fe  Fe420     1.0  0.93704  0.70238  0.57847  1.0000
  S   S844      1.0  0.94522  0.68031  0.59423  1.0000
  S   S845      1.0  0.93790  0.69890  0.55899  1.0000
  C   C6425     1.0  0.78002  0.73103  0.71098  1.0000
  S   S846      1.0  0.93996  0.71040  0.61058  1.0000
  Fe  Fe421     1.0  0.96151  0.69747  0.59637  1.0000
  Fe  Fe422     1.0  0.92295  0.69484  0.60716  1.0000
  S   S847      1.0  0.90763  0.67592  0.62183  1.0000
  S   S848      1.0  0.95535  0.71854  0.57955  1.0000
  S   S849      1.0  0.91321  0.71572  0.59119  1.0000
  C   C6426     1.0  0.97182  0.61817  0.52659  1.0000
  C   C6427     1.0  0.95077  0.61539  0.58293  1.0000
  C   C6428     1.0  0.93416  0.50487  0.49167  1.0000
  H   H5135     1.0  0.95749  0.62231  0.52767  1.0000
  C   C6429     1.0  0.83558  0.73587  0.63422  1.0000
  S   S850      1.0  0.85855  0.72564  0.68813  1.0000
  C   C6430     1.0  0.76233  0.67837  0.72710  1.0000
  H   H5136     1.0  0.98410  0.67085  0.64825  1.0000
  C   C6431     1.0  0.91286  0.56560  0.49654  1.0000
  C   C6432     1.0  0.98209  0.66975  0.56991  1.0000
  C   C6433     1.0  0.97695  0.68777  0.66724  1.0000
  H   H5137     1.0  0.93862  0.56814  0.49761  1.0000
  H   H5138     1.0  0.72451  0.70440  0.73321  1.0000
  C   C6434     1.0  0.83945  0.71071  0.72429  1.0000
  H   H5139     1.0  0.85552  0.68558  0.73170  1.0000
  H   H5140     1.0  0.85014  0.71446  0.71660  1.0000
  C   C6435     1.0  0.89396  0.68074  0.63611  1.0000
  C   C6436     1.0  0.89177  0.69679  0.63955  1.0000
  C   C6437     1.0  0.87931  0.70047  0.65060  1.0000
  C   C6438     1.0  0.86907  0.68814  0.65809  1.0000
  C   C6439     1.0  0.87197  0.67185  0.65490  1.0000
  C   C6440     1.0  0.88437  0.66816  0.64398  1.0000
  H   H5141     1.0  0.89933  0.70645  0.63356  1.0000
  S   S851      1.0  0.81805  0.73275  0.68303  1.0000
  H   H5142     1.0  0.88610  0.65571  0.64138  1.0000
  C   C6441     1.0  0.91651  0.65364  0.55498  1.0000
  C   C6442     1.0  0.92660  0.66318  0.54449  1.0000
  C   C6443     1.0  0.93317  0.67699  0.54583  1.0000
  C   C6444     1.0  0.92989  0.68119  0.55768  1.0000
  C   C6445     1.0  0.92003  0.67149  0.56818  1.0000
  C   C6446     1.0  0.91320  0.65793  0.56680  1.0000
  H   H5143     1.0  0.92900  0.66011  0.53536  1.0000
  H   H5144     1.0  0.94077  0.68449  0.53770  1.0000
  H   H5145     1.0  0.91736  0.67467  0.57733  1.0000
  H   H5146     1.0  0.90523  0.65076  0.57493  1.0000
  C   C6447     1.0  0.92943  0.51639  0.52772  1.0000
  C   C6448     1.0  0.93705  0.53125  0.52441  1.0000
  C   C6449     1.0  0.92657  0.54761  0.52680  1.0000
  C   C6450     1.0  0.90855  0.54905  0.53281  1.0000
  C   C6451     1.0  0.90075  0.53438  0.53568  1.0000
  C   C6452     1.0  0.91113  0.51810  0.53300  1.0000
  H   H5147     1.0  0.95118  0.52999  0.52024  1.0000
  H   H5148     1.0  0.93256  0.55893  0.52451  1.0000
  H   H5149     1.0  0.88677  0.53550  0.54026  1.0000
  H   H5150     1.0  0.91125  0.70488  0.67163  1.0000
  H   H5151     1.0  0.86427  0.66221  0.66071  1.0000
  C   C6453     1.0  0.86495  0.59775  0.51804  1.0000
  H   H5152     1.0  0.96604  0.56616  0.56028  1.0000
  H   H5153     1.0  0.85889  0.73285  0.57647  1.0000
  H   H5154     1.0  0.93674  0.65209  0.66571  1.0000
  C   C6454     1.0  0.99366  0.67610  0.55882  1.0000
  C   C6455     1.0  0.97132  0.65976  0.62568  1.0000
  C   C6456     1.0  0.98587  0.51309  0.55249  1.0000
  C   C6457     1.0  0.94544  0.67345  0.63960  1.0000
  H   H5155     1.0  0.94868  0.51452  0.50095  1.0000
  H   H5156     1.0  0.87076  0.71799  0.61298  1.0000
  H   H5157     1.0  0.87746  0.71288  0.65323  1.0000
  C   C6458     1.0  0.81587  0.65931  0.72095  1.0000
  H   H5158     1.0  0.94318  0.62103  0.59093  1.0000
  C   C6459     1.0  0.85656  0.61315  0.51072  1.0000
  C   C6460     1.0  0.97151  0.65472  0.55851  1.0000
  C   C6461     1.0  0.90916  0.65604  0.67532  1.0000
  C   C6462     1.0  0.95947  0.66724  0.68170  1.0000
  H   H5159     1.0  0.83700  0.69176  0.64495  1.0000
  H   H5160     1.0  0.87219  0.73324  0.70640  1.0000
  P   P215      1.0  0.98342  0.53679  0.54684  1.0000
  C   C6463     1.0  0.97514  0.66945  0.64311  1.0000
  C   C6464     1.0  0.83102  0.72018  0.64189  1.0000
  H   H5161     1.0  0.97702  0.72056  0.60253  1.0000
  C   C6465     1.0  0.89504  0.68552  0.67874  1.0000
  S   S852      1.0  0.89022  0.64385  0.49577  1.0000
  H   H5162     1.0  0.79354  0.70553  0.71977  1.0000
  H   H5163     1.0  0.99672  0.54168  0.59495  1.0000
  H   H5164     1.0  0.85579  0.55450  0.52071  1.0000
  C   C6466     1.0  0.92520  0.66153  0.66938  1.0000
  H   H5165     1.0  0.94849  0.58591  0.63756  1.0000
  C   C6467     1.0  0.95098  0.60882  0.56318  1.0000
  C   C6468     1.0  0.97105  0.65903  0.56975  1.0000
  C   C6469     1.0  0.88496  0.52569  0.50338  1.0000
  H   H5166     1.0  0.96963  0.56457  0.50455  1.0000
  H   H5167     1.0  0.99237  0.59434  0.56973  1.0000
  H   H5168     1.0  0.99208  0.72680  0.49597  1.0000
  C   C6470     1.0  0.99115  0.71642  0.60251  1.0000
  H   H5169     1.0  0.96490  0.64062  0.50173  1.0000
  H   H5170     1.0  0.96203  0.65414  0.57829  1.0000
  H   H5171     1.0  0.85220  0.62538  0.51405  1.0000
  C   C6471     1.0  0.77555  0.65151  0.71916  1.0000
  C   C6472     1.0  0.86005  0.52631  0.52625  1.0000
  C   C6473     1.0  0.99851  0.54476  0.55220  1.0000
  H   H5172     1.0  0.93105  0.67821  0.64195  1.0000
  C   C6474     1.0  0.97541  0.55231  0.52295  1.0000
  C   C6475     1.0  0.94847  0.51119  0.49233  1.0000
  C   C6476     1.0  0.82261  0.72217  0.72584  1.0000
  H   H5173     1.0  0.94402  0.60966  0.55593  1.0000
  C   C6477     1.0  0.95451  0.62574  0.60937  1.0000
  H   H5174     1.0  0.92347  0.50294  0.49992  1.0000
  C   C6478     1.0  0.96037  0.54648  0.55298  1.0000
  C   C6479     1.0  0.95586  0.56049  0.55924  1.0000
  C   C6480     1.0  0.93792  0.56741  0.56423  1.0000
  C   C6481     1.0  0.92441  0.56036  0.56304  1.0000
  C   C6482     1.0  0.92883  0.54619  0.55708  1.0000
  C   C6483     1.0  0.94670  0.53932  0.55200  1.0000
  C   C6484     1.0  0.97821  0.60035  0.57105  1.0000
  C   C6485     1.0  0.96983  0.68897  0.49619  1.0000
  H   H5175     1.0  0.87735  0.72125  0.72808  1.0000
  C   C6486     1.0  0.95652  0.67540  0.64670  1.0000
  H   H5176     1.0  0.96909  0.51530  0.57093  1.0000
  P   P216      1.0  0.94679  0.68625  0.65986  1.0000
  C   C6487     1.0  0.94179  0.61588  0.57374  1.0000
  C   C6488     1.0  0.87616  0.54195  0.50671  1.0000
  C   C6489     1.0  0.99873  0.61738  0.53307  1.0000
  H   H5177     1.0  0.96172  0.55649  0.52770  1.0000
  C   C6490     1.0  0.84247  0.69437  0.73282  1.0000
  C   C6491     1.0  0.96504  0.60881  0.60832  1.0000
  H   H5178     1.0  0.99013  0.62700  0.60772  1.0000
  S   S853      1.0  0.94347  0.49567  0.52607  1.0000
  H   H5179     1.0  0.93601  0.70908  0.63679  1.0000
  S   S854      1.0  0.98948  0.68464  0.59891  1.0000
  H   H5180     1.0  0.93442  0.57849  0.56879  1.0000
  H   H5181     1.0  0.91048  0.56607  0.56653  1.0000
  H   H5182     1.0  0.91832  0.54080  0.55612  1.0000
  H   H5183     1.0  0.94985  0.52850  0.54723  1.0000
  Fe  Fe423     1.0  0.93225  0.73028  0.59350  1.0000
  C   C6492     1.0  0.99446  0.67157  0.54746  1.0000
  C   C6493     1.0  0.98911  0.68275  0.67515  1.0000
  C   C6494     1.0  0.96616  0.65419  0.50004  1.0000
  H   H5184     1.0  0.88146  0.66400  0.68429  1.0000
  C   C6495     1.0  0.85427  0.61287  0.49894  1.0000
  C   C6496     1.0  0.97137  0.72912  0.51273  1.0000
  C   C6497     1.0  0.96252  0.68013  0.50822  1.0000
  C   C6498     1.0  0.96091  0.66268  0.51016  1.0000
  C   C6499     1.0  0.96914  0.60765  0.58165  1.0000
  C   C6500     1.0  0.87137  0.58219  0.51348  1.0000
  H   H5185     1.0  0.97134  0.70238  0.49474  1.0000
  H   H5186     1.0  0.73622  0.72375  0.71310  1.0000
  C   C6501     1.0  0.98795  0.72152  0.50598  1.0000
  H   H5187     1.0  0.95841  0.68667  0.51609  1.0000
  H   H5188     1.0  0.95563  0.65568  0.51953  1.0000
  C   C6502     1.0  0.86078  0.59733  0.49432  1.0000
  H   H5189     1.0  0.97236  0.63143  0.54052  1.0000
  C   C6503     1.0  0.99757  0.55223  0.50332  1.0000
  H   H5190     1.0  0.89438  0.52519  0.49444  1.0000
  H   H5191     1.0  0.90829  0.64257  0.67609  1.0000
  C   C6504     1.0  0.77499  0.66942  0.71825  1.0000
  C   C6505     1.0  0.96607  0.72230  0.52564  1.0000
  P   P217      1.0  0.87935  0.56206  0.49528  1.0000
  C   C6506     1.0  0.96207  0.68000  0.67041  1.0000
  C   C6507     1.0  0.86342  0.54218  0.51813  1.0000
  C   C6508     1.0  0.98183  0.60762  0.51803  1.0000
  H   H5192     1.0  0.92616  0.62808  0.48539  1.0000
  C   C6509     1.0  0.95017  0.59701  0.62967  1.0000
  H   H5193     1.0  0.98179  0.67311  0.57864  1.0000
  C   C6510     1.0  0.72489  0.72929  0.71979  1.0000
  H   H5194     1.0  0.97925  0.69757  0.65857  1.0000
  H   H5195     1.0  0.97625  0.59537  0.55374  1.0000
  C   C6511     1.0  0.97730  0.70792  0.53181  1.0000
  H   H5196     1.0  0.90669  0.61019  0.48731  1.0000
  H   H5197     1.0  0.99251  0.66721  0.51800  1.0000
  C   C6512     1.0  0.96288  0.59447  0.61859  1.0000
  C   C6513     1.0  0.98844  0.71928  0.63465  1.0000
  C   C6514     1.0  0.93133  0.56426  0.49238  1.0000
  C   C6515     1.0  0.92620  0.67916  0.66798  1.0000
  H   H5198     1.0  0.76637  0.67192  0.69487  1.0000
  C   C6516     1.0  0.97987  0.55692  0.50976  1.0000
  H   H5199     1.0  0.82051  0.72061  0.65033  1.0000
  H   H5200     1.0  0.86687  0.59790  0.52716  1.0000
  C   C6517     1.0  0.97520  0.68047  0.48605  1.0000
  H   H5201     1.0  0.99365  0.57089  0.54009  1.0000
  H   H5202     1.0  0.94621  0.71606  0.67056  1.0000
  C   C6518     1.0  0.86885  0.51018  0.52282  1.0000
  C   C6519     1.0  0.94235  0.70997  0.65404  1.0000
  C   C6520     1.0  0.98030  0.62338  0.53385  1.0000
  H   H5203     1.0  0.97282  0.70295  0.54183  1.0000
  C   C6521     1.0  0.82569  0.68360  0.70477  1.0000
  C   C6522     1.0  0.81235  0.67397  0.71110  1.0000
  H   H5204     1.0  0.94814  0.66103  0.68443  1.0000
  P   P218      1.0  0.79120  0.68024  0.70624  1.0000
  C   C6523     1.0  0.78334  0.70391  0.70425  1.0000
  C   C6524     1.0  0.79395  0.67391  0.69150  1.0000
  C   C6525     1.0  0.77931  0.67079  0.68841  1.0000
  C   C6526     1.0  0.78121  0.66637  0.67688  1.0000
  C   C6527     1.0  0.79770  0.66514  0.66831  1.0000
  C   C6528     1.0  0.81230  0.66832  0.67127  1.0000
  C   C6529     1.0  0.81046  0.67267  0.68280  1.0000
  C   C6530     1.0  0.78632  0.71275  0.71237  1.0000
  C   C6531     1.0  0.97162  0.66231  0.68963  1.0000
  C   C6532     1.0  0.77401  0.71364  0.69472  1.0000
  H   H5205     1.0  0.86184  0.69067  0.62607  1.0000
  C   C6533     1.0  0.96912  0.60085  0.56194  1.0000
  C   C6534     1.0  0.99690  0.62999  0.59793  1.0000
  H   H5206     1.0  0.86606  0.49788  0.52901  1.0000
  H   H5207     1.0  0.90627  0.57048  0.50502  1.0000
  H   H5208     1.0  0.93316  0.64115  0.62093  1.0000
  C   C6535     1.0  0.99588  0.58418  0.59525  1.0000
  H   H5209     1.0  0.99686  0.65760  0.62962  1.0000
  C   C6536     1.0  0.84577  0.66381  0.71782  1.0000
  H   H5210     1.0  0.82328  0.69503  0.69722  1.0000
  C   C6537     1.0  0.93767  0.71734  0.64229  1.0000
  C   C6538     1.0  0.98866  0.54283  0.52980  1.0000
  H   H5211     1.0  0.76986  0.66396  0.67456  1.0000
  H   H5212     1.0  0.79917  0.66178  0.65935  1.0000
  H   H5213     1.0  0.82511  0.66750  0.66465  1.0000
  H   H5214     1.0  0.82199  0.67513  0.68476  1.0000
  H   H5215     1.0  0.92949  0.61579  0.63902  1.0000
  H   H5216     1.0  0.96276  0.64662  0.55836  1.0000
  H   H5217     1.0  0.77169  0.70722  0.68824  1.0000
  H   H5218     1.0  0.97092  0.58135  0.61809  1.0000
  S   S855      1.0  0.85211  0.69264  0.67128  1.0000
  C   C6539     1.0  0.91099  0.69115  0.67273  1.0000
  C   C6540     1.0  0.86950  0.58184  0.50155  1.0000
  H   H5219     1.0  0.90514  0.50675  0.53549  1.0000
  P   P219      1.0  0.98095  0.60578  0.59377  1.0000
  H   H5220     1.0  0.88317  0.69483  0.68208  1.0000
  Fe  Fe424     1.0  0.84605  0.72015  0.67448  1.0000
  C   C6541     1.0  0.97300  0.66316  0.48787  1.0000
  C   C6542     1.0  0.84029  0.70392  0.63886  1.0000
  H   H5221     1.0  0.85044  0.52652  0.53514  1.0000
  C   C6543     1.0  0.94342  0.72130  0.66122  1.0000
  C   C6544     1.0  0.93950  0.61383  0.63052  1.0000
  C   C6545     1.0  0.94165  0.62816  0.62036  1.0000
  C   C6546     1.0  0.88115  0.50992  0.51132  1.0000
  C   C6547     1.0  0.98248  0.66171  0.63262  1.0000
  H   H5222     1.0  0.87816  0.57050  0.51918  1.0000
  H   H5223     1.0  0.87652  0.73577  0.63343  1.0000
  H   H5224     1.0  0.76192  0.69196  0.72698  1.0000
  C   C6548     1.0  0.85433  0.70330  0.62827  1.0000
  C   C6549     1.0  0.98300  0.66112  0.54739  1.0000
  C   C6550     1.0  0.84971  0.73537  0.62355  1.0000
  C   C6551     1.0  0.98646  0.67002  0.68634  1.0000
  H   H5225     1.0  0.97518  0.71898  0.63406  1.0000
  C   C6552     1.0  0.85928  0.71890  0.62079  1.0000
  H   H5226     1.0  0.85260  0.68588  0.70302  1.0000
  H   H5227     1.0  0.95318  0.72802  0.53096  1.0000
  H   H5228     1.0  0.78551  0.64421  0.71266  1.0000
  H   H5229     1.0  0.85049  0.54641  0.49422  1.0000
  C   C6553     1.0  0.84240  0.67839  0.70801  1.0000
  H   H5230     1.0  0.96958  0.65242  0.69830  1.0000
  H   H5231     1.0  0.97702  0.65425  0.61734  1.0000
  C   C6554     1.0  0.99384  0.70003  0.52507  1.0000
  H   H5232     1.0  0.76472  0.62869  0.72984  1.0000
  H   H5233     1.0  0.98282  0.65779  0.53883  1.0000
  C   C6555     1.0  0.71828  0.71833  0.73110  1.0000
  H   H5234     1.0  0.88767  0.49750  0.50845  1.0000
  H   H5235     1.0  0.94429  0.66469  0.62351  1.0000
  C   C6556     1.0  0.87385  0.73545  0.72458  1.0000
  C   C6557     1.0  0.93507  0.73557  0.63747  1.0000
  C   C6558     1.0  0.97714  0.50639  0.56484  1.0000
  C   C6559     1.0  0.76769  0.73194  0.69339  1.0000
  C   C6560     1.0  0.99429  0.62228  0.58898  1.0000
  C   C6561     1.0  0.95285  0.66567  0.62915  1.0000
  C   C6562     1.0  0.76376  0.64269  0.72881  1.0000
  C   C6563     1.0  0.99174  0.73469  0.63615  1.0000
  C   C6564     1.0  0.98965  0.56933  0.59553  1.0000
  H   H5236     1.0  0.78271  0.73782  0.71710  1.0000
  H   H5237     1.0  0.83483  0.64355  0.73232  1.0000
  H   H5238     1.0  0.99594  0.66607  0.69243  1.0000
  H   H5239     1.0  0.80583  0.65179  0.72621  1.0000
  C   C6565     1.0  0.83245  0.65440  0.72437  1.0000
  C   C6566     1.0  0.99914  0.70699  0.51211  1.0000
  H   H5240     1.0  0.85849  0.66010  0.72064  1.0000
  H   H5241     1.0  0.85942  0.59773  0.48497  1.0000
  C   C6567     1.0  0.85508  0.55405  0.48493  1.0000
  H   H5242     1.0  0.00010  0.69304  0.63127  1.0000
  H   H5243     1.0  0.84563  0.73832  0.59795  1.0000
  H   H5244     1.0  0.94242  0.65033  0.48428  1.0000
  C   C6568     1.0  0.94076  0.73959  0.65636  1.0000
  H   H5245     1.0  0.76075  0.73948  0.68592  1.0000
  H   H5246     1.0  0.96261  0.74027  0.50799  1.0000
  C   C6569     1.0  0.86481  0.74026  0.58032  1.0000
  H   H5247     1.0  0.74652  0.73914  0.73186  1.0000
  C   C6570     1.0  0.88747  0.63487  0.48395  1.0000
  H   H5248     1.0  0.93764  0.57555  0.97792  1.0000
  H   H5249     1.0  0.64324  0.66048  0.75067  1.0000
  H   H5250     1.0  0.59809  0.73100  0.80285  1.0000
  Fe  Fe425     1.0  0.92848  0.60007  0.91498  1.0000
  S   S856      1.0  0.90051  0.61579  0.92021  1.0000
  S   S857      1.0  0.95127  0.61285  0.90296  1.0000
  Fe  Fe426     1.0  0.91706  0.56521  0.92662  1.0000
  S   S858      1.0  0.88828  0.57793  0.93306  1.0000
  S   S859      1.0  0.92607  0.53559  0.93098  1.0000
  Fe  Fe427     1.0  0.89173  0.59595  0.91385  1.0000
  S   S860      1.0  0.87341  0.60462  0.89995  1.0000
  Fe  Fe428     1.0  0.89956  0.59645  0.93899  1.0000
  S   S861      1.0  0.88698  0.60603  0.95729  1.0000
  S   S862      1.0  0.91982  0.58180  0.90709  1.0000
  S   S863      1.0  0.92818  0.58222  0.93405  1.0000
  Fe  Fe429     1.0  0.80645  0.56101  0.88484  1.0000
  S   S864      1.0  0.82367  0.54814  0.86905  1.0000
  S   S865      1.0  0.81585  0.56251  0.90174  1.0000
  Fe  Fe430     1.0  0.77202  0.56415  0.87625  1.0000
  S   S866      1.0  0.78633  0.55142  0.85979  1.0000
  S   S867      1.0  0.74224  0.57225  0.88366  1.0000
  Fe  Fe431     1.0  0.80281  0.53241  0.87308  1.0000
  Fe  Fe432     1.0  0.53342  0.70139  0.81945  1.0000
  Fe  Fe433     1.0  0.80607  0.56818  0.85691  1.0000
  S   S868      1.0  0.81999  0.57902  0.83722  1.0000
  S   S869      1.0  0.78684  0.54347  0.88989  1.0000
  S   S870      1.0  0.79048  0.58274  0.87234  1.0000
  Fe  Fe434     1.0  0.77938  0.65247  0.78731  1.0000
  S   S871      1.0  0.80078  0.63582  0.77517  1.0000
  S   S872      1.0  0.77312  0.64648  0.80856  1.0000
  Fe  Fe435     1.0  0.76534  0.67793  0.76484  1.0000
  S   S873      1.0  0.74529  0.70111  0.75692  1.0000
  Fe  Fe436     1.0  0.77932  0.63905  0.76479  1.0000
  S   S874      1.0  0.77144  0.61799  0.75934  1.0000
  S   S875      1.0  0.75759  0.65355  0.77789  1.0000
  S   S876      1.0  0.78502  0.67861  0.77556  1.0000
  H   H5251     1.0  0.76432  0.52596  0.80315  1.0000
  S   S877      1.0  0.54067  0.68988  0.83850  1.0000
  Fe  Fe437     1.0  0.57115  0.70631  0.80624  1.0000
  S   S878      1.0  0.58162  0.69519  0.82391  1.0000
  S   S879      1.0  0.58753  0.71446  0.78676  1.0000
  Fe  Fe438     1.0  0.56571  0.67461  0.82775  1.0000
  S   S880      1.0  0.57799  0.64604  0.83534  1.0000
  Fe  Fe439     1.0  0.55612  0.71139  0.83328  1.0000
  C   C6571     1.0  0.99773  0.49571  0.98095  1.0000
  S   S881      1.0  0.55717  0.68433  0.80922  1.0000
  C   C6572     1.0  0.79198  0.49375  0.84879  1.0000
  Fe  Fe440     1.0  0.68305  0.55151  0.81963  1.0000
  S   S882      1.0  0.66226  0.56939  0.83121  1.0000
  S   S883      1.0  0.68272  0.52836  0.81204  1.0000
  Fe  Fe441     1.0  0.71182  0.57128  0.81657  1.0000
  S   S884      1.0  0.69396  0.59109  0.82773  1.0000
  S   S885      1.0  0.74135  0.56829  0.80978  1.0000
  Fe  Fe442     1.0  0.68419  0.56767  0.84091  1.0000
  S   S886      1.0  0.68055  0.56295  0.86196  1.0000
  Fe  Fe443     1.0  0.67351  0.59162  0.81719  1.0000
  S   S887      1.0  0.65781  0.61762  0.80785  1.0000
  S   S888      1.0  0.70375  0.54785  0.83070  1.0000
  S   S889      1.0  0.69257  0.57389  0.80473  1.0000
  H   H5252     1.0  0.58825  0.51533  0.85389  1.0000
  C   C6573     1.0  0.85012  0.53024  0.80801  1.0000
  C   C6574     1.0  0.59074  0.52354  0.84449  1.0000
  C   C6575     1.0  0.64876  0.68160  0.79887  1.0000
  H   H5253     1.0  0.85770  0.52962  0.88295  1.0000
  Fe  Fe444     1.0  0.80484  0.66207  0.76261  1.0000
  P   P220      1.0  0.65787  0.68363  0.78213  1.0000
  C   C6576     1.0  0.60028  0.63845  0.82773  1.0000
  C   C6577     1.0  0.61068  0.62289  0.83363  1.0000
  C   C6578     1.0  0.62833  0.61636  0.82764  1.0000
  C   C6579     1.0  0.63564  0.62528  0.81563  1.0000
  C   C6580     1.0  0.62514  0.64066  0.80963  1.0000
  C   C6581     1.0  0.60759  0.64736  0.81570  1.0000
  H   H5254     1.0  0.60512  0.61598  0.84294  1.0000
  H   H5255     1.0  0.63628  0.60448  0.83235  1.0000
  H   H5256     1.0  0.63067  0.64753  0.80030  1.0000
  H   H5257     1.0  0.59967  0.65933  0.81103  1.0000
  C   C6582     1.0  0.73058  0.71076  0.76907  1.0000
  C   C6583     1.0  0.72964  0.70169  0.78164  1.0000
  C   C6584     1.0  0.71768  0.70939  0.79133  1.0000
  H   H5258     1.0  0.94906  0.53912  0.96621  1.0000
  C   C6585     1.0  0.67983  0.51209  0.85377  1.0000
  H   H5259     1.0  0.73806  0.68871  0.78394  1.0000
  H   H5260     1.0  0.71697  0.70229  0.80103  1.0000
  H   H5261     1.0  0.67692  0.52471  0.85646  1.0000
  C   C6586     1.0  0.76161  0.60538  0.77351  1.0000
  C   C6587     1.0  0.74913  0.59592  0.77371  1.0000
  C   C6588     1.0  0.74208  0.58511  0.78504  1.0000
  C   C6589     1.0  0.74803  0.58336  0.79600  1.0000
  C   C6590     1.0  0.76043  0.59286  0.79577  1.0000
  C   C6591     1.0  0.76683  0.60423  0.78462  1.0000
  H   H5262     1.0  0.74504  0.59686  0.76512  1.0000
  H   H5263     1.0  0.73257  0.57764  0.78522  1.0000
  H   H5264     1.0  0.76511  0.59143  0.80422  1.0000
  H   H5265     1.0  0.77649  0.61143  0.78455  1.0000
  C   C6592     1.0  0.96931  0.51385  0.91115  1.0000
  H   H5266     1.0  0.80065  0.69667  0.75134  1.0000
  C   C6593     1.0  0.69023  0.61742  0.87146  1.0000
  C   C6594     1.0  0.81104  0.53555  0.96228  1.0000
  H   H5267     1.0  0.72402  0.67230  0.76929  1.0000
  C   C6595     1.0  0.80616  0.59636  0.82874  1.0000
  C   C6596     1.0  0.78864  0.60310  0.83456  1.0000
  C   C6597     1.0  0.77833  0.61819  0.82811  1.0000
  C   C6598     1.0  0.78545  0.62641  0.81579  1.0000
  C   C6599     1.0  0.80269  0.61912  0.80976  1.0000
  C   C6600     1.0  0.81305  0.60411  0.81623  1.0000
  H   H5268     1.0  0.78320  0.59688  0.84412  1.0000
  H   H5269     1.0  0.76488  0.62363  0.83270  1.0000
  H   H5270     1.0  0.80835  0.62550  0.80031  1.0000
  H   H5271     1.0  0.82659  0.59885  0.81170  1.0000
  C   C6601     1.0  0.72607  0.56880  0.87712  1.0000
  C   C6602     1.0  0.70980  0.56597  0.88516  1.0000
  C   C6603     1.0  0.69614  0.56395  0.88040  1.0000
  C   C6604     1.0  0.69838  0.56520  0.86747  1.0000
  C   C6605     1.0  0.71451  0.56840  0.85930  1.0000
  C   C6606     1.0  0.72845  0.57003  0.86415  1.0000
  H   H5272     1.0  0.70775  0.56527  0.89515  1.0000
  H   H5273     1.0  0.68369  0.56162  0.88674  1.0000
  H   H5274     1.0  0.71615  0.56970  0.84928  1.0000
  H   H5275     1.0  0.74082  0.57273  0.85789  1.0000
  H   H5276     1.0  0.65029  0.52980  0.83218  1.0000
  C   C6607     1.0  0.92186  0.52436  0.92111  1.0000
  H   H5277     1.0  0.92155  0.58309  0.96055  1.0000
  C   C6608     1.0  0.92202  0.53192  0.90833  1.0000
  H   H5278     1.0  0.66364  0.66913  0.75976  1.0000
  H   H5279     1.0  0.92401  0.54526  0.90444  1.0000
  H   H5280     1.0  0.84355  0.54234  0.84019  1.0000
  H   H5281     1.0  0.96018  0.52301  0.90558  1.0000
  C   C6609     1.0  0.88353  0.52387  0.94573  1.0000
  C   C6610     1.0  0.85917  0.59118  0.90001  1.0000
  C   C6611     1.0  0.85378  0.57874  0.91081  1.0000
  C   C6612     1.0  0.84095  0.56958  0.91105  1.0000
  C   C6613     1.0  0.83370  0.57246  0.90043  1.0000
  C   C6614     1.0  0.83972  0.58428  0.88942  1.0000
  C   C6615     1.0  0.85222  0.59381  0.88928  1.0000
  H   H5282     1.0  0.85904  0.57663  0.91912  1.0000
  H   H5283     1.0  0.83646  0.56046  0.91958  1.0000
  H   H5284     1.0  0.83417  0.58664  0.88121  1.0000
  H   H5285     1.0  0.85628  0.60348  0.88092  1.0000
  H   H5286     1.0  0.96241  0.56120  0.94197  1.0000
  C   C6616     1.0  0.98797  0.63663  0.90569  1.0000
  C   C6617     1.0  0.97589  0.63126  0.90136  1.0000
  C   C6618     1.0  0.96654  0.61847  0.90916  1.0000
  C   C6619     1.0  0.96982  0.61061  0.92130  1.0000
  C   C6620     1.0  0.98252  0.61563  0.92553  1.0000
  H   H5287     1.0  0.88164  0.52735  0.89399  1.0000
  H   H5288     1.0  0.97344  0.63738  0.89199  1.0000
  H   H5289     1.0  0.96245  0.60090  0.92742  1.0000
  C   C6621     1.0  0.96551  0.68399  0.95861  1.0000
  C   C6622     1.0  0.88392  0.50874  0.86234  1.0000
  H   H5290     1.0  0.76324  0.50942  0.93324  1.0000
  C   C6623     1.0  0.98040  0.65159  0.95138  1.0000
  C   C6624     1.0  0.96301  0.65448  0.95881  1.0000
  C   C6625     1.0  0.95569  0.67073  0.96254  1.0000
  P   P221      1.0  0.94979  0.63809  0.96219  1.0000
  C   C6626     1.0  0.94148  0.63974  0.94842  1.0000
  C   C6627     1.0  0.96364  0.61641  0.96653  1.0000
  H   H5291     1.0  0.79283  0.51677  0.85473  1.0000
  C   C6628     1.0  0.70681  0.72624  0.78849  1.0000
  H   H5292     1.0  0.79832  0.70066  0.84626  1.0000
  C   C6629     1.0  0.81650  0.51447  0.79316  1.0000
  C   C6630     1.0  0.97639  0.61408  0.97367  1.0000
  C   C6631     1.0  0.78864  0.56141  0.82198  1.0000
  H   H5293     1.0  0.62971  0.50890  0.84140  1.0000
  C   C6632     1.0  0.78055  0.53379  0.82379  1.0000
  S   S890      1.0  0.81254  0.50310  0.87497  1.0000
  H   H5294     1.0  0.97045  0.57359  0.96421  1.0000
  S   S891      1.0  0.69189  0.73537  0.80088  1.0000
  C   C6633     1.0  0.86193  0.55754  0.97042  1.0000
  H   H5295     1.0  0.97993  0.53055  0.88316  1.0000
  C   C6634     1.0  0.88494  0.49323  0.95646  1.0000
  H   H5296     1.0  0.86157  0.52224  0.85345  1.0000
  C   C6635     1.0  0.89069  0.50896  0.95407  1.0000
  H   H5297     1.0  0.95982  0.69651  0.96147  1.0000
  H   H5298     1.0  0.91981  0.50087  0.93575  1.0000
  C   C6636     1.0  0.99575  0.50631  0.91988  1.0000
  H   H5299     1.0  0.98628  0.63915  0.94840  1.0000
  C   C6637     1.0  0.99459  0.49056  0.88663  1.0000
  C   C6638     1.0  0.89669  0.51105  0.86788  1.0000
  H   H5300     1.0  0.60195  0.52044  0.81373  1.0000
  H   H5301     1.0  0.72764  0.64014  0.77094  1.0000
  H   H5302     1.0  0.95996  0.54807  0.86867  1.0000
  H   H5303     1.0  0.64233  0.71610  0.82893  1.0000
  H   H5304     1.0  0.92009  0.62623  0.95893  1.0000
  C   C6639     1.0  0.75126  0.65167  0.73759  1.0000
  C   C6640     1.0  0.69777  0.64560  0.86010  1.0000
  H   H5305     1.0  0.68230  0.49562  0.80729  1.0000
  H   H5306     1.0  0.96128  0.65332  0.93488  1.0000
  H   H5307     1.0  0.91541  0.66348  0.96329  1.0000
  H   H5308     1.0  0.69171  0.68500  0.81225  1.0000
  H   H5309     1.0  0.79024  0.55901  0.95937  1.0000
  C   C6641     1.0  0.76539  0.50003  0.81551  1.0000
  C   C6642     1.0  0.91550  0.58863  0.96881  1.0000
  C   C6643     1.0  0.70799  0.73543  0.77591  1.0000
  H   H5310     1.0  0.85205  0.52706  0.79894  1.0000
  H   H5311     1.0  0.70896  0.69440  0.82496  1.0000
  C   C6644     1.0  0.68224  0.65160  0.77999  1.0000
  C   C6645     1.0  0.59484  0.51600  0.83399  1.0000
  C   C6646     1.0  0.87018  0.52327  0.94011  1.0000
  C   C6647     1.0  0.65857  0.70654  0.77520  1.0000
  C   C6648     1.0  0.63165  0.67745  0.82449  1.0000
  H   H5312     1.0  0.62466  0.67567  0.83430  1.0000
  C   C6649     1.0  0.74448  0.50834  0.90970  1.0000
  C   C6650     1.0  0.97600  0.55159  0.89279  1.0000
  H   H5313     1.0  0.79585  0.72613  0.73711  1.0000
  C   C6651     1.0  0.74929  0.53231  0.92185  1.0000
  C   C6652     1.0  0.74006  0.53847  0.91204  1.0000
  C   C6653     1.0  0.73770  0.52658  0.90594  1.0000
  H   H5314     1.0  0.66659  0.71098  0.81043  1.0000
  H   H5315     1.0  0.86457  0.53509  0.93382  1.0000
  C   C6654     1.0  0.97421  0.49554  0.95685  1.0000
  H   H5316     1.0  0.86383  0.55217  0.85342  1.0000
  H   H5317     1.0  0.75146  0.54164  0.92631  1.0000
  H   H5318     1.0  0.73507  0.55255  0.90895  1.0000
  H   H5319     1.0  0.73090  0.53179  0.89815  1.0000
  C   C6655     1.0  0.62044  0.57260  0.85658  1.0000
  C   C6656     1.0  0.60685  0.58156  0.86486  1.0000
  C   C6657     1.0  0.58968  0.58797  0.86238  1.0000
  C   C6658     1.0  0.58618  0.58575  0.85147  1.0000
  C   C6659     1.0  0.59999  0.57747  0.84280  1.0000
  C   C6660     1.0  0.61694  0.57037  0.84568  1.0000
  P   P222      1.0  0.59601  0.57465  0.82850  1.0000
  C   C6661     1.0  0.57588  0.58992  0.82457  1.0000
  C   C6662     1.0  0.61505  0.57908  0.81588  1.0000
  C   C6663     1.0  0.61526  0.59620  0.80844  1.0000
  C   C6664     1.0  0.63017  0.59948  0.79889  1.0000
  C   C6665     1.0  0.64508  0.58579  0.79679  1.0000
  C   C6666     1.0  0.64503  0.56874  0.80412  1.0000
  C   C6667     1.0  0.63014  0.56539  0.81365  1.0000
  C   C6668     1.0  0.57237  0.60762  0.82557  1.0000
  C   C6669     1.0  0.55692  0.61955  0.82255  1.0000
  C   C6670     1.0  0.54476  0.61393  0.81848  1.0000
  C   C6671     1.0  0.54811  0.59634  0.81742  1.0000
  C   C6672     1.0  0.56361  0.58436  0.82044  1.0000
  C   C6673     1.0  0.59445  0.55197  0.83068  1.0000
  C   C6674     1.0  0.59054  0.54147  0.84287  1.0000
  C   C6675     1.0  0.59806  0.54439  0.82017  1.0000
  H   H5320     1.0  0.63376  0.56754  0.85852  1.0000
  H   H5321     1.0  0.60965  0.58354  0.87319  1.0000
  H   H5322     1.0  0.57914  0.59494  0.86879  1.0000
  H   H5323     1.0  0.57275  0.59073  0.84982  1.0000
  H   H5324     1.0  0.62747  0.56313  0.83948  1.0000
  H   H5325     1.0  0.60426  0.60725  0.81009  1.0000
  H   H5326     1.0  0.63048  0.61283  0.79348  1.0000
  H   H5327     1.0  0.65686  0.58853  0.78970  1.0000
  H   H5328     1.0  0.65668  0.55816  0.80257  1.0000
  H   H5329     1.0  0.63062  0.55213  0.81938  1.0000
  H   H5330     1.0  0.58161  0.61225  0.82872  1.0000
  H   H5331     1.0  0.55444  0.63319  0.82340  1.0000
  H   H5332     1.0  0.53278  0.62325  0.81615  1.0000
  H   H5333     1.0  0.53870  0.59200  0.81424  1.0000
  H   H5334     1.0  0.56595  0.57084  0.81954  1.0000
  H   H5335     1.0  0.58771  0.54695  0.85113  1.0000
  H   H5336     1.0  0.60117  0.55222  0.81069  1.0000
  C   C6676     1.0  0.80692  0.49286  0.86514  1.0000
  C   C6677     1.0  0.89864  0.60004  0.96966  1.0000
  H   H5337     1.0  0.99170  0.59656  0.87763  1.0000
  H   H5338     1.0  0.59125  0.73355  0.82591  1.0000
  C   C6678     1.0  0.82714  0.52375  0.94363  1.0000
  C   C6679     1.0  0.69421  0.63330  0.87145  1.0000
  C   C6680     1.0  0.82478  0.56751  0.79114  1.0000
  C   C6681     1.0  0.65212  0.71538  0.76420  1.0000
  C   C6682     1.0  0.79940  0.57250  0.77684  1.0000
  C   C6683     1.0  0.87202  0.52369  0.85722  1.0000
  H   H5339     1.0  0.78327  0.52112  0.82141  1.0000
  C   C6684     1.0  0.99145  0.62885  0.91773  1.0000
  H   H5340     1.0  0.71364  0.51353  0.82303  1.0000
  H   H5341     1.0  0.74263  0.64460  0.74535  1.0000
  C   C6685     1.0  0.85568  0.52508  0.89306  1.0000
  C   C6686     1.0  0.68110  0.68692  0.82048  1.0000
  C   C6687     1.0  0.67091  0.49862  0.81473  1.0000
  C   C6688     1.0  0.79691  0.50256  0.85605  1.0000
  H   H5342     1.0  0.87697  0.51734  0.91689  1.0000
  H   H5343     1.0  0.64683  0.70858  0.75948  1.0000
  H   H5344     1.0  0.85697  0.53636  0.96430  1.0000
  C   C6689     1.0  0.98801  0.56811  0.93369  1.0000
  H   H5345     1.0  0.83802  0.58857  0.94390  1.0000
  C   C6690     1.0  0.86904  0.52395  0.89929  1.0000
  C   C6691     1.0  0.66439  0.73394  0.77654  1.0000
  H   H5346     1.0  0.96381  0.54608  0.92529  1.0000
  C   C6692     1.0  0.91863  0.50427  0.90529  1.0000
  C   C6693     1.0  0.94227  0.50302  0.95815  1.0000
  C   C6694     1.0  0.83676  0.51471  0.91302  1.0000
  C   C6695     1.0  0.64110  0.50612  0.83385  1.0000
  C   C6696     1.0  0.77011  0.70166  0.85330  1.0000
  C   C6697     1.0  0.73805  0.52156  0.81263  1.0000
  H   H5347     1.0  0.69465  0.63601  0.88023  1.0000
  H   H5348     1.0  0.99997  0.70028  0.97989  1.0000
  H   H5349     1.0  0.88921  0.66871  0.98068  1.0000
  P   P223      1.0  0.87391  0.54327  0.98234  1.0000
  H   H5350     1.0  0.79046  0.55043  0.79033  1.0000
  H   H5351     1.0  0.92163  0.52739  0.89042  1.0000
  P   P224      1.0  0.99096  0.53876  0.90307  1.0000
  C   C6698     1.0  0.81662  0.50165  0.81524  1.0000
  C   C6699     1.0  0.64465  0.66353  0.82016  1.0000
  C   C6700     1.0  0.62475  0.67931  0.78101  1.0000
  C   C6701     1.0  0.61325  0.67457  0.77574  1.0000
  C   C6702     1.0  0.61990  0.66771  0.76485  1.0000
  C   C6703     1.0  0.63809  0.66571  0.75915  1.0000
  C   C6704     1.0  0.64964  0.67054  0.76437  1.0000
  H   H5352     1.0  0.66269  0.65442  0.80418  1.0000
  H   H5353     1.0  0.64758  0.65087  0.82659  1.0000
  H   H5354     1.0  0.61917  0.68471  0.78939  1.0000
  C   C6705     1.0  0.68008  0.66984  0.77893  1.0000
  C   C6706     1.0  0.62738  0.69355  0.81609  1.0000
  C   C6707     1.0  0.97889  0.49227  0.88269  1.0000
  H   H5355     1.0  0.81746  0.54416  0.83221  1.0000
  C   C6708     1.0  0.75986  0.55610  0.83438  1.0000
  C   C6709     1.0  0.74009  0.62411  0.88444  1.0000
  C   C6710     1.0  0.73772  0.61637  0.87550  1.0000
  C   C6711     1.0  0.75004  0.61629  0.86402  1.0000
  C   C6712     1.0  0.76482  0.62388  0.86147  1.0000
  C   C6713     1.0  0.76751  0.63139  0.87046  1.0000
  C   C6714     1.0  0.75489  0.63167  0.88192  1.0000
  P   P225      1.0  0.78664  0.64113  0.86721  1.0000
  C   C6715     1.0  0.79627  0.63471  0.88103  1.0000
  C   C6716     1.0  0.80360  0.63283  0.85459  1.0000
  C   C6717     1.0  0.81719  0.61789  0.85729  1.0000
  C   C6718     1.0  0.83024  0.61151  0.84750  1.0000
  C   C6719     1.0  0.82978  0.61993  0.83496  1.0000
  C   C6720     1.0  0.81619  0.63467  0.83217  1.0000
  C   C6721     1.0  0.80311  0.64108  0.84193  1.0000
  C   C6722     1.0  0.80684  0.64491  0.88273  1.0000
  C   C6723     1.0  0.81565  0.63900  0.89279  1.0000
  C   C6724     1.0  0.81387  0.62296  0.90127  1.0000
  C   C6725     1.0  0.80320  0.61285  0.89975  1.0000
  C   C6726     1.0  0.79462  0.61855  0.88961  1.0000
  C   C6727     1.0  0.78010  0.66492  0.86225  1.0000
  C   C6728     1.0  0.76197  0.67361  0.86418  1.0000
  H   H5356     1.0  0.73065  0.62385  0.89342  1.0000
  H   H5357     1.0  0.72663  0.60994  0.87760  1.0000
  H   H5358     1.0  0.74836  0.60990  0.85724  1.0000
  H   H5359     1.0  0.77432  0.62353  0.85261  1.0000
  H   H5360     1.0  0.75665  0.63750  0.88896  1.0000
  H   H5361     1.0  0.81765  0.61092  0.86691  1.0000
  H   H5362     1.0  0.84039  0.59967  0.84961  1.0000
  H   H5363     1.0  0.83954  0.61457  0.82738  1.0000
  H   H5364     1.0  0.81546  0.64077  0.82242  1.0000
  H   H5365     1.0  0.79253  0.65230  0.83953  1.0000
  H   H5366     1.0  0.80875  0.65717  0.87616  1.0000
  H   H5367     1.0  0.82426  0.64660  0.89386  1.0000
  H   H5368     1.0  0.82119  0.61809  0.90881  1.0000
  H   H5369     1.0  0.80219  0.60018  0.90614  1.0000
  H   H5370     1.0  0.78724  0.60997  0.88828  1.0000
  H   H5371     1.0  0.75154  0.66637  0.86894  1.0000
  H   H5372     1.0  0.75412  0.53146  0.83445  1.0000
  H   H5373     1.0  0.74677  0.56080  0.83979  1.0000
  C   C6729     1.0  0.81627  0.53730  0.93645  1.0000
  C   C6730     1.0  0.59840  0.52643  0.82184  1.0000
  C   C6731     1.0  0.85093  0.58709  0.95875  1.0000
  C   C6732     1.0  0.70381  0.72540  0.73983  1.0000
  H   H5374     1.0  0.76621  0.50436  0.87731  1.0000
  H   H5375     1.0  0.76867  0.58011  0.83173  1.0000
  H   H5376     1.0  0.61091  0.66408  0.76081  1.0000
  H   H5377     1.0  0.76625  0.71581  0.84979  1.0000
  H   H5378     1.0  0.87427  0.53212  0.82813  1.0000
  C   C6733     1.0  0.63580  0.69561  0.80334  1.0000
  H   H5379     1.0  0.70796  0.51126  0.84732  1.0000
  H   H5380     1.0  0.59910  0.67645  0.78012  1.0000
  C   C6734     1.0  0.77215  0.56704  0.82971  1.0000
  H   H5381     1.0  0.70085  0.65783  0.86022  1.0000
  S   S892      1.0  0.78559  0.66349  0.75097  1.0000
  C   C6735     1.0  0.81337  0.55563  0.79442  1.0000
  C   C6736     1.0  0.92806  0.64235  0.92724  1.0000
  C   C6737     1.0  0.66773  0.51413  0.81910  1.0000
  H   H5382     1.0  0.99864  0.59723  0.89756  1.0000
  H   H5383     1.0  0.87839  0.52442  0.80751  1.0000
  H   H5384     1.0  0.73489  0.70602  0.82365  1.0000
  H   H5385     1.0  0.68770  0.60773  0.88019  1.0000
  S   S893      1.0  0.54696  0.72423  0.81514  1.0000
  H   H5386     1.0  0.94238  0.67330  0.96833  1.0000
  H   H5387     1.0  0.84157  0.55609  0.94778  1.0000
  H   H5388     1.0  0.74129  0.67618  0.74384  1.0000
  C   C6738     1.0  0.96791  0.56937  0.89308  1.0000
  C   C6739     1.0  0.95713  0.57939  0.88455  1.0000
  C   C6740     1.0  0.95409  0.57168  0.87586  1.0000
  C   C6741     1.0  0.96228  0.55405  0.87542  1.0000
  H   H5389     1.0  0.97833  0.62522  0.97635  1.0000
  H   H5390     1.0  0.90762  0.52960  0.87242  1.0000
  H   H5391     1.0  0.88681  0.55602  0.86296  1.0000
  C   C6742     1.0  0.99005  0.55046  0.91488  1.0000
  C   C6743     1.0  0.66689  0.70162  0.81937  1.0000
  H   H5392     1.0  0.96985  0.57561  0.89984  1.0000
  H   H5393     1.0  0.95076  0.59307  0.88491  1.0000
  H   H5394     1.0  0.94531  0.57939  0.86953  1.0000
  C   C6744     1.0  0.85468  0.49300  0.84987  1.0000
  C   C6745     1.0  0.81158  0.70059  0.74395  1.0000
  S   S894      1.0  0.50703  0.70920  0.81310  1.0000
  H   H5395     1.0  0.80721  0.66839  0.85393  1.0000
  S   S895      1.0  0.56112  0.72571  0.84629  1.0000
  H   H5396     1.0  0.67072  0.64554  0.78318  1.0000
  C   C6746     1.0  0.66499  0.71590  0.78120  1.0000
  H   H5397     1.0  0.69432  0.69107  0.77440  1.0000
  C   C6747     1.0  0.91990  0.63411  0.93919  1.0000
  C   C6748     1.0  0.74935  0.66346  0.83838  1.0000
  C   C6749     1.0  0.74946  0.68123  0.83284  1.0000
  H   H5398     1.0  0.78382  0.50112  0.84203  1.0000
  C   C6750     1.0  0.84644  0.56163  0.95359  1.0000
  C   C6751     1.0  0.71981  0.66764  0.83436  1.0000
  C   C6752     1.0  0.73459  0.65669  0.83918  1.0000
  P   P226      1.0  0.70187  0.65810  0.83403  1.0000
  C   C6753     1.0  0.70862  0.64702  0.82102  1.0000
  C   C6754     1.0  0.69729  0.64212  0.84866  1.0000
  C   C6755     1.0  0.69314  0.62617  0.84880  1.0000
  H   H5399     1.0  0.69890  0.71695  0.74871  1.0000
  C   C6756     1.0  0.69571  0.64266  0.81677  1.0000
  C   C6757     1.0  0.70096  0.63232  0.80771  1.0000
  C   C6758     1.0  0.71910  0.62648  0.80269  1.0000
  C   C6759     1.0  0.73199  0.63116  0.80664  1.0000
  C   C6760     1.0  0.72679  0.64135  0.81577  1.0000
  H   H5400     1.0  0.73362  0.50989  0.79324  1.0000
  H   H5401     1.0  0.96110  0.51513  0.94294  1.0000
  C   C6761     1.0  0.97342  0.54411  0.88372  1.0000
  H   H5402     1.0  0.76099  0.65475  0.84158  1.0000
  H   H5403     1.0  0.76114  0.68631  0.83189  1.0000
  C   C6762     1.0  0.86621  0.51842  0.91241  1.0000
  C   C6763     1.0  0.91572  0.65547  0.97270  1.0000
  H   H5404     1.0  0.73503  0.64272  0.84304  1.0000
  H   H5405     1.0  0.69265  0.62297  0.84022  1.0000
  C   C6764     1.0  0.80028  0.55861  0.78743  1.0000
  H   H5406     1.0  0.68166  0.64657  0.82088  1.0000
  H   H5407     1.0  0.69097  0.62846  0.80478  1.0000
  H   H5408     1.0  0.72320  0.61824  0.79581  1.0000
  H   H5409     1.0  0.74609  0.62671  0.80278  1.0000
  H   H5410     1.0  0.73709  0.64446  0.81878  1.0000
  C   C6765     1.0  0.71977  0.72763  0.76620  1.0000
  H   H5411     1.0  0.63169  0.70794  0.79691  1.0000
  C   C6766     1.0  0.86274  0.53305  0.82444  1.0000
  C   C6767     1.0  0.75670  0.51671  0.80976  1.0000
  S   S896      1.0  0.83172  0.66800  0.75242  1.0000
  C   C6768     1.0  0.97491  0.55177  0.92482  1.0000
  C   C6769     1.0  0.65322  0.66560  0.80740  1.0000
  H   H5412     1.0  0.61722  0.70434  0.81941  1.0000
  C   C6770     1.0  0.78817  0.69313  0.85133  1.0000
  H   H5413     1.0  0.80911  0.53495  0.97226  1.0000
  P   P227      1.0  0.81378  0.53805  0.80837  1.0000
  C   C6771     1.0  0.76401  0.53953  0.83137  1.0000
  C   C6772     1.0  0.64307  0.67721  0.77543  1.0000
  C   C6773     1.0  0.72808  0.50984  0.82131  1.0000
  H   H5414     1.0  0.73127  0.53442  0.80808  1.0000
  C   C6774     1.0  0.99001  0.66500  0.94724  1.0000
  H   H5415     1.0  0.92320  0.64294  0.91901  1.0000
  H   H5416     1.0  0.67022  0.70930  0.78959  1.0000
  H   H5417     1.0  0.65249  0.50912  0.85980  1.0000
  C   C6775     1.0  0.99776  0.68712  0.98131  1.0000
  C   C6776     1.0  0.79316  0.67484  0.85575  1.0000
  H   H5418     1.0  0.84598  0.49743  0.85815  1.0000
  C   C6777     1.0  0.81565  0.51662  0.80528  1.0000
  C   C6778     1.0  0.75703  0.69190  0.85972  1.0000
  H   H5419     1.0  0.68635  0.60172  0.86014  1.0000
  H   H5420     1.0  0.74301  0.69849  0.86114  1.0000
  C   C6779     1.0  0.65275  0.51794  0.82868  1.0000
  C   C6780     1.0  0.65371  0.69280  0.84150  1.0000
  C   C6781     1.0  0.98683  0.59730  0.97741  1.0000
  C   C6782     1.0  0.83969  0.52014  0.89990  1.0000
  C   C6783     1.0  0.69931  0.64098  0.77698  1.0000
  C   C6784     1.0  0.71438  0.64843  0.77306  1.0000
  C   C6785     1.0  0.82841  0.68909  0.74247  1.0000
  C   C6786     1.0  0.60179  0.73777  0.79314  1.0000
  H   H5421     1.0  0.98745  0.49741  0.95173  1.0000
  C   C6787     1.0  0.94956  0.64811  0.93636  1.0000
  H   H5422     1.0  0.78923  0.57477  0.77151  1.0000
  C   C6788     1.0  0.84552  0.53862  0.83130  1.0000
  C   C6789     1.0  0.86410  0.50759  0.94260  1.0000
  C   C6790     1.0  0.92070  0.52178  0.90039  1.0000
  H   H5423     1.0  0.99006  0.69158  0.94757  1.0000
  C   C6791     1.0  0.90088  0.65851  0.98254  1.0000
  C   C6792     1.0  0.93076  0.64199  0.97498  1.0000
  H   H5424     1.0  0.79496  0.56051  0.93640  1.0000
  C   C6793     1.0  0.73827  0.50485  0.88613  1.0000
  C   C6794     1.0  0.75254  0.50868  0.87608  1.0000
  C   C6795     1.0  0.74925  0.51847  0.86430  1.0000
  C   C6796     1.0  0.73175  0.52441  0.86243  1.0000
  C   C6797     1.0  0.71747  0.52088  0.87242  1.0000
  C   C6798     1.0  0.72066  0.51138  0.88427  1.0000
  H   H5425     1.0  0.81801  0.49618  0.78187  1.0000
  H   H5426     1.0  0.76029  0.52169  0.85670  1.0000
  H   H5427     1.0  0.72916  0.53220  0.85336  1.0000
  H   H5428     1.0  0.70386  0.52598  0.87105  1.0000
  C   C6799     1.0  0.91732  0.49721  0.91820  1.0000
  C   C6800     1.0  0.84435  0.57994  0.95143  1.0000
  H   H5429     1.0  0.70087  0.62689  0.77793  1.0000
  C   C6801     1.0  0.68959  0.61395  0.86015  1.0000
  C   C6802     1.0  0.83280  0.53598  0.81483  1.0000
  C   C6803     1.0  0.85965  0.57597  0.96819  1.0000
  C   C6804     1.0  0.91950  0.50700  0.92598  1.0000
  H   H5430     1.0  0.93090  0.51064  0.95412  1.0000
  C   C6805     1.0  0.79301  0.54465  0.81905  1.0000
  C   C6806     1.0  0.96161  0.60169  0.96310  1.0000
  H   H5431     1.0  0.93018  0.54863  0.95042  1.0000
  C   C6807     1.0  0.85521  0.55047  0.96302  1.0000
  H   H5432     1.0  0.98477  0.60989  0.93498  1.0000
  C   C6808     1.0  0.80883  0.71727  0.73585  1.0000
  H   H5433     1.0  0.89748  0.55135  0.95707  1.0000
  C   C6809     1.0  0.98474  0.58272  0.97396  1.0000
  C   C6810     1.0  0.82434  0.52291  0.95662  1.0000
  H   H5434     1.0  0.83191  0.59120  0.77846  1.0000
  H   H5435     1.0  0.99450  0.64706  0.89971  1.0000
  C   C6811     1.0  0.71237  0.66650  0.77219  1.0000
  C   C6812     1.0  0.65326  0.70462  0.82986  1.0000
  C   C6813     1.0  0.69534  0.67716  0.77515  1.0000
  H   H5436     1.0  0.82419  0.51113  0.91818  1.0000
  H   H5437     1.0  0.81637  0.52559  0.78520  1.0000
  C   C6814     1.0  0.65191  0.73339  0.75941  1.0000
  H   H5438     1.0  0.82944  0.52079  0.89503  1.0000
  C   C6815     1.0  0.90549  0.54710  0.96415  1.0000
  C   C6816     1.0  0.92655  0.63279  0.94975  1.0000
  H   H5439     1.0  0.81884  0.49796  0.74777  1.0000
  C   C6817     1.0  0.92402  0.54570  0.96032  1.0000
  C   C6818     1.0  0.73472  0.69230  0.82818  1.0000
  C   C6819     1.0  0.86505  0.52877  0.81282  1.0000
  H   H5440     1.0  0.76193  0.72972  0.74963  1.0000
  C   C6820     1.0  0.98490  0.51813  0.91188  1.0000
  H   H5441     1.0  0.78639  0.50565  0.74791  1.0000
  C   C6821     1.0  0.83060  0.53988  0.82662  1.0000
  H   H5442     1.0  0.80951  0.59546  0.76571  1.0000
  H   H5443     1.0  0.70604  0.50301  0.79190  1.0000
  C   C6822     1.0  0.97215  0.58491  0.96680  1.0000
  H   H5444     1.0  0.81813  0.53852  0.92643  1.0000
  H   H5445     1.0  0.94932  0.65558  0.91654  1.0000
  C   C6823     1.0  0.94278  0.64948  0.92584  1.0000
  H   H5446     1.0  0.95183  0.60304  0.95767  1.0000
  C   C6824     1.0  0.93473  0.54020  0.96924  1.0000
  H   H5447     1.0  0.81602  0.50299  0.82465  1.0000
  C   C6825     1.0  0.88614  0.54287  0.86265  1.0000
  C   C6826     1.0  0.92697  0.53575  0.98203  1.0000
  H   H5448     1.0  0.83426  0.56624  0.79679  1.0000
  C   C6827     1.0  0.81087  0.58417  0.77356  1.0000
  H   H5449     1.0  0.86496  0.58185  0.97352  1.0000
  C   C6828     1.0  0.87322  0.54070  0.85727  1.0000
  H   H5450     1.0  0.79788  0.57022  0.81818  1.0000
  C   C6829     1.0  0.82348  0.58175  0.78075  1.0000
  H   H5451     1.0  0.84981  0.60127  0.95689  1.0000
  H   H5452     1.0  0.64300  0.69504  0.84960  1.0000
  H   H5453     1.0  0.99679  0.59569  0.98280  1.0000
  H   H5454     1.0  0.50856  0.74027  0.78865  1.0000
  C   C6830     1.0  0.84978  0.51432  0.91943  1.0000
  C   C6831     1.0  0.89786  0.52804  0.86796  1.0000
  P   P228      1.0  0.84527  0.50799  0.93645  1.0000
  H   H5455     1.0  0.88838  0.53593  0.94358  1.0000
  C   C6832     1.0  0.66810  0.67827  0.84273  1.0000
  H   H5456     1.0  0.90846  0.62864  0.94028  1.0000
  C   C6833     1.0  0.80302  0.54993  0.94213  1.0000
  C   C6834     1.0  0.98255  0.68123  0.95080  1.0000
  H   H5457     1.0  0.66832  0.66952  0.85189  1.0000
  C   C6835     1.0  0.80042  0.54909  0.95502  1.0000
  C   C6836     1.0  0.71996  0.68556  0.82890  1.0000
  C   C6837     1.0  0.68208  0.67539  0.83226  1.0000
  C   C6838     1.0  0.87159  0.49253  0.95084  1.0000
  C   C6839     1.0  0.69735  0.50460  0.84838  1.0000
  C   C6840     1.0  0.59832  0.73205  0.78356  1.0000
  H   H5458     1.0  0.90097  0.50950  0.95844  1.0000
  C   C6841     1.0  0.89091  0.60702  0.98055  1.0000
  C   C6842     1.0  0.75594  0.51418  0.92572  1.0000
  H   H5459     1.0  0.96599  0.49757  0.88822  1.0000
  C   C6843     1.0  0.81764  0.49772  0.79119  1.0000
  H   H5460     1.0  0.98728  0.57499  0.94089  1.0000
  C   C6844     1.0  0.75348  0.50222  0.91972  1.0000
  C   C6845     1.0  0.92462  0.58442  0.97866  1.0000
  H   H5461     1.0  0.77996  0.49506  0.89635  1.0000
  C   C6846     1.0  0.75051  0.66948  0.73671  1.0000
  H   H5462     1.0  0.95396  0.49368  0.91651  1.0000
  C   C6847     1.0  0.66611  0.50328  0.85573  1.0000
  C   C6848     1.0  0.97402  0.56037  0.93427  1.0000
  H   H5463     1.0  0.70931  0.50944  0.89198  1.0000
  H   H5464     1.0  0.83287  0.49694  0.84092  1.0000
  C   C6849     1.0  0.84720  0.49273  0.84009  1.0000
  H   H5465     1.0  0.59572  0.50194  0.83528  1.0000
  C   C6850     1.0  0.73674  0.49356  0.82765  1.0000
  H   H5466     1.0  0.99303  0.56977  0.97673  1.0000
  C   C6851     1.0  0.79187  0.49398  0.75437  1.0000
  H   H5467     1.0  0.81195  0.49532  0.94901  1.0000
  H   H5468     1.0  0.83264  0.51261  0.96232  1.0000
  C   C6852     1.0  0.95937  0.50558  0.95185  1.0000
  S   S897      1.0  0.91880  0.49100  0.89516  1.0000
  H   H5469     1.0  0.60092  0.73609  0.76356  1.0000
  C   C6853     1.0  0.96544  0.49737  0.91758  1.0000
  H   H5470     1.0  0.87643  0.49132  0.88815  1.0000
  H   H5471     1.0  0.77984  0.49609  0.81328  1.0000
  H   H5472     1.0  0.90558  0.49970  0.87233  1.0000
  H   H5473     1.0  0.99396  0.49425  0.89527  1.0000
  P   P229      1.0  0.74236  0.49284  0.90152  1.0000
  C   C6854     1.0  0.71857  0.49337  0.79053  1.0000
  H   H5474     1.0  0.72071  0.73478  0.75649  1.0000
  C   C6855     1.0  0.93989  0.49076  0.96962  1.0000
  C   C6856     1.0  0.73420  0.49728  0.79130  1.0000
  H   H5475     1.0  0.87786  0.61585  0.98129  1.0000
  H   H5476     1.0  0.91861  0.49257  0.84919  1.0000
  H   H5477     1.0  0.52231  0.73773  0.85086  1.0000
  C   C6857     1.0  0.89759  0.54286  0.97701  1.0000
  H   H5478     1.0  0.64647  0.74028  0.75115  1.0000
  C   C6858     1.0  0.64464  0.49038  0.82961  1.0000
  Fe  Fe445     1.0  0.54984  0.95142  0.00804  1.0000
  C   C6859     1.0  0.91467  0.81431  0.21497  1.0000
  S   S898      1.0  0.56632  0.92833  0.99924  1.0000
  Fe  Fe446     1.0  0.52919  0.95926  0.03368  1.0000
  H   H5479     1.0  0.60720  0.97864  0.01945  1.0000
  S   S899      1.0  0.51776  0.94835  0.05407  1.0000
  C   C6860     1.0  0.71057  0.80068  0.23026  1.0000
  H   H5480     1.0  0.60308  0.75672  0.13323  1.0000
  C   C6861     1.0  0.88794  0.84098  0.20516  1.0000
  C   C6862     1.0  0.62429  0.85905  0.23218  1.0000
  S   S900      1.0  0.52180  0.95082  0.01881  1.0000
  S   S901      1.0  0.55799  0.95741  0.02383  1.0000
  Fe  Fe447     1.0  0.55432  0.84606  0.11215  1.0000
  S   S902      1.0  0.53740  0.84871  0.13123  1.0000
  S   S903      1.0  0.55894  0.81997  0.10671  1.0000
  Fe  Fe448     1.0  0.55849  0.88383  0.10538  1.0000
  S   S904      1.0  0.54183  0.88979  0.12395  1.0000
  S   S905      1.0  0.57111  0.90375  0.08964  1.0000
  Fe  Fe449     1.0  0.55699  0.86313  0.13253  1.0000
  S   S906      1.0  0.56191  0.85694  0.15232  1.0000
  Fe  Fe450     1.0  0.52375  0.87475  0.12127  1.0000
  S   S907      1.0  0.57537  0.85831  0.11411  1.0000
  S   S908      1.0  0.53898  0.87104  0.10197  1.0000
  Fe  Fe451     1.0  0.64185  0.81889  0.18327  1.0000
  S   S909      1.0  0.63876  0.83789  0.16476  1.0000
  S   S910      1.0  0.64246  0.79047  0.18454  1.0000
  S   S911      1.0  0.66778  0.81335  0.18942  1.0000
  C   C6863     1.0  0.67259  0.75756  0.13145  1.0000
  C   C6864     1.0  0.63442  0.97163  0.00922  1.0000
  C   C6865     1.0  0.62312  0.77368  0.10732  1.0000
  C   C6866     1.0  0.78202  0.93532  0.22747  1.0000
  C   C6867     1.0  0.61637  0.88737  0.17040  1.0000
  H   H5481     1.0  0.53679  0.79802  0.20591  1.0000
  C   C6868     1.0  0.79106  0.78442  0.20003  1.0000
  C   C6869     1.0  0.83428  0.87800  0.22350  1.0000
  C   C6870     1.0  0.76235  0.79697  0.21230  1.0000
  C   C6871     1.0  0.71940  0.82024  0.19445  1.0000
  H   H5482     1.0  0.59812  0.81045  0.09177  1.0000
  H   H5483     1.0  0.50906  0.84890  0.11900  1.0000
  H   H5484     1.0  0.57702  0.88253  0.16677  1.0000
  S   S912      1.0  0.69268  0.76705  0.18469  1.0000
  H   H5485     1.0  0.57662  0.89601  0.99122  1.0000
  H   H5486     1.0  0.64878  0.79515  0.13346  1.0000
  C   C6872     1.0  0.71594  0.79930  0.18392  1.0000
  C   C6873     1.0  0.61944  0.86261  0.21126  1.0000
  H   H5487     1.0  0.57995  0.75674  0.23043  1.0000
  H   H5488     1.0  0.60245  0.82310  0.10805  1.0000
  C   C6874     1.0  0.75818  0.83914  0.20281  1.0000
  C   C6875     1.0  0.63330  0.79949  0.15157  1.0000
  S   S913      1.0  0.54325  0.97980  0.99812  1.0000
  C   C6876     1.0  0.62009  0.79437  0.16196  1.0000
  C   C6877     1.0  0.60611  0.80221  0.09851  1.0000
  S   S914      1.0  0.73390  0.88580  0.22777  1.0000
  C   C6878     1.0  0.76824  0.78760  0.22343  1.0000
  H   H5489     1.0  0.58569  0.97291  0.00708  1.0000
  H   H5490     1.0  0.61123  0.77881  0.09127  1.0000
  H   H5491     1.0  0.80984  0.76631  0.21077  1.0000
  C   C6879     1.0  0.51562  0.77832  0.19298  1.0000
  C   C6880     1.0  0.52134  0.77518  0.08317  1.0000
  C   C6881     1.0  0.63898  0.79061  0.14165  1.0000
  H   H5492     1.0  0.61911  0.80454  0.12408  1.0000
  Fe  Fe452     1.0  0.54893  0.98604  0.01473  1.0000
  H   H5493     1.0  0.78997  0.76946  0.23141  1.0000
  H   H5494     1.0  0.63706  0.95854  0.01519  1.0000
  C   C6882     1.0  0.52467  0.79401  0.14938  1.0000
  C   C6883     1.0  0.59953  0.75728  0.19955  1.0000
  C   C6884     1.0  0.69277  0.76900  0.22301  1.0000
  C   C6885     1.0  0.53442  0.98438  0.05996  1.0000
  C   C6886     1.0  0.61808  0.79870  0.11683  1.0000
  H   H5495     1.0  0.87785  0.85148  0.20124  1.0000
  C   C6887     1.0  0.59455  0.88585  0.19021  1.0000
  H   H5496     1.0  0.83201  0.88693  0.22972  1.0000
  C   C6888     1.0  0.50206  0.77309  0.19003  1.0000
  C   C6889     1.0  0.69671  0.74545  0.19376  1.0000
  C   C6890     1.0  0.53474  0.88924  0.06456  1.0000
  S   S915      1.0  0.57607  0.76646  0.15623  1.0000
  H   H5497     1.0  0.78256  0.93716  0.21751  1.0000
  H   H5498     1.0  0.64144  0.91760  0.17054  1.0000
  H   H5499     1.0  0.63880  0.81063  0.15110  1.0000
  C   C6891     1.0  0.79671  0.77501  0.21115  1.0000
  H   H5500     1.0  0.58229  0.80842  0.16633  1.0000
  C   C6892     1.0  0.50748  0.93844  0.98579  1.0000
  H   H5501     1.0  0.71285  0.75578  0.11077  1.0000
  C   C6893     1.0  0.67578  0.86593  0.21558  1.0000
  C   C6894     1.0  0.66990  0.85139  0.21458  1.0000
  H   H5502     1.0  0.59509  0.74101  0.18864  1.0000
  H   H5503     1.0  0.67672  0.87709  0.20769  1.0000
  C   C6895     1.0  0.50513  0.81667  0.19264  1.0000
  H   H5504     1.0  0.56432  0.81601  0.98429  1.0000
  C   C6896     1.0  0.58360  0.85074  0.15532  1.0000
  C   C6897     1.0  0.59867  0.85311  0.14569  1.0000
  C   C6898     1.0  0.61561  0.84907  0.14865  1.0000
  C   C6899     1.0  0.61757  0.84232  0.16119  1.0000
  C   C6900     1.0  0.60256  0.83957  0.17076  1.0000
  C   C6901     1.0  0.58560  0.84400  0.16784  1.0000
  H   H5505     1.0  0.59719  0.85843  0.13603  1.0000
  H   H5506     1.0  0.62720  0.85124  0.14121  1.0000
  H   H5507     1.0  0.60392  0.83452  0.18045  1.0000
  H   H5508     1.0  0.57394  0.84237  0.17532  1.0000
  C   C6902     1.0  0.56456  0.80429  0.12000  1.0000
  C   C6903     1.0  0.56274  0.78679  0.12228  1.0000
  C   C6904     1.0  0.56634  0.77483  0.13343  1.0000
  C   C6905     1.0  0.57192  0.78047  0.14211  1.0000
  C   C6906     1.0  0.57439  0.79768  0.13958  1.0000
  C   C6907     1.0  0.57048  0.80962  0.12864  1.0000
  H   H5509     1.0  0.55813  0.78257  0.11569  1.0000
  H   H5510     1.0  0.56460  0.76141  0.13538  1.0000
  H   H5511     1.0  0.57902  0.80194  0.14619  1.0000
  H   H5512     1.0  0.57217  0.82296  0.12692  1.0000
  C   C6908     1.0  0.53275  0.93702  0.06406  1.0000
  C   C6909     1.0  0.52613  0.92819  0.07632  1.0000
  C   C6910     1.0  0.53782  0.91817  0.08427  1.0000
  C   C6911     1.0  0.55621  0.91727  0.08011  1.0000
  C   C6912     1.0  0.56281  0.92677  0.06807  1.0000
  C   C6913     1.0  0.55112  0.93647  0.06000  1.0000
  C   C6914     1.0  0.52130  0.74990  0.20763  1.0000
  H   H5513     1.0  0.53258  0.91112  0.09362  1.0000
  H   H5514     1.0  0.57703  0.92614  0.06484  1.0000
  H   H5515     1.0  0.55636  0.94332  0.05061  1.0000
  C   C6915     1.0  0.55580  0.80394  0.17448  1.0000
  P   P230      1.0  0.74024  0.81115  0.21266  1.0000
  S   S916      1.0  0.62492  0.81991  0.20275  1.0000
  C   C6916     1.0  0.54678  0.79979  0.19724  1.0000
  H   H5516     1.0  0.69293  0.76626  0.09547  1.0000
  C   C6917     1.0  0.52040  0.77162  0.09622  1.0000
  S   S917      1.0  0.65877  0.81927  0.22493  1.0000
  C   C6918     1.0  0.63145  0.77651  0.14210  1.0000
  C   C6919     1.0  0.62957  0.94215  0.17654  1.0000
  S   S918      1.0  0.60341  0.77823  0.21452  1.0000
  H   H5517     1.0  0.71589  0.83362  0.19585  1.0000
  H   H5518     1.0  0.66641  0.85141  0.20595  1.0000
  H   H5519     1.0  0.53453  0.78708  0.06464  1.0000
  C   C6920     1.0  0.72697  0.86513  0.20699  1.0000
  C   C6921     1.0  0.74329  0.87003  0.20113  1.0000
  C   C6922     1.0  0.75891  0.85705  0.19915  1.0000
  H   H5520     1.0  0.59065  0.88614  0.20014  1.0000
  C   C6923     1.0  0.74178  0.83410  0.20860  1.0000
  C   C6924     1.0  0.72623  0.84726  0.21087  1.0000
  C   C6925     1.0  0.61763  0.98289  0.01162  1.0000
  C   C6926     1.0  0.61194  0.88713  0.18338  1.0000
  H   H5521     1.0  0.60259  0.77605  0.17063  1.0000
  H   H5522     1.0  0.77050  0.82940  0.20132  1.0000
  C   C6927     1.0  0.54592  0.78962  0.07913  1.0000
  H   H5523     1.0  0.63617  0.94996  0.16799  1.0000
  P   P231      1.0  0.50146  0.88202  0.06720  1.0000
  C   C6928     1.0  0.51586  0.81056  0.14361  1.0000
  C   C6929     1.0  0.79519  0.93989  0.23126  1.0000
  H   H5524     1.0  0.50912  0.86657  0.04525  1.0000
  H   H5525     1.0  0.53276  0.88477  0.07472  1.0000
  H   H5526     1.0  0.52188  0.83588  0.18435  1.0000
  H   H5527     1.0  0.56709  0.79931  0.20678  1.0000
  C   C6930     1.0  0.61341  0.78438  0.09829  1.0000
  H   H5528     1.0  0.71494  0.87522  0.20879  1.0000
  H   H5529     1.0  0.74386  0.88390  0.19848  1.0000
  Fe  Fe453     1.0  0.62720  0.79082  0.20435  1.0000
  C   C6931     1.0  0.52612  0.79081  0.16192  1.0000
  H   H5530     1.0  0.71348  0.84371  0.21558  1.0000
  S   S919      1.0  0.65190  0.78286  0.21232  1.0000
  H   H5531     1.0  0.90961  0.85232  0.19252  1.0000
  C   C6932     1.0  0.79322  0.86329  0.23177  1.0000
  H   H5532     1.0  0.63723  0.75303  0.17524  1.0000
  H   H5533     1.0  0.77162  0.86086  0.19498  1.0000
  H   H5534     1.0  0.68926  0.77715  0.21427  1.0000
  C   C6933     1.0  0.50969  0.82074  0.16298  1.0000
  C   C6934     1.0  0.62550  0.78072  0.11670  1.0000
  C   C6935     1.0  0.68019  0.86625  0.22677  1.0000
  C   C6936     1.0  0.67221  0.85857  0.17350  1.0000
  C   C6937     1.0  0.68614  0.86595  0.17359  1.0000
  C   C6938     1.0  0.68240  0.88055  0.17906  1.0000
  C   C6939     1.0  0.66471  0.88802  0.18417  1.0000
  C   C6940     1.0  0.65062  0.88101  0.18374  1.0000
  C   C6941     1.0  0.65457  0.86583  0.17881  1.0000
  P   P232      1.0  0.62792  0.88997  0.19097  1.0000
  C   C6942     1.0  0.62533  0.87855  0.20730  1.0000
  C   C6943     1.0  0.63107  0.88445  0.21584  1.0000
  C   C6944     1.0  0.62425  0.91357  0.18917  1.0000
  C   C6945     1.0  0.63262  0.92379  0.17806  1.0000
  C   C6946     1.0  0.52525  0.76653  0.20182  1.0000
  C   C6947     1.0  0.61795  0.95043  0.18602  1.0000
  C   C6948     1.0  0.60922  0.94038  0.19697  1.0000
  C   C6949     1.0  0.61222  0.92202  0.19850  1.0000
  H   H5535     1.0  0.67498  0.84714  0.16939  1.0000
  H   H5536     1.0  0.69983  0.86025  0.16956  1.0000
  H   H5537     1.0  0.69322  0.88600  0.17945  1.0000
  H   H5538     1.0  0.66208  0.89909  0.18861  1.0000
  H   H5539     1.0  0.64401  0.85958  0.17905  1.0000
  H   H5540     1.0  0.63672  0.89612  0.21280  1.0000
  H   H5541     1.0  0.62954  0.88871  0.16482  1.0000
  H   H5542     1.0  0.58984  0.80456  0.18714  1.0000
  C   C6950     1.0  0.60857  0.80937  0.10770  1.0000
  H   H5543     1.0  0.60511  0.91447  0.20694  1.0000
  H   H5544     1.0  0.78117  0.89108  0.23024  1.0000
  C   C6951     1.0  0.89668  0.81371  0.21994  1.0000
  C   C6952     1.0  0.61884  0.85295  0.22368  1.0000
  C   C6953     1.0  0.60378  0.88572  0.16447  1.0000
  C   C6954     1.0  0.64777  0.97730  0.99913  1.0000
  H   H5545     1.0  0.55306  0.80537  0.16533  1.0000
  S   S920      1.0  0.75124  0.92463  0.23059  1.0000
  H   H5546     1.0  0.60739  0.88540  0.15453  1.0000
  H   H5547     1.0  0.53353  0.77807  0.16611  1.0000
  Fe  Fe454     1.0  0.66700  0.78492  0.19227  1.0000
  H   H5548     1.0  0.67192  0.74896  0.20749  1.0000
  C   C6955     1.0  0.77391  0.79525  0.20059  1.0000
  H   H5549     1.0  0.53067  0.78374  0.14406  1.0000
  H   H5550     1.0  0.66708  0.75501  0.14154  1.0000
  C   C6956     1.0  0.61297  0.78000  0.16264  1.0000
  H   H5551     1.0  0.56032  0.89486  0.06282  1.0000
  H   H5552     1.0  0.72951  0.77229  0.18956  1.0000
  H   H5553     1.0  0.61584  0.85734  0.20467  1.0000
  H   H5554     1.0  0.61562  0.96465  0.18484  1.0000
  C   C6957     1.0  0.69113  0.75474  0.12709  1.0000
  H   H5555     1.0  0.92498  0.80400  0.21886  1.0000
  H   H5556     1.0  0.61488  0.84033  0.22657  1.0000
  P   P233      1.0  0.52069  0.79975  0.18504  1.0000
  H   H5557     1.0  0.51168  0.74498  0.15105  1.0000
  H   H5558     1.0  0.62850  0.75983  0.10710  1.0000
  C   C6958     1.0  0.66868  0.76656  0.10985  1.0000
  H   H5559     1.0  0.55559  0.79684  0.07259  1.0000
  C   C6959     1.0  0.63112  0.74529  0.13292  1.0000
  C   C6960     1.0  0.58201  0.88415  0.18425  1.0000
  H   H5560     1.0  0.60856  0.76381  0.19183  1.0000
  C   C6961     1.0  0.82944  0.80094  0.21246  1.0000
  C   C6962     1.0  0.84186  0.78597  0.20920  1.0000
  C   C6963     1.0  0.85978  0.78361  0.20955  1.0000
  C   C6964     1.0  0.86535  0.79624  0.21306  1.0000
  C   C6965     1.0  0.85304  0.81142  0.21624  1.0000
  C   C6966     1.0  0.83497  0.81356  0.21604  1.0000
  H   H5561     1.0  0.78893  0.86241  0.22367  1.0000
  C   C6967     1.0  0.77330  0.74677  0.20092  1.0000
  C   C6968     1.0  0.53404  0.78416  0.07467  1.0000
  H   H5562     1.0  0.74268  0.77872  0.20486  1.0000
  C   C6969     1.0  0.72588  0.80740  0.22816  1.0000
  C   C6970     1.0  0.73438  0.78941  0.19945  1.0000
  C   C6971     1.0  0.59521  0.76182  0.21137  1.0000
  H   H5563     1.0  0.51197  0.92878  0.07964  1.0000
  C   C6972     1.0  0.61879  0.77098  0.15281  1.0000
  C   C6973     1.0  0.56382  0.80077  0.19777  1.0000
  C   C6974     1.0  0.54280  0.80088  0.18561  1.0000
  H   H5564     1.0  0.76967  0.80241  0.19188  1.0000
  H   H5565     1.0  0.50058  0.85945  0.19422  1.0000
  C   C6975     1.0  0.84673  0.84889  0.21857  1.0000
  C   C6976     1.0  0.83996  0.85499  0.20750  1.0000
  C   C6977     1.0  0.83011  0.87235  0.20463  1.0000
  C   C6978     1.0  0.82723  0.88384  0.21265  1.0000
  H   H5566     1.0  0.82507  0.82476  0.21888  1.0000
  Fe  Fe455     1.0  0.51558  0.97983  0.00986  1.0000
  H   H5567     1.0  0.81543  0.80252  0.21257  1.0000
  H   H5568     1.0  0.83759  0.77585  0.20683  1.0000
  H   H5569     1.0  0.86930  0.77162  0.20759  1.0000
  H   H5570     1.0  0.87918  0.79370  0.21367  1.0000
  H   H5571     1.0  0.52933  0.74063  0.21401  1.0000
  H   H5572     1.0  0.51530  0.81319  0.13375  1.0000
  C   C6979     1.0  0.57673  0.80363  0.18667  1.0000
  C   C6980     1.0  0.63038  0.87481  0.22827  1.0000
  H   H5573     1.0  0.54087  0.90949  0.02863  1.0000
  C   C6981     1.0  0.51498  0.92823  0.99605  1.0000
  C   C6982     1.0  0.69848  0.75787  0.11413  1.0000
  C   C6983     1.0  0.78538  0.77669  0.22282  1.0000
  H   H5574     1.0  0.70698  0.79760  0.22265  1.0000
  P   P234      1.0  0.50308  0.76110  0.10707  1.0000
  H   H5575     1.0  0.84237  0.84639  0.20105  1.0000
  H   H5576     1.0  0.82470  0.87695  0.19618  1.0000
  H   H5577     1.0  0.81946  0.89726  0.21051  1.0000
  C   C6984     1.0  0.57259  0.80552  0.17502  1.0000
  H   H5578     1.0  0.50416  0.83148  0.16788  1.0000
  H   H5579     1.0  0.61528  0.80169  0.16940  1.0000
  C   C6985     1.0  0.50793  0.74478  0.20452  1.0000
  C   C6986     1.0  0.58664  0.88407  0.17138  1.0000
  C   C6987     1.0  0.66588  0.74956  0.17081  1.0000
  H   H5580     1.0  0.51361  0.89856  0.04024  1.0000
  H   H5581     1.0  0.70316  0.82690  0.18067  1.0000
  C   C6988     1.0  0.52172  0.88940  0.05825  1.0000
  Fe  Fe456     1.0  0.65119  0.81196  0.20908  1.0000
  H   H5582     1.0  0.60007  0.94682  0.20426  1.0000
  S   S921      1.0  0.68546  0.88566  0.22820  1.0000
  C   C6989     1.0  0.58343  0.75333  0.22129  1.0000
  H   H5583     1.0  0.56872  0.88280  0.18957  1.0000
  C   C6990     1.0  0.88314  0.82710  0.21517  1.0000
  C   C6991     1.0  0.53389  0.98053  0.07289  1.0000
  C   C6992     1.0  0.71211  0.81651  0.18578  1.0000
  H   H5584     1.0  0.79994  0.78318  0.19098  1.0000
  H   H5585     1.0  0.55425  0.79060  0.09545  1.0000
  H   H5586     1.0  0.78425  0.75355  0.19734  1.0000
  C   C6993     1.0  0.55029  0.89522  0.05785  1.0000
  C   C6994     1.0  0.55254  0.90239  0.04490  1.0000
  H   H5587     1.0  0.66022  0.77116  0.10303  1.0000
  C   C6995     1.0  0.73077  0.80673  0.20128  1.0000
  H   H5588     1.0  0.53633  0.76962  0.20393  1.0000
  C   C6996     1.0  0.52464  0.83318  0.08593  1.0000
  P   P235      1.0  0.63735  0.76645  0.12867  1.0000
  H   H5589     1.0  0.75981  0.78866  0.23259  1.0000
  H   H5590     1.0  0.56431  0.90761  0.03981  1.0000
  C   C6997     1.0  0.66122  0.76360  0.12285  1.0000
  H   H5591     1.0  0.60660  0.94492  0.01412  1.0000
  C   C6998     1.0  0.72700  0.78572  0.19079  1.0000
  H   H5592     1.0  0.71002  0.79642  0.17732  1.0000
  C   C6999     1.0  0.50985  0.82561  0.09199  1.0000
  H   H5593     1.0  0.76774  0.75216  0.21928  1.0000
  H   H5594     1.0  0.50182  0.83686  0.14587  1.0000
  C   C7000     1.0  0.53929  0.90342  0.03861  1.0000
  C   C7001     1.0  0.64994  0.74436  0.17234  1.0000
  H   H5595     1.0  0.93330  0.82870  0.20132  1.0000
  C   C7002     1.0  0.51848  0.80409  0.16887  1.0000
  C   C7003     1.0  0.84399  0.86061  0.22645  1.0000
  C   C7004     1.0  0.76402  0.74569  0.21348  1.0000
  H   H5596     1.0  0.53412  0.85551  0.07355  1.0000
  C   C7005     1.0  0.61759  0.94018  0.99533  1.0000
  S   S922      1.0  0.88703  0.76088  0.23350  1.0000
  H   H5597     1.0  0.74380  0.74908  0.15104  1.0000
  C   C7006     1.0  0.68726  0.76375  0.10552  1.0000
  H   H5598     1.0  0.54200  0.96828  0.07715  1.0000
  C   C7007     1.0  0.59403  0.96512  0.00034  1.0000
  C   C7008     1.0  0.57059  0.90587  0.98402  1.0000
  H   H5599     1.0  0.71976  0.75952  0.21406  1.0000
  C   C7009     1.0  0.50523  0.85972  0.07655  1.0000
  C   C7010     1.0  0.66770  0.83729  0.22499  1.0000
  C   C7011     1.0  0.50782  0.75197  0.13197  1.0000
  H   H5600     1.0  0.62716  0.92827  0.99830  1.0000
  C   C7012     1.0  0.91933  0.82822  0.20510  1.0000
  C   C7013     1.0  0.53255  0.77695  0.10063  1.0000
  C   C7014     1.0  0.59274  0.97084  0.98771  1.0000
  C   C7015     1.0  0.52390  0.89703  0.04525  1.0000
  H   H5601     1.0  0.69426  0.74249  0.16696  1.0000
  H   H5602     1.0  0.58327  0.98296  0.98504  1.0000
  H   H5603     1.0  0.52711  0.93051  0.99731  1.0000
  H   H5604     1.0  0.61300  0.75998  0.15353  1.0000
  H   H5605     1.0  0.80581  0.94511  0.22418  1.0000
  H   H5606     1.0  0.53208  0.77448  0.11064  1.0000
  C   C7016     1.0  0.50933  0.83325  0.19049  1.0000
  H   H5607     1.0  0.53781  0.82614  0.08754  1.0000
  S   S923      1.0  0.52066  0.98823  0.02567  1.0000
  C   C7017     1.0  0.60608  0.94956  0.00423  1.0000
  C   C7018     1.0  0.61324  0.74463  0.13431  1.0000
  C   C7019     1.0  0.56382  0.92331  0.98556  1.0000
  C   C7020     1.0  0.52241  0.85009  0.07811  1.0000
  C   C7021     1.0  0.71021  0.75911  0.22295  1.0000
  C   C7022     1.0  0.90598  0.84152  0.20017  1.0000
  H   H5608     1.0  0.66555  0.76229  0.17246  1.0000
  H   H5609     1.0  0.51208  0.77121  0.07957  1.0000
  C   C7023     1.0  0.54520  0.78599  0.09208  1.0000
  P   P236      1.0  0.85990  0.82664  0.22222  1.0000
  H   H5610     1.0  0.92435  0.75757  0.22458  1.0000
  H   H5611     1.0  0.54294  0.97519  0.05421  1.0000
  H   H5612     1.0  0.69977  0.75019  0.13377  1.0000
  H   H5613     1.0  0.51286  0.90722  0.01257  1.0000
  H   H5614     1.0  0.51155  0.81276  0.09835  1.0000
  H   H5615     1.0  0.94704  0.76749  0.23055  1.0000
  C   C7024     1.0  0.50829  0.82388  0.15044  1.0000
  H   H5616     1.0  0.78584  0.80829  0.23136  1.0000
  C   C7025     1.0  0.59186  0.74440  0.19777  1.0000
  C   C7026     1.0  0.50694  0.91505  0.00466  1.0000
  C   C7027     1.0  0.92046  0.76423  0.23236  1.0000
  H   H5617     1.0  0.66082  0.96860  0.99732  1.0000
  H   H5618     1.0  0.52290  0.98967  0.09022  1.0000
  H   H5619     1.0  0.89331  0.80282  0.22758  1.0000
  C   C7028     1.0  0.50583  0.75520  0.14389  1.0000
  Fe  Fe457     1.0  0.56683  0.74117  0.16260  1.0000
  S   S924      1.0  0.54574  0.74066  0.18021  1.0000
  C   C7029     1.0  0.79085  0.79735  0.26170  1.0000
  S   S925      1.0  0.58036  0.95179  0.43403  1.0000
  Fe  Fe458     1.0  0.52853  0.96892  0.43918  1.0000
  S   S926      1.0  0.54230  0.94218  0.43541  1.0000
  H   H5620     1.0  0.73978  0.97281  0.34117  1.0000
  Fe  Fe459     1.0  0.55878  0.94077  0.44902  1.0000
  S   S927      1.0  0.56476  0.91524  0.46299  1.0000
  Fe  Fe460     1.0  0.56249  0.95559  0.42076  1.0000
  S   S928      1.0  0.57010  0.94977  0.40129  1.0000
  H   H5621     1.0  0.56116  0.98076  0.37257  1.0000
  H   H5622     1.0  0.53087  0.92187  0.40906  1.0000
  H   H5623     1.0  0.64456  0.84332  0.28540  1.0000
  Fe  Fe461     1.0  0.66198  0.95307  0.32367  1.0000
  S   S929      1.0  0.68020  0.94258  0.33749  1.0000
  S   S930      1.0  0.65792  0.94047  0.30929  1.0000
  Fe  Fe462     1.0  0.65650  0.95453  0.35118  1.0000
  S   S931      1.0  0.65116  0.94216  0.37208  1.0000
  Fe  Fe463     1.0  0.68585  0.96988  0.33142  1.0000
  C   C7030     1.0  0.89025  0.91750  0.31601  1.0000
  S   S932      1.0  0.63778  0.96310  0.33786  1.0000
  H   H5624     1.0  0.66719  0.84380  0.32502  1.0000
  H   H5625     1.0  0.63701  0.79020  0.32132  1.0000
  C   C7031     1.0  0.82832  0.79793  0.33791  1.0000
  H   H5626     1.0  0.92524  0.90960  0.29171  1.0000
  H   H5627     1.0  0.63671  0.85742  0.26472  1.0000
  H   H5628     1.0  0.81676  0.74791  0.28854  1.0000
  C   C7032     1.0  0.68488  0.96608  0.37244  1.0000
  S   S933      1.0  0.83597  0.96124  0.26683  1.0000
  H   H5629     1.0  0.80608  0.83573  0.23586  1.0000
  S   S934      1.0  0.71290  0.87922  0.28459  1.0000
  Fe  Fe464     1.0  0.92432  0.84067  0.26694  1.0000
  Fe  Fe465     1.0  0.73621  0.90265  0.23987  1.0000
  S   S935      1.0  0.91412  0.86810  0.25628  1.0000
  Fe  Fe466     1.0  0.91462  0.81028  0.28836  1.0000
  S   S936      1.0  0.94095  0.79229  0.28300  1.0000
  S   S937      1.0  0.89428  0.80250  0.30595  1.0000
  Fe  Fe467     1.0  0.95297  0.81555  0.28046  1.0000
  S   S938      1.0  0.97640  0.80958  0.28988  1.0000
  C   C7033     1.0  0.83194  0.74456  0.31478  1.0000
  S   S939      1.0  0.92667  0.83285  0.28716  1.0000
  S   S940      1.0  0.90981  0.81956  0.26867  1.0000
  C   C7034     1.0  0.69920  0.79858  0.24221  1.0000
  S   S941      1.0  0.82168  0.92465  0.28161  1.0000
  S   S942      1.0  0.82217  0.95291  0.29777  1.0000
  Fe  Fe468     1.0  0.84128  0.93877  0.28324  1.0000
  S   S943      1.0  0.86726  0.92385  0.28886  1.0000
  Fe  Fe469     1.0  0.80203  0.94067  0.29485  1.0000
  S   S944      1.0  0.78373  0.92676  0.31107  1.0000
  H   H5630     1.0  0.92954  0.75130  0.38768  1.0000
  S   S945      1.0  0.95177  0.82507  0.25997  1.0000
  H   H5631     1.0  0.97796  0.84462  0.27369  1.0000
  C   C7035     1.0  0.80374  0.83343  0.27962  1.0000
  C   C7036     1.0  0.77883  0.81190  0.26601  1.0000
  C   C7037     1.0  0.90052  0.78011  0.32807  1.0000
  C   C7038     1.0  0.90301  0.78201  0.31505  1.0000
  C   C7039     1.0  0.91224  0.76755  0.30949  1.0000
  H   H5632     1.0  0.95557  0.76167  0.29828  1.0000
  H   H5633     1.0  0.77983  0.93039  0.26300  1.0000
  H   H5634     1.0  0.89338  0.79123  0.33240  1.0000
  H   H5635     1.0  0.91407  0.76889  0.29944  1.0000
  Fe  Fe470     1.0  0.74251  0.86287  0.24274  1.0000
  C   C7040     1.0  0.90168  0.88383  0.26534  1.0000
  C   C7041     1.0  0.89193  0.89990  0.25955  1.0000
  C   C7042     1.0  0.88102  0.91218  0.26675  1.0000
  C   C7043     1.0  0.88045  0.90867  0.27968  1.0000
  C   C7044     1.0  0.89059  0.89286  0.28542  1.0000
  C   C7045     1.0  0.90089  0.88032  0.27831  1.0000
  H   H5636     1.0  0.89269  0.90281  0.24950  1.0000
  H   H5637     1.0  0.87329  0.92446  0.26227  1.0000
  C   C7046     1.0  0.70288  0.80336  0.25208  1.0000
  H   H5638     1.0  0.90794  0.86787  0.28291  1.0000
  Fe  Fe471     1.0  0.81430  0.94823  0.26646  1.0000
  H   H5639     1.0  0.74881  0.92056  0.32397  1.0000
  H   H5640     1.0  0.84930  0.85636  0.23487  1.0000
  C   C7047     1.0  0.86828  0.82339  0.24537  1.0000
  C   C7048     1.0  0.80774  0.81672  0.28748  1.0000
  H   H5641     1.0  0.95624  0.81037  0.31819  1.0000
  C   C7049     1.0  0.60611  0.96550  0.47521  1.0000
  C   C7050     1.0  0.67497  0.92487  0.30195  1.0000
  C   C7051     1.0  0.67444  0.92331  0.28997  1.0000
  C   C7052     1.0  0.68644  0.90976  0.28437  1.0000
  C   C7053     1.0  0.69884  0.89738  0.29085  1.0000
  C   C7054     1.0  0.69947  0.89896  0.30282  1.0000
  C   C7055     1.0  0.68772  0.91280  0.30830  1.0000
  H   H5642     1.0  0.66450  0.93249  0.28506  1.0000
  H   H5643     1.0  0.68570  0.90862  0.27522  1.0000
  H   H5644     1.0  0.70896  0.88938  0.30791  1.0000
  H   H5645     1.0  0.68805  0.91373  0.31761  1.0000
  C   C7056     1.0  0.73083  0.96449  0.32232  1.0000
  H   H5646     1.0  0.56860  0.89648  0.43287  1.0000
  C   C7057     1.0  0.76235  0.95956  0.31218  1.0000
  C   C7058     1.0  0.76334  0.94132  0.31516  1.0000
  C   C7059     1.0  0.74805  0.93467  0.32168  1.0000
  C   C7060     1.0  0.73172  0.94628  0.32513  1.0000
  H   H5647     1.0  0.77697  0.81293  0.27565  1.0000
  H   H5648     1.0  0.54392  0.89172  0.45126  1.0000
  C   C7061     1.0  0.59276  0.94687  0.39344  1.0000
  C   C7062     1.0  0.60647  0.94272  0.39999  1.0000
  C   C7063     1.0  0.62442  0.94068  0.39338  1.0000
  C   C7064     1.0  0.62867  0.94334  0.38017  1.0000
  C   C7065     1.0  0.61496  0.94722  0.37366  1.0000
  C   C7066     1.0  0.59709  0.94862  0.38031  1.0000
  H   H5649     1.0  0.60327  0.94102  0.41014  1.0000
  H   H5650     1.0  0.63498  0.93751  0.39848  1.0000
  H   H5651     1.0  0.61813  0.94895  0.36351  1.0000
  H   H5652     1.0  0.58654  0.95130  0.37527  1.0000
  C   C7067     1.0  0.79369  0.88039  0.24621  1.0000
  H   H5653     1.0  0.83499  0.79349  0.26444  1.0000
  H   H5654     1.0  0.87550  0.82012  0.26307  1.0000
  H   H5655     1.0  0.54221  0.88857  0.47442  1.0000
  Fe  Fe472     1.0  0.82438  0.76167  0.26158  1.0000
  C   C7068     1.0  0.89178  0.74375  0.28964  1.0000
  C   C7069     1.0  0.72934  0.81236  0.23809  1.0000
  H   H5656     1.0  0.51333  0.95882  0.42210  1.0000
  C   C7070     1.0  0.70195  0.74796  0.24551  1.0000
  H   H5657     1.0  0.98067  0.86185  0.30248  1.0000
  C   C7071     1.0  0.94995  0.83885  0.31365  1.0000
  H   H5658     1.0  0.65653  0.98215  0.39714  1.0000
  S   S946      1.0  0.66979  0.97938  0.31646  1.0000
  H   H5659     1.0  0.83699  0.80460  0.24165  1.0000
  C   C7072     1.0  0.83067  0.74924  0.30205  1.0000
  C   C7073     1.0  0.79472  0.89351  0.28074  1.0000
  C   C7074     1.0  0.66123  0.79845  0.31028  1.0000
  C   C7075     1.0  0.82167  0.81257  0.29381  1.0000
  H   H5660     1.0  0.79284  0.83646  0.27481  1.0000
  H   H5661     1.0  0.90656  0.78957  0.25938  1.0000
  C   C7076     1.0  0.76945  0.82526  0.25776  1.0000
  H   H5662     1.0  0.94627  0.87263  0.26297  1.0000
  C   C7077     1.0  0.76280  0.90489  0.28692  1.0000
  C   C7078     1.0  0.83148  0.82522  0.29243  1.0000
  H   H5663     1.0  0.84222  0.82205  0.29740  1.0000
  C   C7079     1.0  0.81403  0.84594  0.27774  1.0000
  H   H5664     1.0  0.76048  0.83672  0.26097  1.0000
  C   C7080     1.0  0.68831  0.98190  0.36432  1.0000
  C   C7081     1.0  0.79149  0.88125  0.27533  1.0000
  H   H5665     1.0  0.52178  0.94199  0.47128  1.0000
  H   H5666     1.0  0.78294  0.91542  0.28998  1.0000
  C   C7082     1.0  0.90763  0.76397  0.33548  1.0000
  C   C7083     1.0  0.93410  0.75084  0.36804  1.0000
  C   C7084     1.0  0.85758  0.81901  0.23912  1.0000
  H   H5667     1.0  0.53764  0.83795  0.46479  1.0000
  H   H5668     1.0  0.67443  0.75724  0.25425  1.0000
  H   H5669     1.0  0.96243  0.77241  0.33169  1.0000
  H   H5670     1.0  0.69378  0.80216  0.26122  1.0000
  H   H5671     1.0  0.86871  0.74406  0.33994  1.0000
  C   C7085     1.0  0.84014  0.91345  0.31946  1.0000
  C   C7086     1.0  0.82441  0.92004  0.32750  1.0000
  C   C7087     1.0  0.81137  0.90999  0.33291  1.0000
  C   C7088     1.0  0.81398  0.89341  0.33017  1.0000
  C   C7089     1.0  0.82945  0.88700  0.32171  1.0000
  C   C7090     1.0  0.84277  0.89693  0.31664  1.0000
  P   P237      1.0  0.83298  0.86534  0.31855  1.0000
  C   C7091     1.0  0.84185  0.84990  0.33146  1.0000
  C   C7092     1.0  0.81270  0.86090  0.31710  1.0000
  C   C7093     1.0  0.81164  0.84338  0.31823  1.0000
  C   C7094     1.0  0.79638  0.83979  0.31645  1.0000
  C   C7095     1.0  0.78210  0.85366  0.31350  1.0000
  C   C7096     1.0  0.78313  0.87112  0.31226  1.0000
  C   C7097     1.0  0.79850  0.87478  0.31378  1.0000
  C   C7098     1.0  0.83030  0.84262  0.34228  1.0000
  C   C7099     1.0  0.83721  0.83085  0.35238  1.0000
  C   C7100     1.0  0.85565  0.82639  0.35175  1.0000
  C   C7101     1.0  0.86717  0.83397  0.34114  1.0000
  C   C7102     1.0  0.86027  0.84590  0.33110  1.0000
  C   C7103     1.0  0.84794  0.86324  0.30359  1.0000
  C   C7104     1.0  0.85962  0.84700  0.30195  1.0000
  C   C7105     1.0  0.87078  0.84542  0.29020  1.0000
  C   C7106     1.0  0.87012  0.85984  0.27998  1.0000
  C   C7107     1.0  0.85810  0.87584  0.28144  1.0000
  C   C7108     1.0  0.84699  0.87751  0.29318  1.0000
  H   H5672     1.0  0.85012  0.92136  0.31512  1.0000
  H   H5673     1.0  0.82225  0.93304  0.32939  1.0000
  H   H5674     1.0  0.79899  0.91526  0.33893  1.0000
  H   H5675     1.0  0.80368  0.88585  0.33444  1.0000
  H   H5676     1.0  0.85508  0.89216  0.31035  1.0000
  H   H5677     1.0  0.82279  0.83256  0.32019  1.0000
  H   H5678     1.0  0.79572  0.82628  0.31714  1.0000
  H   H5679     1.0  0.77030  0.85097  0.31201  1.0000
  H   H5680     1.0  0.77209  0.88191  0.30994  1.0000
  H   H5681     1.0  0.79927  0.88849  0.31220  1.0000
  H   H5682     1.0  0.81596  0.84616  0.34296  1.0000
  H   H5683     1.0  0.82825  0.82527  0.36073  1.0000
  H   H5684     1.0  0.86100  0.81724  0.35955  1.0000
  H   H5685     1.0  0.88144  0.83072  0.34072  1.0000
  H   H5686     1.0  0.86930  0.85202  0.32307  1.0000
  H   H5687     1.0  0.86017  0.83550  0.30966  1.0000
  H   H5688     1.0  0.88003  0.83304  0.28901  1.0000
  H   H5689     1.0  0.87913  0.85869  0.27097  1.0000
  H   H5690     1.0  0.85764  0.88710  0.27353  1.0000
  H   H5691     1.0  0.83777  0.88999  0.29417  1.0000
  S   S947      1.0  0.80355  0.78142  0.27173  1.0000
  H   H5692     1.0  0.89008  0.89011  0.29543  1.0000
  H   H5693     1.0  0.65705  0.86460  0.33940  1.0000
  C   C7109     1.0  0.55491  0.90041  0.43164  1.0000
  C   C7110     1.0  0.98860  0.77009  0.27807  1.0000
  C   C7111     1.0  0.78041  0.90548  0.28630  1.0000
  C   C7112     1.0  0.81635  0.78921  0.33640  1.0000
  H   H5694     1.0  0.77264  0.76166  0.26113  1.0000
  H   H5695     1.0  0.53545  0.96781  0.38429  1.0000
  H   H5696     1.0  0.68212  0.85174  0.24562  1.0000
  H   H5697     1.0  0.64573  0.90789  0.30854  1.0000
  S   S948      1.0  0.71481  0.86126  0.25387  1.0000
  C   C7113     1.0  0.89500  0.90260  0.32528  1.0000
  C   C7114     1.0  0.52298  0.90348  0.44063  1.0000
  C   C7115     1.0  0.55132  0.90897  0.41973  1.0000
  C   C7116     1.0  0.53364  0.91479  0.41823  1.0000
  C   C7117     1.0  0.98757  0.84120  0.27962  1.0000
  C   C7118     1.0  0.90267  0.76695  0.23904  1.0000
  H   H5698     1.0  0.95136  0.78277  0.31180  1.0000
  C   C7119     1.0  0.85498  0.80620  0.26522  1.0000
  H   H5699     1.0  0.97730  0.90584  0.26729  1.0000
  C   C7120     1.0  0.97267  0.74532  0.32948  1.0000
  H   H5700     1.0  0.61190  0.92522  0.46055  1.0000
  H   H5701     1.0  0.56220  0.91168  0.41175  1.0000
  H   H5702     1.0  0.52781  0.91947  0.45892  1.0000
  H   H5703     1.0  0.77003  0.96640  0.33639  1.0000
  C   C7121     1.0  0.98930  0.82501  0.28832  1.0000
  H   H5704     1.0  0.87435  0.86335  0.24873  1.0000
  C   C7122     1.0  0.60850  0.95354  0.45707  1.0000
  C   C7123     1.0  0.99029  0.86843  0.31620  1.0000
  C   C7124     1.0  0.64344  0.80130  0.31691  1.0000
  Fe  Fe473     1.0  0.71810  0.88101  0.26356  1.0000
  Fe  Fe474     1.0  0.93731  0.80332  0.26317  1.0000
  H   H5705     1.0  0.87116  0.89576  0.24137  1.0000
  C   C7125     1.0  0.71793  0.81033  0.25000  1.0000
  H   H5706     1.0  0.63387  0.97806  0.38128  1.0000
  H   H5707     1.0  0.67417  0.89059  0.25646  1.0000
  C   C7126     1.0  0.95798  0.76907  0.31461  1.0000
  C   C7127     1.0  0.86129  0.87204  0.25068  1.0000
  H   H5708     1.0  0.68266  0.87634  0.27699  1.0000
  C   C7128     1.0  0.86702  0.81693  0.25836  1.0000
  H   H5709     1.0  0.96377  0.83950  0.31213  1.0000
  C   C7129     1.0  0.96251  0.88969  0.26363  1.0000
  H   H5710     1.0  0.52930  0.86628  0.45010  1.0000
  C   C7130     1.0  0.76580  0.75666  0.25619  1.0000
  C   C7131     1.0  0.90132  0.91992  0.30400  1.0000
  C   C7132     1.0  0.99838  0.85297  0.27856  1.0000
  H   H5711     1.0  0.81320  0.76797  0.32980  1.0000
  C   C7133     1.0  0.96043  0.75731  0.30690  1.0000
  Fe  Fe475     1.0  0.86222  0.75193  0.24598  1.0000
  C   C7134     1.0  0.86814  0.77170  0.29966  1.0000
  C   C7135     1.0  0.67877  0.85177  0.23694  1.0000
  C   C7136     1.0  0.88148  0.77514  0.28890  1.0000
  H   H5712     1.0  0.86749  0.77257  0.32544  1.0000
  C   C7137     1.0  0.96253  0.89232  0.28453  1.0000
  C   C7138     1.0  0.79439  0.97122  0.32403  1.0000
  H   H5713     1.0  0.88631  0.90069  0.33456  1.0000
  C   C7139     1.0  0.52778  0.84874  0.46834  1.0000
  C   C7140     1.0  0.85317  0.77701  0.32857  1.0000
  C   C7141     1.0  0.76806  0.92864  0.23638  1.0000
  C   C7142     1.0  0.95765  0.74377  0.37955  1.0000
  C   C7143     1.0  0.80606  0.98278  0.31898  1.0000
  P   P238      1.0  0.84972  0.74937  0.31952  1.0000
  H   H5714     1.0  0.62009  0.82071  0.32290  1.0000
  H   H5715     1.0  0.60801  0.95565  0.44725  1.0000
  C   C7144     1.0  0.98694  0.75756  0.27225  1.0000
  H   H5716     1.0  0.82329  0.80935  0.34216  1.0000
  H   H5717     1.0  0.67005  0.82714  0.24436  1.0000
  C   C7145     1.0  0.74192  0.97567  0.37021  1.0000
  C   C7146     1.0  0.60609  0.96804  0.46239  1.0000
  C   C7147     1.0  0.67210  0.83769  0.23616  1.0000
  S   S949      1.0  0.71125  0.97917  0.32775  1.0000
  H   H5718     1.0  0.50597  0.91691  0.42720  1.0000
  H   H5719     1.0  0.69668  0.98167  0.35497  1.0000
  C   C7148     1.0  0.95472  0.88467  0.32482  1.0000
  C   C7149     1.0  0.93947  0.74893  0.37924  1.0000
  C   C7150     1.0  0.95905  0.87618  0.31469  1.0000
  H   H5720     1.0  0.91431  0.87852  0.32974  1.0000
  S   S950      1.0  0.54334  0.96647  0.45416  1.0000
  H   H5721     1.0  0.80207  0.79391  0.33947  1.0000
  H   H5722     1.0  0.59895  0.97613  0.34144  1.0000
  C   C7151     1.0  0.84673  0.79190  0.33393  1.0000
  C   C7152     1.0  0.78377  0.80922  0.24106  1.0000
  C   C7153     1.0  0.60790  0.94827  0.48273  1.0000
  H   H5723     1.0  0.80021  0.80686  0.28847  1.0000
  H   H5724     1.0  0.82486  0.79953  0.29976  1.0000
  C   C7154     1.0  0.77835  0.97594  0.33248  1.0000
  C   C7155     1.0  0.92212  0.89249  0.31046  1.0000
  H   H5725     1.0  0.62484  0.97386  0.40460  1.0000
  H   H5726     1.0  0.72373  0.93955  0.37709  1.0000
  C   C7156     1.0  0.80809  0.84927  0.24922  1.0000
  C   C7157     1.0  0.61525  0.98129  0.39881  1.0000
  H   H5727     1.0  0.75661  0.92156  0.25627  1.0000
  H   H5728     1.0  0.64652  0.89673  0.33110  1.0000
  H   H5729     1.0  0.94117  0.89130  0.32821  1.0000
  H   H5730     1.0  0.71995  0.94112  0.33018  1.0000
  C   C7158     1.0  0.54083  0.89779  0.44206  1.0000
  C   C7159     1.0  0.66954  0.81275  0.30457  1.0000
  C   C7160     1.0  0.66012  0.83003  0.30556  1.0000
  C   C7161     1.0  0.64218  0.83280  0.31211  1.0000
  P   P239      1.0  0.67038  0.84874  0.29788  1.0000
  C   C7162     1.0  0.66285  0.86411  0.30833  1.0000
  C   C7163     1.0  0.69447  0.84112  0.29509  1.0000
  C   C7164     1.0  0.70376  0.83479  0.28411  1.0000
  C   C7165     1.0  0.72238  0.82887  0.28183  1.0000
  C   C7166     1.0  0.73185  0.82912  0.29051  1.0000
  C   C7167     1.0  0.72273  0.83521  0.30150  1.0000
  C   C7168     1.0  0.70412  0.84118  0.30380  1.0000
  C   C7169     1.0  0.65654  0.88227  0.30382  1.0000
  C   C7170     1.0  0.65041  0.89385  0.31209  1.0000
  C   C7171     1.0  0.65077  0.88753  0.32486  1.0000
  C   C7172     1.0  0.65680  0.86947  0.32948  1.0000
  C   C7173     1.0  0.66263  0.85777  0.32128  1.0000
  C   C7174     1.0  0.66409  0.85895  0.28285  1.0000
  C   C7175     1.0  0.65111  0.85365  0.27926  1.0000
  C   C7176     1.0  0.64654  0.86166  0.26755  1.0000
  C   C7177     1.0  0.65476  0.87507  0.25941  1.0000
  C   C7178     1.0  0.66770  0.88032  0.26288  1.0000
  C   C7179     1.0  0.67248  0.87220  0.27449  1.0000
  C   C7180     1.0  0.51085  0.93689  0.47071  1.0000
  H   H5731     1.0  0.68329  0.81024  0.29943  1.0000
  H   H5732     1.0  0.63458  0.84607  0.31278  1.0000
  H   H5733     1.0  0.69666  0.83472  0.27719  1.0000
  H   H5734     1.0  0.72957  0.82453  0.27319  1.0000
  H   H5735     1.0  0.74630  0.82496  0.28857  1.0000
  H   H5736     1.0  0.73011  0.83592  0.30804  1.0000
  H   H5737     1.0  0.69755  0.84646  0.31212  1.0000
  H   H5738     1.0  0.65641  0.88773  0.29397  1.0000
  H   H5739     1.0  0.84775  0.85087  0.26022  1.0000
  H   H5740     1.0  0.99630  0.87709  0.33070  1.0000
  C   C7181     1.0  0.80292  0.84826  0.23861  1.0000
  C   C7182     1.0  0.52312  0.86489  0.46005  1.0000
  H   H5741     1.0  0.77414  0.96474  0.30721  1.0000
  S   S951      1.0  0.66380  0.98092  0.34616  1.0000
  C   C7183     1.0  0.79447  0.93835  0.24404  1.0000
  C   C7184     1.0  0.74803  0.76453  0.25543  1.0000
  H   H5742     1.0  0.80824  0.89410  0.28043  1.0000
  S   S952      1.0  0.79312  0.96341  0.27961  1.0000
  C   C7185     1.0  0.94569  0.82218  0.31716  1.0000
  S   S953      1.0  0.85134  0.75138  0.26657  1.0000
  S   S954      1.0  0.74703  0.87959  0.25399  1.0000
  C   C7186     1.0  0.94688  0.74783  0.35712  1.0000
  H   H5743     1.0  0.75174  0.91432  0.29111  1.0000
  C   C7187     1.0  0.82751  0.84193  0.28455  1.0000
  C   C7188     1.0  0.51975  0.84652  0.48119  1.0000
  S   S955      1.0  0.70722  0.90490  0.24972  1.0000
  P   P240      1.0  0.80974  0.86705  0.26686  1.0000
  C   C7189     1.0  0.80296  0.86522  0.25336  1.0000
  C   C7190     1.0  0.75948  0.89216  0.28208  1.0000
  C   C7191     1.0  0.72946  0.95075  0.37152  1.0000
  H   H5744     1.0  0.87781  0.83160  0.24020  1.0000
  H   H5745     1.0  0.83502  0.85169  0.28370  1.0000
  C   C7192     1.0  0.74826  0.74373  0.24320  1.0000
  C   C7193     1.0  0.63391  0.81847  0.31781  1.0000
  H   H5746     1.0  0.88387  0.77831  0.25400  1.0000
  C   C7194     1.0  0.89326  0.76115  0.28390  1.0000
  H   H5747     1.0  0.65145  0.88120  0.25026  1.0000
  C   C7195     1.0  0.96811  0.88492  0.33061  1.0000
  C   C7196     1.0  0.95099  0.88052  0.28995  1.0000
  C   C7197     1.0  0.77376  0.88033  0.27635  1.0000
  H   H5748     1.0  0.85893  0.78278  0.30319  1.0000
  H   H5749     1.0  0.74580  0.89172  0.28253  1.0000
  C   C7198     1.0  0.82938  0.87629  0.25991  1.0000
  C   C7199     1.0  0.84627  0.86505  0.25735  1.0000
  H   H5750     1.0  0.92490  0.80780  0.32105  1.0000
  S   S956      1.0  0.76165  0.84072  0.23446  1.0000
  H   H5751     1.0  0.67043  0.95404  0.39035  1.0000
  H   H5752     1.0  0.96693  0.89819  0.29039  1.0000
  C   C7200     1.0  0.84124  0.76812  0.32702  1.0000
  C   C7201     1.0  0.82771  0.89465  0.25543  1.0000
  H   H5753     1.0  0.80168  0.78443  0.24606  1.0000
  C   C7202     1.0  0.78058  0.93154  0.25311  1.0000
  H   H5754     1.0  0.81475  0.90366  0.25667  1.0000
  H   H5755     1.0  0.73287  0.95798  0.38759  1.0000
  C   C7203     1.0  0.61049  0.93378  0.47736  1.0000
  H   H5756     1.0  0.81593  0.83755  0.25419  1.0000
  C   C7204     1.0  0.79297  0.79586  0.24931  1.0000
  C   C7205     1.0  0.85955  0.89032  0.24651  1.0000
  H   H5757     1.0  0.77092  0.87077  0.27246  1.0000
  C   C7206     1.0  0.84278  0.90160  0.24892  1.0000
  H   H5758     1.0  0.72719  0.94720  0.35377  1.0000
  H   H5759     1.0  0.74109  0.77569  0.25977  1.0000
  H   H5760     1.0  0.69045  0.95369  0.36935  1.0000
  C   C7207     1.0  0.73930  0.75819  0.24891  1.0000
  H   H5761     1.0  0.66859  0.78514  0.30954  1.0000
  C   C7208     1.0  0.76745  0.92651  0.24929  1.0000
  H   H5762     1.0  0.74078  0.81800  0.23655  1.0000
  H   H5763     1.0  0.98122  0.78362  0.27589  1.0000
  C   C7209     1.0  0.91049  0.78229  0.25197  1.0000
  C   C7210     1.0  0.77212  0.82394  0.24524  1.0000
  C   C7211     1.0  0.74616  0.97110  0.31594  1.0000
  C   C7212     1.0  0.93657  0.85430  0.31179  1.0000
  H   H5764     1.0  0.60342  0.98125  0.45659  1.0000
  C   C7213     1.0  0.89767  0.77587  0.24897  1.0000
  C   C7214     1.0  0.73144  0.95499  0.35843  1.0000
  C   C7215     1.0  0.67356  0.96631  0.38430  1.0000
  H   H5765     1.0  0.72063  0.81453  0.25749  1.0000
  H   H5766     1.0  0.93631  0.86452  0.28607  1.0000
  C   C7216     1.0  0.68448  0.75782  0.24554  1.0000
  C   C7217     1.0  0.96516  0.74288  0.35732  1.0000
  S   S957      1.0  0.81153  0.94509  0.24774  1.0000
  C   C7218     1.0  0.73460  0.96116  0.37742  1.0000
  H   H5767     1.0  0.96473  0.89157  0.33837  1.0000
  H   H5768     1.0  0.88286  0.78861  0.28451  1.0000
  C   C7219     1.0  0.84540  0.80831  0.24614  1.0000
  H   H5769     1.0  0.97813  0.76168  0.26564  1.0000
  C   C7220     1.0  0.92808  0.82073  0.31875  1.0000
  C   C7221     1.0  0.62034  0.98372  0.38569  1.0000
  C   C7222     1.0  0.73866  0.96952  0.35125  1.0000
  H   H5770     1.0  0.90368  0.76372  0.27566  1.0000
  C   C7223     1.0  0.94531  0.87341  0.28208  1.0000
  H   H5771     1.0  0.90131  0.83475  0.31723  1.0000
  C   C7224     1.0  0.95098  0.87801  0.26898  1.0000
  C   C7225     1.0  0.91472  0.83599  0.31670  1.0000
  H   H5772     1.0  0.68705  0.79405  0.24362  1.0000
  C   C7226     1.0  0.91896  0.85270  0.31305  1.0000
  H   H5773     1.0  0.90856  0.86426  0.31089  1.0000
  S   S958      1.0  0.54744  0.98277  0.42351  1.0000
  Fe  Fe476     1.0  0.81529  0.97450  0.28138  1.0000
  H   H5774     1.0  0.96685  0.89327  0.25347  1.0000
  C   C7227     1.0  0.96832  0.89681  0.27141  1.0000
  C   C7228     1.0  0.82275  0.77440  0.33095  1.0000
  C   C7229     1.0  0.91717  0.90750  0.30119  1.0000
  H   H5775     1.0  0.79013  0.89300  0.24896  1.0000
  H   H5776     1.0  0.56269  0.94418  0.47501  1.0000
  C   C7230     1.0  0.84415  0.80197  0.25912  1.0000
  C   C7231     1.0  0.91679  0.74948  0.32998  1.0000
  H   H5777     1.0  0.85416  0.80094  0.27522  1.0000
  H   H5778     1.0  0.89736  0.93126  0.29672  1.0000
  C   C7232     1.0  0.99939  0.76516  0.28690  1.0000
  C   C7233     1.0  0.97696  0.86816  0.31042  1.0000
  P   P241      1.0  0.50470  0.90015  0.45413  1.0000
  C   C7234     1.0  0.78877  0.87940  0.23550  1.0000
  C   C7235     1.0  0.61070  0.93641  0.46455  1.0000
  H   H5779     1.0  0.99311  0.81197  0.26124  1.0000
  H   H5780     1.0  0.84141  0.91580  0.24558  1.0000
  P   P242      1.0  0.94218  0.87589  0.30678  1.0000
  C   C7236     1.0  0.96419  0.76314  0.32586  1.0000
  C   C7237     1.0  0.56920  0.91580  0.47731  1.0000
  H   H5781     1.0  0.87791  0.92714  0.31804  1.0000
  H   H5782     1.0  0.72569  0.76478  0.24827  1.0000
  H   H5783     1.0  0.79770  0.95852  0.32142  1.0000
  C   C7238     1.0  0.59317  0.98924  0.34333  1.0000
  H   H5784     1.0  0.59087  0.98023  0.36327  1.0000
  H   H5785     1.0  0.85608  0.79875  0.33492  1.0000
  C   C7239     1.0  0.51952  0.91203  0.42861  1.0000
  H   H5786     1.0  0.92002  0.75453  0.36778  1.0000
  C   C7240     1.0  0.92841  0.77904  0.24545  1.0000
  C   C7241     1.0  0.51066  0.87908  0.46463  1.0000
  S   S959      1.0  0.83568  0.76483  0.24077  1.0000
  H   H5787     1.0  0.90596  0.76267  0.34552  1.0000
  C   C7242     1.0  0.98588  0.87679  0.32631  1.0000
  C   C7243     1.0  0.91086  0.89011  0.32252  1.0000
  C   C7244     1.0  0.91885  0.75118  0.31700  1.0000
  C   C7245     1.0  0.52425  0.98735  0.39565  1.0000
  H   H5788     1.0  0.96185  0.74215  0.38824  1.0000
  H   H5789     1.0  0.94243  0.74913  0.34860  1.0000
  C   C7246     1.0  0.51421  0.92409  0.46364  1.0000
  Fe  Fe477     1.0  0.56361  0.97780  0.43809  1.0000
  S   S960      1.0  0.94527  0.78587  0.24916  1.0000
  H   H5790     1.0  0.81857  0.97914  0.31248  1.0000
  H   H5791     1.0  0.61139  0.92056  0.48329  1.0000
  C   C7247     1.0  0.50213  0.87647  0.47743  1.0000
  P   P243      1.0  0.60013  0.98438  0.48237  1.0000
  C   C7248     1.0  0.86694  0.75415  0.30572  1.0000
  H   H5792     1.0  0.98467  0.76933  0.35099  1.0000
  H   H5793     1.0  0.51313  0.98129  0.40102  1.0000
  H   H5794     1.0  0.55905  0.85923  0.48367  1.0000
  C   C7249     1.0  0.55140  0.98738  0.37945  1.0000
  C   C7250     1.0  0.56675  0.93162  0.48118  1.0000
  H   H5795     1.0  0.59359  0.98585  0.41469  1.0000
  C   C7251     1.0  0.81742  0.74466  0.29840  1.0000
  H   H5796     1.0  0.57728  0.88744  0.48216  1.0000
  C   C7252     1.0  0.53673  0.97988  0.38613  1.0000
  C   C7253     1.0  0.93329  0.76998  0.23567  1.0000
  H   H5797     1.0  0.84007  0.75605  0.29484  1.0000
  H   H5798     1.0  0.74572  0.98354  0.37501  1.0000
  C   C7254     1.0  0.71501  0.74873  0.23423  1.0000
  H   H5799     1.0  0.92877  0.74145  0.28360  1.0000
  C   C7255     1.0  0.66562  0.98238  0.38806  1.0000
  C   C7256     1.0  0.74418  0.97990  0.35700  1.0000
  H   H5800     1.0  0.63539  0.87912  0.23467  1.0000
  H   H5801     1.0  0.78573  0.98729  0.35839  1.0000
  C   C7257     1.0  0.99705  0.76473  0.34473  1.0000
  C   C7258     1.0  0.77486  0.74248  0.25040  1.0000
  H   H5802     1.0  0.99695  0.86552  0.27187  1.0000
  H   H5803     1.0  0.74550  0.98515  0.31402  1.0000
  H   H5804     1.0  0.63118  0.98812  0.46129  1.0000
  C   C7259     1.0  0.59762  0.98791  0.40450  1.0000
  Fe  Fe478     1.0  0.64735  0.98857  0.33170  1.0000
  H   H5805     1.0  0.62454  0.85114  0.24163  1.0000
  C   C7260     1.0  0.67993  0.76845  0.23431  1.0000
  H   H5806     1.0  0.99870  0.78960  0.24845  1.0000
  Fe  Fe479     1.0  0.70615  0.88497  0.23917  1.0000
  H   H5807     1.0  0.66647  0.77637  0.23441  1.0000
  C   C7261     1.0  0.50020  0.91723  0.46290  1.0000
  C   C7262     1.0  0.99943  0.74974  0.33986  1.0000
  C   C7263     1.0  0.97046  0.74063  0.36865  1.0000
  H   H5808     1.0  0.66113  0.93662  0.69392  1.0000
  H   H5809     1.0  0.63162  0.96037  0.49131  1.0000
  S   S961      1.0  0.56693  0.92070  0.54887  1.0000
  C   C7264     1.0  0.52501  0.88888  0.50558  1.0000
  H   H5810     1.0  0.66010  0.84423  0.61075  1.0000
  H   H5811     1.0  0.73041  0.90413  0.64463  1.0000
  C   C7265     1.0  0.82158  0.81809  0.68659  1.0000
  H   H5812     1.0  0.77203  0.98389  0.58018  1.0000
  C   C7266     1.0  0.60661  0.91342  0.63155  1.0000
  C   C7267     1.0  0.65755  0.86051  0.62372  1.0000
  H   H5813     1.0  0.69233  0.86924  0.64028  1.0000
  H   H5814     1.0  0.97736  0.80778  0.55955  1.0000
  S   S962      1.0  0.92415  0.75998  0.59136  1.0000
  C   C7268     1.0  0.74737  0.92110  0.63187  1.0000
  H   H5815     1.0  0.63899  0.88837  0.68501  1.0000
  S   S963      1.0  0.67093  0.86166  0.71935  1.0000
  C   C7269     1.0  0.64514  0.88560  0.66571  1.0000
  C   C7270     1.0  0.62047  0.89872  0.63395  1.0000
  Fe  Fe480     1.0  0.82406  0.75732  0.66911  1.0000
  S   S964      1.0  0.83500  0.76606  0.68208  1.0000
  S   S965      1.0  0.80380  0.77717  0.65899  1.0000
  H   H5816     1.0  0.55452  0.84892  0.50696  1.0000
  C   C7271     1.0  0.54776  0.98310  0.49815  1.0000
  S   S966      1.0  0.88722  0.75965  0.66873  1.0000
  C   C7272     1.0  0.99879  0.84277  0.67843  1.0000
  Fe  Fe481     1.0  0.82672  0.95537  0.60845  1.0000
  S   S967      1.0  0.84967  0.95182  0.59184  1.0000
  Fe  Fe482     1.0  0.80420  0.93827  0.63214  1.0000
  S   S968      1.0  0.80319  0.91153  0.64478  1.0000
  S   S969      1.0  0.80309  0.94338  0.61171  1.0000
  Fe  Fe483     1.0  0.94032  0.85874  0.63174  1.0000
  S   S970      1.0  0.94836  0.85208  0.61266  1.0000
  Fe  Fe484     1.0  0.90484  0.84750  0.63778  1.0000
  S   S971      1.0  0.90975  0.84031  0.61915  1.0000
  S   S972      1.0  0.87995  0.84238  0.65202  1.0000
  Fe  Fe485     1.0  0.93747  0.82762  0.62231  1.0000
  S   S973      1.0  0.95197  0.79944  0.62127  1.0000
  Fe  Fe486     1.0  0.91975  0.86550  0.61142  1.0000
  S   S974      1.0  0.91378  0.88425  0.59342  1.0000
  S   S975      1.0  0.93188  0.83326  0.64157  1.0000
  S   S976      1.0  0.91249  0.87382  0.62991  1.0000
  Fe  Fe487     1.0  0.69634  0.86443  0.70488  1.0000
  S   S977      1.0  0.70390  0.84723  0.69081  1.0000
  Fe  Fe488     1.0  0.72967  0.87996  0.69366  1.0000
  S   S978      1.0  0.73997  0.86367  0.67891  1.0000
  S   S979      1.0  0.74570  0.89805  0.69521  1.0000
  Fe  Fe489     1.0  0.71140  0.87129  0.67686  1.0000
  S   S980      1.0  0.70539  0.88131  0.65752  1.0000
  Fe  Fe490     1.0  0.73140  0.84157  0.69445  1.0000
  S   S981      1.0  0.74735  0.81424  0.70042  1.0000
  S   S982      1.0  0.70164  0.88906  0.69061  1.0000
  S   S983      1.0  0.72337  0.85718  0.70946  1.0000
  C   C7273     1.0  0.52325  0.94956  0.49685  1.0000
  Fe  Fe491     1.0  0.81024  0.97448  0.63012  1.0000
  H   H5817     1.0  0.74212  0.77057  0.72005  1.0000
  C   C7274     1.0  0.57797  0.89915  0.49692  1.0000
  C   C7275     1.0  0.73415  0.91674  0.64250  1.0000
  C   C7276     1.0  0.98476  0.79600  0.56482  1.0000
  P   P244      1.0  0.72051  0.96017  0.65824  1.0000
  C   C7277     1.0  0.78583  0.91098  0.65826  1.0000
  C   C7278     1.0  0.78832  0.91321  0.66948  1.0000
  C   C7279     1.0  0.77554  0.90997  0.68075  1.0000
  C   C7280     1.0  0.76041  0.90424  0.68082  1.0000
  C   C7281     1.0  0.75763  0.90265  0.66950  1.0000
  C   C7282     1.0  0.77041  0.90589  0.65826  1.0000
  H   H5818     1.0  0.80040  0.91682  0.66955  1.0000
  H   H5819     1.0  0.77771  0.91127  0.68948  1.0000
  H   H5820     1.0  0.74574  0.89877  0.66939  1.0000
  H   H5821     1.0  0.76862  0.90400  0.64962  1.0000
  C   C7283     1.0  0.86656  0.93225  0.59284  1.0000
  C   C7284     1.0  0.86799  0.91996  0.60425  1.0000
  C   C7285     1.0  0.88240  0.90504  0.60469  1.0000
  C   C7286     1.0  0.89513  0.90226  0.59362  1.0000
  C   C7287     1.0  0.89331  0.91436  0.58222  1.0000
  C   C7288     1.0  0.87922  0.92930  0.58185  1.0000
  H   H5822     1.0  0.85806  0.92206  0.61270  1.0000
  H   H5823     1.0  0.88377  0.89580  0.61354  1.0000
  H   H5824     1.0  0.90304  0.91229  0.57365  1.0000
  H   H5825     1.0  0.87819  0.93868  0.57300  1.0000
  C   C7289     1.0  0.78767  0.78767  0.67023  1.0000
  C   C7290     1.0  0.78633  0.77976  0.68304  1.0000
  C   C7291     1.0  0.77371  0.78804  0.69216  1.0000
  C   C7292     1.0  0.76260  0.80443  0.68856  1.0000
  C   C7293     1.0  0.76386  0.81249  0.67575  1.0000
  C   C7294     1.0  0.77636  0.80403  0.66656  1.0000
  H   H5826     1.0  0.79501  0.76720  0.68597  1.0000
  H   H5827     1.0  0.77278  0.78185  0.70206  1.0000
  H   H5828     1.0  0.75519  0.82516  0.67293  1.0000
  H   H5829     1.0  0.77741  0.81021  0.65665  1.0000
  C   C7295     1.0  0.88445  0.78269  0.66354  1.0000
  C   C7296     1.0  0.89860  0.78966  0.65519  1.0000
  C   C7297     1.0  0.89684  0.80799  0.65108  1.0000
  C   C7298     1.0  0.88120  0.81949  0.65571  1.0000
  C   C7299     1.0  0.86693  0.81256  0.66392  1.0000
  C   C7300     1.0  0.86854  0.79417  0.66786  1.0000
  H   H5830     1.0  0.91097  0.78091  0.65187  1.0000
  H   H5831     1.0  0.90773  0.81311  0.64442  1.0000
  H   H5832     1.0  0.85471  0.82147  0.66721  1.0000
  H   H5833     1.0  0.85768  0.78900  0.67450  1.0000
  C   C7301     1.0  0.66448  0.93392  0.65334  1.0000
  C   C7302     1.0  0.67837  0.93001  0.64316  1.0000
  C   C7303     1.0  0.69098  0.91395  0.64454  1.0000
  C   C7304     1.0  0.69002  0.90184  0.65616  1.0000
  C   C7305     1.0  0.67656  0.90608  0.66648  1.0000
  C   C7306     1.0  0.66369  0.92201  0.66505  1.0000
  H   H5834     1.0  0.67942  0.93930  0.63417  1.0000
  H   H5835     1.0  0.70159  0.91107  0.63658  1.0000
  H   H5836     1.0  0.67563  0.89679  0.67546  1.0000
  H   H5837     1.0  0.65294  0.92493  0.67296  1.0000
  H   H5838     1.0  0.59584  0.91234  0.62784  1.0000
  H   H5839     1.0  0.60648  0.94597  0.49285  1.0000
  H   H5840     1.0  0.63471  0.85366  0.65438  1.0000
  H   H5841     1.0  0.62010  0.88634  0.63212  1.0000
  H   H5842     1.0  0.62124  0.94397  0.63952  1.0000
  C   C7307     1.0  0.93261  0.77072  0.59938  1.0000
  C   C7308     1.0  0.92588  0.78889  0.59881  1.0000
  C   C7309     1.0  0.93174  0.79780  0.60548  1.0000
  C   C7310     1.0  0.94450  0.78860  0.61271  1.0000
  C   C7311     1.0  0.95156  0.77049  0.61307  1.0000
  C   C7312     1.0  0.94570  0.76157  0.60636  1.0000
  H   H5843     1.0  0.91590  0.79607  0.59329  1.0000
  H   H5844     1.0  0.92642  0.81179  0.60498  1.0000
  H   H5845     1.0  0.96161  0.76331  0.61851  1.0000
  C   C7313     1.0  0.73607  0.96058  0.66717  1.0000
  C   C7314     1.0  0.63478  0.90030  0.63831  1.0000
  C   C7315     1.0  0.64051  0.85159  0.64488  1.0000
  C   C7316     1.0  0.97053  0.79013  0.65398  1.0000
  H   H5846     1.0  0.65911  0.90898  0.61700  1.0000
  C   C7317     1.0  0.65057  0.86322  0.63607  1.0000
  H   H5847     1.0  0.71895  0.87851  0.62596  1.0000
  H   H5848     1.0  0.62994  0.82837  0.64827  1.0000
  C   C7318     1.0  0.84862  0.80138  0.64151  1.0000
  C   C7319     1.0  0.63497  0.91676  0.64019  1.0000
  H   H5849     1.0  0.91189  0.79268  0.67602  1.0000
  C   C7320     1.0  0.76637  0.95530  0.67008  1.0000
  C   C7321     1.0  0.84937  0.80665  0.72300  1.0000
  H   H5850     1.0  0.69709  0.86289  0.73235  1.0000
  C   C7322     1.0  0.75101  0.96121  0.59997  1.0000
  H   H5851     1.0  0.98075  0.74607  0.63695  1.0000
  C   C7323     1.0  0.60683  0.92969  0.63361  1.0000
  C   C7324     1.0  0.63772  0.83729  0.64143  1.0000
  H   H5852     1.0  0.58248  0.88653  0.50290  1.0000
  H   H5853     1.0  0.98576  0.77472  0.62273  1.0000
  C   C7325     1.0  0.62397  0.96779  0.49845  1.0000
  H   H5854     1.0  0.64260  0.82357  0.62647  1.0000
  S   S984      1.0  0.57957  0.91279  0.51584  1.0000
  C   C7326     1.0  0.66886  0.85421  0.67363  1.0000
  H   H5855     1.0  0.75394  0.91184  0.62577  1.0000
  H   H5856     1.0  0.76282  0.94053  0.62120  1.0000
  C   C7327     1.0  0.54684  0.86156  0.50289  1.0000
  H   H5857     1.0  0.92958  0.94232  0.66484  1.0000
  S   S985      1.0  0.70335  0.95563  0.59628  1.0000
  C   C7328     1.0  0.98709  0.75429  0.65955  1.0000
  H   H5858     1.0  0.53512  0.95398  0.49097  1.0000
  H   H5859     1.0  0.86156  0.94033  0.65252  1.0000
  C   C7329     1.0  0.69300  0.97769  0.56251  1.0000
  C   C7330     1.0  0.51421  0.89648  0.53100  1.0000
  C   C7331     1.0  0.52780  0.89458  0.49241  1.0000
  C   C7332     1.0  0.53468  0.87226  0.51077  1.0000
  C   C7333     1.0  0.74848  0.76645  0.72801  1.0000
  C   C7334     1.0  0.76001  0.96341  0.68040  1.0000
  C   C7335     1.0  0.75400  0.77889  0.73179  1.0000
  C   C7336     1.0  0.87466  0.82279  0.69578  1.0000
  C   C7337     1.0  0.52450  0.90589  0.53388  1.0000
  C   C7338     1.0  0.52860  0.90132  0.54579  1.0000
  C   C7339     1.0  0.52253  0.88737  0.55493  1.0000
  P   P245      1.0  0.69368  0.77834  0.72363  1.0000
  C   C7340     1.0  0.51267  0.87764  0.55205  1.0000
  H   H5860     1.0  0.52082  0.90744  0.48819  1.0000
  H   H5861     1.0  0.79885  0.76721  0.73352  1.0000
  H   H5862     1.0  0.97093  0.84304  0.66146  1.0000
  C   C7341     1.0  0.98193  0.87418  0.61910  1.0000
  C   C7342     1.0  0.50682  0.86035  0.48571  1.0000
  H   H5863     1.0  0.82798  0.77732  0.71411  1.0000
  C   C7343     1.0  0.95027  0.83055  0.67412  1.0000
  C   C7344     1.0  0.91384  0.92195  0.64857  1.0000
  C   C7345     1.0  0.91555  0.93533  0.65371  1.0000
  C   C7346     1.0  0.78155  0.81219  0.72548  1.0000
  H   H5864     1.0  0.53306  0.86755  0.52087  1.0000
  H   H5865     1.0  0.85059  0.87908  0.65380  1.0000
  C   C7347     1.0  0.96298  0.77887  0.66472  1.0000
  H   H5866     1.0  0.74165  0.87171  0.64732  1.0000
  S   S986      1.0  0.54197  0.95123  0.53060  1.0000
  H   H5867     1.0  0.52940  0.91677  0.52699  1.0000
  H   H5868     1.0  0.53624  0.90883  0.54803  1.0000
  H   H5869     1.0  0.52549  0.88420  0.56422  1.0000
  H   H5870     1.0  0.71558  0.97398  0.68057  1.0000
  C   C7348     1.0  0.89102  0.96348  0.63104  1.0000
  C   C7349     1.0  0.89587  0.76980  0.63036  1.0000
  S   S987      1.0  0.65316  0.98336  0.59471  1.0000
  C   C7350     1.0  0.71509  0.97884  0.60457  1.0000
  C   C7351     1.0  0.56626  0.98067  0.49646  1.0000
  C   C7352     1.0  0.52383  0.93150  0.50182  1.0000
  Fe  Fe492     1.0  0.67433  0.96597  0.60522  1.0000
  H   H5871     1.0  0.82009  0.82918  0.67868  1.0000
  H   H5872     1.0  0.66034  0.86078  0.69198  1.0000
  C   C7353     1.0  0.75229  0.93730  0.62924  1.0000
  H   H5873     1.0  0.79761  0.83178  0.63067  1.0000
  H   H5874     1.0  0.86392  0.83154  0.70083  1.0000
  H   H5875     1.0  0.66506  0.86949  0.61668  1.0000
  H   H5876     1.0  0.67830  0.84225  0.67667  1.0000
  H   H5877     1.0  0.67500  0.85104  0.65457  1.0000
  C   C7354     1.0  0.78547  0.84048  0.63436  1.0000
  C   C7355     1.0  0.51118  0.98565  0.56513  1.0000
  H   H5878     1.0  0.95713  0.79032  0.69409  1.0000
  C   C7356     1.0  0.64484  0.83460  0.62916  1.0000
  C   C7357     1.0  0.82209  0.81844  0.65285  1.0000
  H   H5879     1.0  0.76591  0.85503  0.71159  1.0000
  C   C7358     1.0  0.74372  0.94934  0.63703  1.0000
  H   H5880     1.0  0.75170  0.79254  0.72666  1.0000
  H   H5881     1.0  0.63585  0.89781  0.66303  1.0000
  H   H5882     1.0  0.77033  0.87386  0.65036  1.0000
  H   H5883     1.0  0.96394  0.80395  0.65166  1.0000
  S   S988      1.0  0.82912  0.94833  0.62865  1.0000
  C   C7359     1.0  0.65560  0.87541  0.65686  1.0000
  H   H5884     1.0  0.94697  0.90452  0.60486  1.0000
  C   C7360     1.0  0.98741  0.77487  0.58446  1.0000
  H   H5885     1.0  0.82821  0.74822  0.63686  1.0000
  C   C7361     1.0  0.83139  0.80885  0.72949  1.0000
  C   C7362     1.0  0.60627  0.94459  0.56955  1.0000
  C   C7363     1.0  0.97832  0.87064  0.63229  1.0000
  H   H5886     1.0  0.77476  0.84707  0.68848  1.0000
  H   H5887     1.0  0.95051  0.78401  0.67071  1.0000
  C   C7364     1.0  0.80949  0.80695  0.69078  1.0000
  C   C7365     1.0  0.90038  0.93539  0.61259  1.0000
  H   H5888     1.0  0.86306  0.76535  0.69849  1.0000
  H   H5889     1.0  0.80260  0.78355  0.70401  1.0000
  H   H5890     1.0  0.94943  0.91250  0.66877  1.0000
  H   H5891     1.0  0.82181  0.80438  0.72661  1.0000
  C   C7366     1.0  0.73785  0.95468  0.59751  1.0000
  H   H5892     1.0  0.70140  0.98579  0.60635  1.0000
  C   C7367     1.0  0.68829  0.96130  0.56763  1.0000
  C   C7368     1.0  0.87977  0.74865  0.62973  1.0000
  C   C7369     1.0  0.50837  0.92578  0.50923  1.0000
  H   H5893     1.0  0.72566  0.78707  0.70489  1.0000
  C   C7370     1.0  0.57611  0.98943  0.48534  1.0000
  S   S989      1.0  0.80997  0.98261  0.60957  1.0000
  C   C7371     1.0  0.90094  0.81919  0.67894  1.0000
  H   H5894     1.0  0.64445  0.97337  0.56607  1.0000
  C   C7372     1.0  0.82630  0.78887  0.70652  1.0000
  C   C7373     1.0  0.67002  0.78223  0.73056  1.0000
  C   C7374     1.0  0.99429  0.76536  0.64842  1.0000
  S   S990      1.0  0.58379  0.95248  0.52829  1.0000
  S   S991      1.0  0.95734  0.86681  0.64131  1.0000
  C   C7375     1.0  0.90859  0.93436  0.60009  1.0000
  H   H5895     1.0  0.66727  0.94704  0.57260  1.0000
  C   C7376     1.0  0.80571  0.88398  0.62420  1.0000
  H   H5896     1.0  0.89452  0.89456  0.65954  1.0000
  C   C7377     1.0  0.92827  0.93189  0.66101  1.0000
  C   C7378     1.0  0.90916  0.92574  0.62245  1.0000
  S   S992      1.0  0.66797  0.98229  0.61974  1.0000
  C   C7379     1.0  0.78095  0.82828  0.71663  1.0000
  H   H5897     1.0  0.84313  0.97052  0.65199  1.0000
  H   H5898     1.0  0.56767  0.94324  0.49618  1.0000
  C   C7380     1.0  0.71725  0.74743  0.71731  1.0000
  H   H5899     1.0  0.79013  0.86659  0.69340  1.0000
  H   H5900     1.0  0.97176  0.87464  0.61427  1.0000
  C   C7381     1.0  0.75385  0.86304  0.64363  1.0000
  H   H5901     1.0  0.59631  0.94118  0.63147  1.0000
  Fe  Fe493     1.0  0.55671  0.96992  0.53288  1.0000
  C   C7382     1.0  0.67085  0.95980  0.56873  1.0000
  H   H5902     1.0  0.79847  0.80953  0.68618  1.0000
  H   H5903     1.0  0.52060  0.98717  0.54512  1.0000
  C   C7383     1.0  0.84907  0.81562  0.63114  1.0000
  C   C7384     1.0  0.70862  0.80373  0.72734  1.0000
  C   C7385     1.0  0.64672  0.88020  0.67833  1.0000
  H   H5904     1.0  0.64611  0.91840  0.64321  1.0000
  C   C7386     1.0  0.72586  0.92853  0.65052  1.0000
  H   H5905     1.0  0.88652  0.84423  0.68351  1.0000
  C   C7387     1.0  0.62092  0.93131  0.63804  1.0000
  Fe  Fe494     1.0  0.56891  0.93272  0.52818  1.0000
  C   C7388     1.0  0.88888  0.79371  0.69142  1.0000
  C   C7389     1.0  0.66716  0.85943  0.66104  1.0000
  Fe  Fe495     1.0  0.58003  0.94195  0.54922  1.0000
  H   H5906     1.0  0.91025  0.82496  0.67092  1.0000
  C   C7390     1.0  0.81177  0.79243  0.70083  1.0000
  C   C7391     1.0  0.99156  0.87033  0.63844  1.0000
  H   H5907     1.0  0.53629  0.92200  0.49991  1.0000
  C   C7392     1.0  0.59198  0.95550  0.58875  1.0000
  S   S993      1.0  0.55373  0.96068  0.55383  1.0000
  C   C7393     1.0  0.67231  0.94143  0.68724  1.0000
  H   H5908     1.0  0.85876  0.78924  0.64129  1.0000
  H   H5909     1.0  0.50239  0.94885  0.54073  1.0000
  H   H5910     1.0  0.66967  0.79372  0.70565  1.0000
  H   H5911     1.0  0.96525  0.79712  0.58235  1.0000
  H   H5912     1.0  0.99173  0.79239  0.63759  1.0000
  C   C7394     1.0  0.92496  0.90505  0.65106  1.0000
  H   H5913     1.0  0.69815  0.94978  0.57084  1.0000
  H   H5914     1.0  0.74167  0.94281  0.59380  1.0000
  H   H5915     1.0  0.72286  0.75567  0.70862  1.0000
  H   H5916     1.0  0.73056  0.80145  0.68238  1.0000
  H   H5917     1.0  0.78741  0.97183  0.56110  1.0000
  C   C7395     1.0  0.70143  0.95317  0.66955  1.0000
  C   C7396     1.0  0.65933  0.77203  0.72902  1.0000
  H   H5918     1.0  0.89666  0.74412  0.64284  1.0000
  C   C7397     1.0  0.72974  0.96866  0.67760  1.0000
  C   C7398     1.0  0.62042  0.97412  0.51891  1.0000
  C   C7399     1.0  0.62996  0.96458  0.50961  1.0000
  C   C7400     1.0  0.88451  0.89696  0.65414  1.0000
  C   C7401     1.0  0.87293  0.88532  0.65764  1.0000
  H   H5919     1.0  0.93339  0.90688  0.62667  1.0000
  S   S994      1.0  0.64749  0.95310  0.65126  1.0000
  H   H5920     1.0  0.62472  0.97129  0.52774  1.0000
  C   C7402     1.0  0.92534  0.92323  0.59731  1.0000
  P   P246      1.0  0.85703  0.79571  0.70989  1.0000
  S   S995      1.0  0.51526  0.93472  0.56459  1.0000
  P   P247      1.0  0.65362  0.88194  0.64046  1.0000
  C   C7403     1.0  0.93414  0.91347  0.60700  1.0000
  C   C7404     1.0  0.86157  0.81198  0.72735  1.0000
  H   H5921     1.0  0.76931  0.96448  0.68545  1.0000
  C   C7405     1.0  0.68398  0.96005  0.66749  1.0000
  H   H5922     1.0  0.76491  0.95443  0.59806  1.0000
  H   H5923     1.0  0.98821  0.83200  0.62188  1.0000
  H   H5924     1.0  0.90719  0.94847  0.65208  1.0000
  C   C7406     1.0  0.71469  0.98201  0.64847  1.0000
  C   C7407     1.0  0.86546  0.75228  0.59774  1.0000
  H   H5925     1.0  0.79251  0.80115  0.72376  1.0000
  H   H5926     1.0  0.64180  0.95445  0.51118  1.0000
  H   H5927     1.0  0.50684  0.97586  0.49543  1.0000
  C   C7408     1.0  0.92618  0.91478  0.61949  1.0000
  C   C7409     1.0  0.88747  0.83006  0.68601  1.0000
  H   H5928     1.0  0.74751  0.96199  0.63470  1.0000
  H   H5929     1.0  0.50119  0.87426  0.53797  1.0000
  H   H5930     1.0  0.94646  0.88870  0.65992  1.0000
  C   C7410     1.0  0.89132  0.75328  0.63503  1.0000
  C   C7411     1.0  0.65472  0.84622  0.62030  1.0000
  H   H5931     1.0  0.68602  0.91846  0.60298  1.0000
  C   C7412     1.0  0.85659  0.96852  0.64625  1.0000
  S   S996      1.0  0.62588  0.98253  0.62259  1.0000
  C   C7413     1.0  0.77672  0.98359  0.56051  1.0000
  P   P248      1.0  0.85618  0.75548  0.61371  1.0000
  C   C7414     1.0  0.50867  0.88205  0.54009  1.0000
  C   C7415     1.0  0.87224  0.76072  0.61997  1.0000
  C   C7416     1.0  0.87658  0.77745  0.61553  1.0000
  C   C7417     1.0  0.88852  0.78186  0.62061  1.0000
  Fe  Fe496     1.0  0.86140  0.75066  0.67372  1.0000
  H   H5932     1.0  0.93963  0.84165  0.67150  1.0000
  C   C7418     1.0  0.86328  0.98309  0.63849  1.0000
  C   C7419     1.0  0.70284  0.75472  0.72612  1.0000
  H   H5933     1.0  0.69983  0.97386  0.63837  1.0000
  C   C7420     1.0  0.98628  0.78347  0.64595  1.0000
  C   C7421     1.0  0.69062  0.87979  0.63213  1.0000
  H   H5934     1.0  0.98879  0.86776  0.64863  1.0000
  C   C7422     1.0  0.83720  0.77395  0.61401  1.0000
  C   C7423     1.0  0.82905  0.78125  0.60360  1.0000
  C   C7424     1.0  0.81447  0.79569  0.60398  1.0000
  C   C7425     1.0  0.80790  0.80288  0.61474  1.0000
  C   C7426     1.0  0.81598  0.79569  0.62512  1.0000
  C   C7427     1.0  0.83065  0.78141  0.62471  1.0000
  C   C7428     1.0  0.85731  0.90289  0.64120  1.0000
  C   C7429     1.0  0.65873  0.86463  0.68227  1.0000
  H   H5935     1.0  0.88700  0.76582  0.59406  1.0000
  H   H5936     1.0  0.87085  0.78703  0.60805  1.0000
  H   H5937     1.0  0.89212  0.79464  0.61703  1.0000
  Fe  Fe497     1.0  0.64904  0.96472  0.63057  1.0000
  C   C7430     1.0  0.85939  0.88824  0.65115  1.0000
  C   C7431     1.0  0.71976  0.96346  0.59987  1.0000
  H   H5938     1.0  0.57285  0.97188  0.50379  1.0000
  C   C7432     1.0  0.97792  0.79005  0.57765  1.0000
  C   C7433     1.0  0.88049  0.98059  0.63090  1.0000
  H   H5939     1.0  0.71597  0.90338  0.60734  1.0000
  H   H5940     1.0  0.83392  0.77592  0.59517  1.0000
  H   H5941     1.0  0.80824  0.80129  0.59592  1.0000
  H   H5942     1.0  0.79655  0.81397  0.61503  1.0000
  H   H5943     1.0  0.81086  0.80097  0.63359  1.0000
  H   H5944     1.0  0.83672  0.77605  0.63287  1.0000
  C   C7434     1.0  0.57507  0.91478  0.50104  1.0000
  S   S997      1.0  0.81851  0.74264  0.71537  1.0000
  C   C7435     1.0  0.74616  0.97674  0.60458  1.0000
  H   H5945     1.0  0.89992  0.76035  0.57281  1.0000
  H   H5946     1.0  0.90158  0.94163  0.59260  1.0000
  C   C7436     1.0  0.76662  0.84260  0.71851  1.0000
  C   C7437     1.0  0.97143  0.76102  0.66764  1.0000
  H   H5947     1.0  0.54017  0.97664  0.50686  1.0000
  H   H5948     1.0  0.79145  0.82959  0.70821  1.0000
  C   C7438     1.0  0.88052  0.75880  0.59038  1.0000
  C   C7439     1.0  0.72823  0.98566  0.60661  1.0000
  C   C7440     1.0  0.86748  0.76532  0.72777  1.0000
  H   H5949     1.0  0.87559  0.80992  0.72272  1.0000
  H   H5950     1.0  0.51270  0.97138  0.56741  1.0000
  C   C7441     1.0  0.93771  0.90169  0.65832  1.0000
  C   C7442     1.0  0.87507  0.80457  0.69845  1.0000
  C   C7443     1.0  0.54939  0.86733  0.48979  1.0000
  C   C7444     1.0  0.70415  0.94019  0.68050  1.0000
  C   C7445     1.0  0.65794  0.97478  0.56508  1.0000
  C   C7446     1.0  0.69737  0.78888  0.70701  1.0000
  C   C7447     1.0  0.71451  0.79124  0.70025  1.0000
  C   C7448     1.0  0.71734  0.79945  0.68744  1.0000
  C   C7449     1.0  0.70312  0.80548  0.68126  1.0000
  C   C7450     1.0  0.68600  0.80325  0.68789  1.0000
  C   C7451     1.0  0.68310  0.79503  0.70071  1.0000
  H   H5951     1.0  0.93492  0.76084  0.64059  1.0000
  H   H5952     1.0  0.68137  0.96963  0.65903  1.0000
  C   C7452     1.0  0.88300  0.91132  0.64376  1.0000
  H   H5953     1.0  0.94149  0.74834  0.66189  1.0000
  C   C7453     1.0  0.93941  0.91511  0.66327  1.0000
  H   H5954     1.0  0.90503  0.77331  0.63429  1.0000
  S   S998      1.0  0.76205  0.98646  0.60689  1.0000
  C   C7454     1.0  0.88785  0.75582  0.57819  1.0000
  C   C7455     1.0  0.97795  0.80212  0.68065  1.0000
  H   H5955     1.0  0.50806  0.86676  0.55913  1.0000
  H   H5956     1.0  0.84483  0.82381  0.68903  1.0000
  C   C7456     1.0  0.68962  0.93453  0.68936  1.0000
  H   H5957     1.0  0.88705  0.94354  0.61449  1.0000
  H   H5958     1.0  0.98836  0.79121  0.68369  1.0000
  H   H5959     1.0  0.70717  0.81117  0.71796  1.0000
  H   H5960     1.0  0.98218  0.77029  0.59440  1.0000
  C   C7457     1.0  0.50735  0.96197  0.49944  1.0000
  H   H5961     1.0  0.70535  0.81208  0.67139  1.0000
  H   H5962     1.0  0.67490  0.80810  0.68315  1.0000
  H   H5963     1.0  0.98606  0.79638  0.60254  1.0000
  H   H5964     1.0  0.66522  0.76155  0.72386  1.0000
  C   C7458     1.0  0.60808  0.98024  0.49668  1.0000
  H   H5965     1.0  0.84646  0.90544  0.63640  1.0000
  H   H5966     1.0  0.98149  0.82881  0.64470  1.0000
  C   C7459     1.0  0.70589  0.88492  0.62390  1.0000
  C   C7460     1.0  0.70422  0.89893  0.61345  1.0000
  C   C7461     1.0  0.68731  0.90748  0.61104  1.0000
  C   C7462     1.0  0.67204  0.90224  0.61917  1.0000
  C   C7463     1.0  0.67350  0.88870  0.63004  1.0000
  C   C7464     1.0  0.99907  0.82762  0.62686  1.0000
  H   H5967     1.0  0.85958  0.81459  0.62277  1.0000
  C   C7465     1.0  0.83583  0.81484  0.69245  1.0000
  H   H5968     1.0  0.93124  0.92172  0.58769  1.0000
  H   H5969     1.0  0.88937  0.77976  0.69290  1.0000
  S   S999      1.0  0.60545  0.93757  0.55622  1.0000
  P   P249      1.0  0.50874  0.90257  0.51564  1.0000
  C   C7466     1.0  0.96017  0.80165  0.68674  1.0000
  H   H5970     1.0  0.86741  0.92552  0.62968  1.0000
  H   H5971     1.0  0.71577  0.92471  0.65874  1.0000
  C   C7467     1.0  0.83608  0.83131  0.63163  1.0000
  C   C7468     1.0  0.83495  0.80273  0.65222  1.0000
  H   H5972     1.0  0.83662  0.84207  0.62341  1.0000
  H   H5973     1.0  0.83432  0.79155  0.66007  1.0000
  C   C7469     1.0  0.79393  0.86344  0.68416  1.0000
  C   C7470     1.0  0.59072  0.95068  0.57798  1.0000
  H   H5974     1.0  0.57777  0.95140  0.57630  1.0000
  Fe  Fe498     1.0  0.78640  0.96998  0.61455  1.0000
  C   C7471     1.0  0.82284  0.83306  0.64268  1.0000
  C   C7472     1.0  0.86707  0.95140  0.64644  1.0000
  C   C7473     1.0  0.80723  0.87068  0.67490  1.0000
  H   H5975     1.0  0.76857  0.82953  0.62791  1.0000
  H   H5976     1.0  0.84225  0.86259  0.63695  1.0000
  H   H5977     1.0  0.85552  0.88489  0.61996  1.0000
  H   H5978     1.0  0.80531  0.90637  0.60847  1.0000
  C   C7474     1.0  0.73068  0.94491  0.64786  1.0000
  H   H5979     1.0  0.75969  0.94674  0.65595  1.0000
  C   C7475     1.0  0.83398  0.87209  0.63082  1.0000
  C   C7476     1.0  0.84159  0.88471  0.62117  1.0000
  H   H5980     1.0  0.81161  0.81903  0.66125  1.0000
  H   H5981     1.0  0.93256  0.81535  0.68805  1.0000
  Fe  Fe499     1.0  0.54084  0.94069  0.55125  1.0000
  S   S1000     1.0  0.65641  0.94729  0.61669  1.0000
  H   H5982     1.0  0.78059  0.95018  0.66711  1.0000
  C   C7477     1.0  0.76907  0.83928  0.63270  1.0000
  C   C7478     1.0  0.81603  0.87146  0.63230  1.0000
  C   C7479     1.0  0.83127  0.89704  0.61311  1.0000
  H   H5983     1.0  0.83714  0.90692  0.60570  1.0000
  P   P250      1.0  0.80691  0.85379  0.64379  1.0000
  C   C7480     1.0  0.94632  0.81576  0.68337  1.0000
  S   S1001     1.0  0.78539  0.96378  0.63535  1.0000
  H   H5984     1.0  0.92397  0.89442  0.64728  1.0000
  C   C7481     1.0  0.78605  0.85269  0.64095  1.0000
  C   C7482     1.0  0.81334  0.89669  0.61465  1.0000
  H   H5985     1.0  0.63510  0.93870  0.56547  1.0000
  H   H5986     1.0  0.76567  0.75472  0.70057  1.0000
  C   C7483     1.0  0.62303  0.94356  0.57190  1.0000
  C   C7484     1.0  0.75444  0.95358  0.66363  1.0000
  C   C7485     1.0  0.90182  0.80100  0.68179  1.0000
  C   C7486     1.0  0.83852  0.80002  0.70232  1.0000
  C   C7487     1.0  0.62425  0.94859  0.58258  1.0000
  H   H5987     1.0  0.63714  0.94752  0.58447  1.0000
  Fe  Fe500     1.0  0.63451  0.96637  0.60774  1.0000
  C   C7488     1.0  0.78516  0.85264  0.68135  1.0000
  C   C7489     1.0  0.75325  0.85050  0.63741  1.0000
  C   C7490     1.0  0.80246  0.85702  0.65972  1.0000
  H   H5988     1.0  0.74049  0.84946  0.63631  1.0000
  H   H5989     1.0  0.78239  0.84110  0.66719  1.0000
  H   H5990     1.0  0.82112  0.87402  0.65557  1.0000
  H   H5991     1.0  0.79179  0.88406  0.62523  1.0000
  H   H5992     1.0  0.69186  0.92447  0.69775  1.0000
  C   C7491     1.0  0.98202  0.81673  0.67106  1.0000
  C   C7492     1.0  0.96804  0.83118  0.66822  1.0000
  C   C7493     1.0  0.60874  0.95461  0.59102  1.0000
  C   C7494     1.0  0.56953  0.93111  0.49315  1.0000
  C   C7495     1.0  0.77016  0.86421  0.64535  1.0000
  C   C7496     1.0  0.78947  0.84936  0.66921  1.0000
  C   C7497     1.0  0.81140  0.86759  0.66271  1.0000
  H   H5993     1.0  0.81375  0.87939  0.67697  1.0000
  H   H5994     1.0  0.57992  0.96003  0.59531  1.0000
  S   S1002     1.0  0.60973  0.96077  0.60464  1.0000
  H   H5995     1.0  0.87455  0.87382  0.66528  1.0000
  C   C7498     1.0  0.66951  0.95419  0.67631  1.0000
  C   C7499     1.0  0.75287  0.84080  0.72923  1.0000
  P   P251      1.0  0.89784  0.92661  0.63865  1.0000
  H   H5996     1.0  0.90432  0.96173  0.62508  1.0000
  H   H5997     1.0  0.71754  0.93420  0.68214  1.0000
  C   C7500     1.0  0.86399  0.77215  0.71560  1.0000
  C   C7501     1.0  0.74167  0.96998  0.68422  1.0000
  H   H5998     1.0  0.65614  0.95915  0.67446  1.0000
  C   C7502     1.0  0.86918  0.91425  0.63743  1.0000
  C   C7503     1.0  0.86567  0.76043  0.70793  1.0000
  C   C7504     1.0  0.88431  0.94873  0.63872  1.0000
  H   H5999     1.0  0.70660  0.97865  0.56163  1.0000
  H   H6000     1.0  0.96562  0.75231  0.67601  1.0000
  S   S1003     1.0  0.85096  0.74412  0.65938  1.0000
  H   H6001     1.0  0.73672  0.97608  0.69231  1.0000
  H   H6002     1.0  0.77820  0.98650  0.54073  1.0000
  C   C7505     1.0  0.70427  0.98478  0.63958  1.0000
  H   H6003     1.0  0.98902  0.83568  0.68492  1.0000
  H   H6004     1.0  0.74162  0.85183  0.73061  1.0000
  H   H6005     1.0  0.99327  0.74033  0.66173  1.0000
  C   C7506     1.0  0.60506  0.98709  0.51697  1.0000
  C   C7507     1.0  0.88011  0.74641  0.57320  1.0000
  C   C7508     1.0  0.70384  0.78724  0.73231  1.0000
  H   H6006     1.0  0.71809  0.82411  0.73088  1.0000
  C   C7509     1.0  0.99844  0.79036  0.60578  1.0000
  C   C7510     1.0  0.93684  0.74669  0.64441  1.0000
  H   H6007     1.0  0.95123  0.74764  0.60663  1.0000
  C   C7511     1.0  0.85741  0.74329  0.59251  1.0000
  H   H6008     1.0  0.88616  0.74366  0.56389  1.0000
  H   H6009     1.0  0.63269  0.76739  0.73306  1.0000
  H   H6010     1.0  0.52346  0.83405  0.48762  1.0000
  C   C7512     1.0  0.99532  0.82585  0.63995  1.0000
  H   H6011     1.0  0.99311  0.74133  0.60504  1.0000
  C   C7513     1.0  0.77057  0.74059  0.70159  1.0000
  C   C7514     1.0  0.87077  0.74218  0.71239  1.0000
  C   C7515     1.0  0.87230  0.74701  0.73225  1.0000
  C   C7516     1.0  0.99865  0.87758  0.61211  1.0000
  H   H6012     1.0  0.93143  0.74109  0.62838  1.0000
  C   C7517     1.0  0.57500  0.89966  0.48518  1.0000
  C   C7518     1.0  0.99830  0.77808  0.61728  1.0000
  H   H6013     1.0  0.50046  0.85862  0.49565  1.0000
  Fe  Fe501     1.0  0.83111  0.74059  0.69532  1.0000
  H   H6014     1.0  0.99414  0.86135  0.69018  1.0000
  C   C7519     1.0  0.53986  0.88384  0.48457  1.0000
  H   H6015     1.0  0.66035  0.98992  0.51584  1.0000
  H   H6016     1.0  0.66553  0.98970  0.53644  1.0000
  C   C7520     1.0  0.59889  0.99016  0.50590  1.0000
  H   H6017     1.0  0.50181  0.98818  0.58447  1.0000
  Fe  Fe502     1.0  0.56027  0.92598  0.90388  1.0000
  S   S1004     1.0  0.55307  0.95560  0.89894  1.0000
  S   S1005     1.0  0.56467  0.91274  0.88758  1.0000
  Fe  Fe503     1.0  0.55987  0.92582  0.93134  1.0000
  S   S1006     1.0  0.55267  0.95543  0.92839  1.0000
  S   S1007     1.0  0.56357  0.90662  0.94976  1.0000
  Fe  Fe504     1.0  0.53382  0.95320  0.91753  1.0000
  C   C7521     1.0  0.55773  0.81562  0.92752  1.0000
  Fe  Fe505     1.0  0.57280  0.95486  0.91005  1.0000
  C   C7522     1.0  0.51653  0.76100  0.85861  1.0000
  S   S1008     1.0  0.53946  0.92362  0.92180  1.0000
  S   S1009     1.0  0.58162  0.92521  0.91370  1.0000
  Fe  Fe506     1.0  0.52492  0.84377  0.87498  1.0000
  S   S1010     1.0  0.52253  0.86447  0.85734  1.0000
  S   S1011     1.0  0.52932  0.84907  0.89243  1.0000
  C   C7523     1.0  0.59333  0.87608  0.84929  1.0000
  H   H6018     1.0  0.52791  0.89764  0.83434  1.0000
  H   H6019     1.0  0.65617  0.97995  0.92761  1.0000
  Fe  Fe507     1.0  0.53775  0.84245  0.84747  1.0000
  S   S1012     1.0  0.55807  0.84913  0.82971  1.0000
  S   S1013     1.0  0.54209  0.82208  0.86522  1.0000
  H   H6020     1.0  0.81163  0.81870  0.74471  1.0000
  Fe  Fe508     1.0  0.64604  0.78982  0.80810  1.0000
  S   S1014     1.0  0.64103  0.80745  0.78961  1.0000
  S   S1015     1.0  0.63308  0.79574  0.82732  1.0000
  Fe  Fe509     1.0  0.67386  0.76195  0.79562  1.0000
  S   S1016     1.0  0.67128  0.77736  0.77609  1.0000
  C   C7524     1.0  0.57127  0.82819  0.95226  1.0000
  Fe  Fe510     1.0  0.67082  0.80089  0.78320  1.0000
  Fe  Fe511     1.0  0.64177  0.78217  0.78444  1.0000
  S   S1017     1.0  0.62315  0.78046  0.77317  1.0000
  S   S1018     1.0  0.67587  0.78510  0.80208  1.0000
  S   S1019     1.0  0.64434  0.76502  0.80346  1.0000
  C   C7525     1.0  0.55353  0.75681  0.85405  1.0000
  C   C7526     1.0  0.61449  0.76120  0.77750  1.0000
  C   C7527     1.0  0.80336  0.76975  0.74097  1.0000
  H   H6021     1.0  0.59070  0.98262  0.87264  1.0000
  H   H6022     1.0  0.77191  0.75131  0.75629  1.0000
  C   C7528     1.0  0.66804  0.83022  0.75439  1.0000
  C   C7529     1.0  0.55439  0.82811  0.95066  1.0000
  H   H6023     1.0  0.65998  0.82105  0.76050  1.0000
  C   C7530     1.0  0.54122  0.82335  0.96133  1.0000
  C   C7531     1.0  0.57909  0.83465  0.82922  1.0000
  C   C7532     1.0  0.59163  0.83513  0.81778  1.0000
  C   C7533     1.0  0.60823  0.82317  0.81707  1.0000
  C   C7534     1.0  0.61246  0.81090  0.82788  1.0000
  C   C7535     1.0  0.60015  0.81084  0.83941  1.0000
  C   C7536     1.0  0.58350  0.82267  0.84007  1.0000
  H   H6024     1.0  0.58845  0.84468  0.80944  1.0000
  H   H6025     1.0  0.61780  0.82370  0.80823  1.0000
  H   H6026     1.0  0.60338  0.80136  0.84777  1.0000
  H   H6027     1.0  0.57421  0.82254  0.84899  1.0000
  C   C7537     1.0  0.52366  0.77291  0.86182  1.0000
  H   H6028     1.0  0.72066  0.77682  0.78544  1.0000
  H   H6029     1.0  0.78941  0.79097  0.76544  1.0000
  C   C7538     1.0  0.54220  0.77106  0.85920  1.0000
  C   C7539     1.0  0.50863  0.92267  0.95887  1.0000
  H   H6030     1.0  0.56576  0.82901  0.88728  1.0000
  H   H6031     1.0  0.54784  0.78020  0.86157  1.0000
  C   C7540     1.0  0.56262  0.91366  0.96354  1.0000
  H   H6032     1.0  0.56563  0.97187  0.97142  1.0000
  S   S1020     1.0  0.51325  0.83498  0.84616  1.0000
  C   C7541     1.0  0.55259  0.89673  0.88882  1.0000
  C   C7542     1.0  0.54314  0.88892  0.90048  1.0000
  C   C7543     1.0  0.53574  0.87453  0.90140  1.0000
  C   C7544     1.0  0.53716  0.86826  0.89066  1.0000
  C   C7545     1.0  0.54554  0.87684  0.87887  1.0000
  C   C7546     1.0  0.55345  0.89087  0.87799  1.0000
  H   H6033     1.0  0.54228  0.89341  0.90886  1.0000
  H   H6034     1.0  0.52910  0.86805  0.91048  1.0000
  H   H6035     1.0  0.54668  0.87213  0.87053  1.0000
  H   H6036     1.0  0.56057  0.89696  0.86891  1.0000
  C   C7547     1.0  0.56160  0.81924  0.97492  1.0000
  C   C7548     1.0  0.51513  0.82978  0.93814  1.0000
  C   C7549     1.0  0.63275  0.98254  0.96223  1.0000
  C   C7550     1.0  0.60649  0.88205  0.87263  1.0000
  C   C7551     1.0  0.65794  0.98596  0.94464  1.0000
  H   H6037     1.0  0.58167  0.83177  0.94417  1.0000
  C   C7552     1.0  0.70497  0.77864  0.74481  1.0000
  H   H6038     1.0  0.66668  0.84589  0.81421  1.0000
  C   C7553     1.0  0.57105  0.80122  0.93157  1.0000
  H   H6039     1.0  0.57829  0.85510  0.87555  1.0000
  H   H6040     1.0  0.57828  0.85723  0.84939  1.0000
  H   H6041     1.0  0.54342  0.79055  0.83156  1.0000
  C   C7554     1.0  0.54644  0.74468  0.85107  1.0000
  S   S1021     1.0  0.68763  0.82090  0.77280  1.0000
  C   C7555     1.0  0.75392  0.80734  0.76749  1.0000
  C   C7556     1.0  0.58820  0.81043  0.87917  1.0000
  H   H6042     1.0  0.74225  0.77012  0.76637  1.0000
  C   C7557     1.0  0.51798  0.90980  0.85048  1.0000
  H   H6043     1.0  0.57509  0.88748  0.97221  1.0000
  C   C7558     1.0  0.61009  0.75225  0.79010  1.0000
  C   C7559     1.0  0.65780  0.74273  0.76568  1.0000
  C   C7560     1.0  0.72946  0.80010  0.78482  1.0000
  H   H6044     1.0  0.61226  0.79528  0.86949  1.0000
  H   H6045     1.0  0.70074  0.76632  0.74914  1.0000
  H   H6046     1.0  0.60736  0.74640  0.83588  1.0000
  H   H6047     1.0  0.71935  0.80330  0.79300  1.0000
  H   H6048     1.0  0.65689  0.75687  0.76227  1.0000
  C   C7561     1.0  0.63297  0.85833  0.87180  1.0000
  H   H6049     1.0  0.61447  0.76204  0.75828  1.0000
  C   C7562     1.0  0.50591  0.81122  0.90686  1.0000
  H   H6050     1.0  0.64511  0.87049  0.84605  1.0000
  C   C7563     1.0  0.53305  0.79508  0.82614  1.0000
  H   H6051     1.0  0.53562  0.99024  0.87136  1.0000
  H   H6052     1.0  0.51983  0.81065  0.90632  1.0000
  C   C7564     1.0  0.83771  0.82249  0.74397  1.0000
  H   H6053     1.0  0.53011  0.90428  0.85410  1.0000
  H   H6054     1.0  0.57112  0.84103  0.90879  1.0000
  H   H6055     1.0  0.57043  0.75279  0.81284  1.0000
  H   H6056     1.0  0.58804  0.86386  0.89699  1.0000
  C   C7565     1.0  0.85571  0.81997  0.73775  1.0000
  C   C7566     1.0  0.69259  0.84471  0.75033  1.0000
  C   C7567     1.0  0.68910  0.85367  0.73840  1.0000
  C   C7568     1.0  0.60489  0.80836  0.87086  1.0000
  H   H6057     1.0  0.63764  0.80932  0.74771  1.0000
  H   H6058     1.0  0.71079  0.78006  0.76199  1.0000
  C   C7569     1.0  0.51514  0.79921  0.83242  1.0000
  C   C7570     1.0  0.82093  0.76206  0.74232  1.0000
  P   P252      1.0  0.56027  0.79175  0.80456  1.0000
  C   C7571     1.0  0.57452  0.77730  0.81498  1.0000
  C   C7572     1.0  0.56031  0.78063  0.79259  1.0000
  C   C7573     1.0  0.56997  0.78493  0.78014  1.0000
  C   C7574     1.0  0.56948  0.77637  0.77104  1.0000
  C   C7575     1.0  0.55960  0.76327  0.77430  1.0000
  C   C7576     1.0  0.54980  0.75903  0.78661  1.0000
  C   C7577     1.0  0.57074  0.78726  0.91514  1.0000
  C   C7578     1.0  0.58340  0.78448  0.82091  1.0000
  C   C7579     1.0  0.59522  0.77332  0.82839  1.0000
  C   C7580     1.0  0.82710  0.76489  0.75191  1.0000
  H   H6059     1.0  0.84062  0.75864  0.75310  1.0000
  C   C7581     1.0  0.57727  0.75883  0.81701  1.0000
  C   C7582     1.0  0.56852  0.81184  0.79767  1.0000
  C   C7583     1.0  0.55724  0.82849  0.79854  1.0000
  C   C7584     1.0  0.56386  0.84390  0.79312  1.0000
  C   C7585     1.0  0.58172  0.84280  0.78673  1.0000
  C   C7586     1.0  0.59310  0.82627  0.78605  1.0000
  C   C7587     1.0  0.58661  0.81084  0.79169  1.0000
  H   H6060     1.0  0.54993  0.94104  0.95765  1.0000
  H   H6061     1.0  0.57814  0.79463  0.77738  1.0000
  C   C7588     1.0  0.71558  0.80267  0.74716  1.0000
  H   H6062     1.0  0.66983  0.80419  0.73833  1.0000
  H   H6063     1.0  0.58134  0.79867  0.81973  1.0000
  H   H6064     1.0  0.60217  0.77882  0.83287  1.0000
  C   C7589     1.0  0.51512  0.91065  0.95094  1.0000
  C   C7590     1.0  0.61986  0.98245  0.90522  1.0000
  C   C7591     1.0  0.79170  0.78023  0.74929  1.0000
  H   H6065     1.0  0.60591  0.89795  0.84646  1.0000
  H   H6066     1.0  0.55520  0.85667  0.79407  1.0000
  H   H6067     1.0  0.58688  0.85472  0.78258  1.0000
  H   H6068     1.0  0.60700  0.82535  0.78126  1.0000
  H   H6069     1.0  0.59569  0.79809  0.79132  1.0000
  H   H6070     1.0  0.62913  0.97373  0.89940  1.0000
  H   H6071     1.0  0.63224  0.88372  0.89172  1.0000
  C   C7592     1.0  0.76790  0.81033  0.73637  1.0000
  H   H6072     1.0  0.61483  0.84057  0.83688  1.0000
  H   H6073     1.0  0.58777  0.82419  0.96552  1.0000
  C   C7593     1.0  0.66433  0.83947  0.74255  1.0000
  P   P253      1.0  0.60371  0.96953  0.96218  1.0000
  H   H6074     1.0  0.68511  0.74873  0.74434  1.0000
  C   C7594     1.0  0.62463  0.97654  0.95505  1.0000
  H   H6075     1.0  0.69993  0.74852  0.77365  1.0000
  S   S1022     1.0  0.50920  0.78940  0.86968  1.0000
  C   C7595     1.0  0.60213  0.84023  0.86538  1.0000
  C   C7596     1.0  0.55557  0.93119  0.96503  1.0000
  P   P254      1.0  0.54974  0.83434  0.93503  1.0000
  H   H6076     1.0  0.56787  0.75501  0.85255  1.0000
  H   H6077     1.0  0.62478  0.82122  0.85757  1.0000
  H   H6078     1.0  0.58828  0.88782  0.90682  1.0000
  H   H6079     1.0  0.71924  0.80893  0.75315  1.0000
  C   C7597     1.0  0.81571  0.77548  0.76012  1.0000
  C   C7598     1.0  0.60149  0.95322  0.95471  1.0000
  C   C7599     1.0  0.60272  0.93533  0.96086  1.0000
  C   C7600     1.0  0.60216  0.92295  0.95446  1.0000
  C   C7601     1.0  0.59954  0.92838  0.94211  1.0000
  C   C7602     1.0  0.59742  0.94624  0.93615  1.0000
  C   C7603     1.0  0.59825  0.95861  0.94245  1.0000
  C   C7604     1.0  0.55593  0.93595  0.97615  1.0000
  H   H6080     1.0  0.66938  0.86424  0.82780  1.0000
  C   C7605     1.0  0.64092  0.77536  0.73413  1.0000
  H   H6081     1.0  0.52667  0.80474  0.79609  1.0000
  H   H6082     1.0  0.54235  0.76429  0.80520  1.0000
  H   H6083     1.0  0.59652  0.97242  0.93770  1.0000
  H   H6084     1.0  0.74072  0.82274  0.78168  1.0000
  H   H6085     1.0  0.82961  0.75361  0.73604  1.0000
  H   H6086     1.0  0.50656  0.75830  0.76712  1.0000
  C   C7606     1.0  0.56741  0.98469  0.96564  1.0000
  H   H6087     1.0  0.62625  0.93921  0.97573  1.0000
  C   C7607     1.0  0.68221  0.83282  0.75827  1.0000
  H   H6088     1.0  0.54238  0.74866  0.78920  1.0000
  C   C7608     1.0  0.51675  0.90603  0.83939  1.0000
  C   C7609     1.0  0.50572  0.80695  0.81260  1.0000
  H   H6089     1.0  0.60364  0.93081  0.97063  1.0000
  H   H6090     1.0  0.60311  0.90918  0.95923  1.0000
  H   H6091     1.0  0.59862  0.91881  0.93731  1.0000
  H   H6092     1.0  0.64108  0.84669  0.86835  1.0000
  H   H6093     1.0  0.57155  0.88866  0.92873  1.0000
  C   C7610     1.0  0.57121  0.85111  0.91341  1.0000
  H   H6094     1.0  0.55450  0.86591  0.94084  1.0000
  C   C7611     1.0  0.58923  0.74778  0.82440  1.0000
  C   C7612     1.0  0.58099  0.86402  0.90665  1.0000
  C   C7613     1.0  0.61718  0.86748  0.86758  1.0000
  C   C7614     1.0  0.63840  0.86418  0.88046  1.0000
  H   H6095     1.0  0.61895  0.79125  0.74505  1.0000
  C   C7615     1.0  0.65606  0.84858  0.82227  1.0000
  H   H6096     1.0  0.54100  0.82680  0.91382  1.0000
  C   C7616     1.0  0.58111  0.87754  0.91217  1.0000
  C   C7617     1.0  0.56176  0.86521  0.93129  1.0000
  H   H6097     1.0  0.59374  0.88882  0.87015  1.0000
  H   H6098     1.0  0.51370  0.94029  0.90592  1.0000
  C   C7618     1.0  0.57152  0.87811  0.92448  1.0000
  H   H6099     1.0  0.63940  0.83413  0.81883  1.0000
  C   C7619     1.0  0.58574  0.84212  0.87412  1.0000
  C   C7620     1.0  0.62802  0.87910  0.88506  1.0000
  P   P255      1.0  0.61039  0.85974  0.85639  1.0000
  C   C7621     1.0  0.62686  0.84543  0.83520  1.0000
  H   H6100     1.0  0.58259  0.79897  0.88419  1.0000
  H   H6101     1.0  0.82047  0.77752  0.76763  1.0000
  C   C7622     1.0  0.55000  0.76778  0.79568  1.0000
  C   C7623     1.0  0.61189  0.82319  0.86401  1.0000
  C   C7624     1.0  0.57481  0.82383  0.96435  1.0000
  C   C7625     1.0  0.74146  0.81106  0.77839  1.0000
  H   H6102     1.0  0.55586  0.87946  0.83902  1.0000
  H   H6103     1.0  0.55247  0.80187  0.90297  1.0000
  H   H6104     1.0  0.51441  0.94805  0.97896  1.0000
  C   C7626     1.0  0.56150  0.85158  0.92581  1.0000
  C   C7627     1.0  0.50150  0.80496  0.82568  1.0000
  H   H6105     1.0  0.52536  0.86949  0.93489  1.0000
  C   C7628     1.0  0.55105  0.81568  0.91721  1.0000
  H   H6106     1.0  0.59506  0.95052  0.92665  1.0000
  C   C7629     1.0  0.51752  0.85979  0.93630  1.0000
  H   H6107     1.0  0.52114  0.81591  0.93838  1.0000
  H   H6108     1.0  0.55785  0.91107  0.83246  1.0000
  H   H6109     1.0  0.58295  0.92021  0.83625  1.0000
  C   C7630     1.0  0.61208  0.88801  0.88114  1.0000
  C   C7631     1.0  0.64066  0.84196  0.82486  1.0000
  S   S1023     1.0  0.59439  0.97027  0.90049  1.0000
  H   H6110     1.0  0.51726  0.92360  0.96449  1.0000
  H   H6111     1.0  0.57660  0.80089  0.93940  1.0000
  C   C7632     1.0  0.73014  0.78520  0.78051  1.0000
  H   H6112     1.0  0.58781  0.77603  0.92852  1.0000
  C   C7633     1.0  0.57871  0.82731  0.88088  1.0000
  C   C7634     1.0  0.74253  0.78146  0.76960  1.0000
  P   P256      1.0  0.76876  0.78941  0.74772  1.0000
  C   C7635     1.0  0.63335  0.97548  0.94256  1.0000
  H   H6113     1.0  0.57581  0.77636  0.91031  1.0000
  C   C7636     1.0  0.79806  0.78311  0.75884  1.0000
  C   C7637     1.0  0.52788  0.74706  0.85308  1.0000
  C   C7638     1.0  0.60346  0.74054  0.77099  1.0000
  H   H6114     1.0  0.61250  0.75684  0.79751  1.0000
  C   C7639     1.0  0.50327  0.92005  0.85722  1.0000
  H   H6115     1.0  0.55032  0.94936  0.97736  1.0000
  C   C7640     1.0  0.61115  0.75525  0.76800  1.0000
  C   C7641     1.0  0.75434  0.79270  0.76281  1.0000
  C   C7642     1.0  0.56969  0.90102  0.97323  1.0000
  C   C7643     1.0  0.57927  0.87098  0.84691  1.0000
  C   C7644     1.0  0.59478  0.89386  0.84516  1.0000
  C   C7645     1.0  0.62861  0.85503  0.84331  1.0000
  C   C7646     1.0  0.56771  0.90136  0.83718  1.0000
  C   C7647     1.0  0.75334  0.82470  0.73801  1.0000
  C   C7648     1.0  0.76215  0.77365  0.74219  1.0000
  H   H6116     1.0  0.83317  0.82875  0.75200  1.0000
  C   C7649     1.0  0.76531  0.75575  0.74840  1.0000
  H   H6117     1.0  0.55988  0.75609  0.76739  1.0000
  H   H6118     1.0  0.86514  0.82422  0.74100  1.0000
  H   H6119     1.0  0.62745  0.97126  0.93665  1.0000
  H   H6120     1.0  0.54343  0.82968  0.80358  1.0000
  H   H6121     1.0  0.65066  0.85716  0.88361  1.0000
  H   H6122     1.0  0.60389  0.89950  0.88477  1.0000
  H   H6123     1.0  0.52855  0.90260  0.95049  1.0000
  C   C7650     1.0  0.65759  0.85882  0.82998  1.0000
  H   H6124     1.0  0.50332  0.89907  0.88380  1.0000
  H   H6125     1.0  0.57734  0.77945  0.76155  1.0000
  C   C7651     1.0  0.57749  0.78708  0.92540  1.0000
  C   C7652     1.0  0.64367  0.79910  0.74231  1.0000
  C   C7653     1.0  0.60155  0.98295  0.90786  1.0000
  C   C7654     1.0  0.60381  0.96117  0.97876  1.0000
  C   C7655     1.0  0.56650  0.88361  0.84094  1.0000
  C   C7656     1.0  0.55754  0.80157  0.91104  1.0000
  H   H6126     1.0  0.52811  0.82315  0.96039  1.0000
  H   H6127     1.0  0.87474  0.74174  0.74170  1.0000
  H   H6128     1.0  0.70348  0.84683  0.75333  1.0000
  C   C7657     1.0  0.71074  0.78638  0.75219  1.0000
  H   H6129     1.0  0.66873  0.74109  0.78158  1.0000
  C   C7658     1.0  0.52358  0.80301  0.80626  1.0000
  C   C7659     1.0  0.52583  0.84199  0.93622  1.0000
  H   H6130     1.0  0.76277  0.81627  0.76244  1.0000
  C   C7660     1.0  0.58186  0.90648  0.83929  1.0000
  Fe  Fe512     1.0  0.51637  0.81619  0.86470  1.0000
  C   C7661     1.0  0.53735  0.79675  0.81301  1.0000
  C   C7662     1.0  0.64385  0.86218  0.84040  1.0000
  H   H6131     1.0  0.50751  0.97001  0.87114  1.0000
  C   C7663     1.0  0.50452  0.90940  0.94333  1.0000
  H   H6132     1.0  0.74226  0.82364  0.74601  1.0000
  H   H6133     1.0  0.56694  0.97304  0.86754  1.0000
  C   C7664     1.0  0.59823  0.75500  0.83007  1.0000
  H   H6134     1.0  0.65336  0.83749  0.73956  1.0000
  C   C7665     1.0  0.58469  0.98759  0.96001  1.0000
  C   C7666     1.0  0.82558  0.81687  0.73987  1.0000
  C   C7667     1.0  0.64987  0.98026  0.93738  1.0000
  H   H6135     1.0  0.62625  0.98378  0.97182  1.0000
  C   C7668     1.0  0.54483  0.81894  0.97341  1.0000
  C   C7669     1.0  0.50080  0.91238  0.83511  1.0000
  H   H6136     1.0  0.50222  0.76249  0.86038  1.0000
  H   H6137     1.0  0.86631  0.77401  0.73389  1.0000
  C   C7670     1.0  0.67506  0.85095  0.73444  1.0000
  H   H6138     1.0  0.51178  0.79801  0.84252  1.0000
  H   H6139     1.0  0.51078  0.78510  0.90335  1.0000
  H   H6140     1.0  0.67061  0.98990  0.94053  1.0000
  C   C7671     1.0  0.71469  0.81127  0.73471  1.0000
  C   C7672     1.0  0.64945  0.98694  0.95709  1.0000
  C   C7673     1.0  0.63312  0.78886  0.74081  1.0000
  C   C7674     1.0  0.56375  0.98514  0.87094  1.0000
  H   H6141     1.0  0.50428  0.92230  0.86600  1.0000
  S   S1024     1.0  0.50557  0.96849  0.91926  1.0000
  C   C7675     1.0  0.75960  0.74345  0.74468  1.0000
  H   H6142     1.0  0.50982  0.90061  0.93682  1.0000
  C   C7676     1.0  0.69607  0.74347  0.73733  1.0000
  C   C7677     1.0  0.50080  0.79688  0.90520  1.0000
  C   C7678     1.0  0.66201  0.79595  0.73711  1.0000
  C   C7679     1.0  0.75099  0.74880  0.73460  1.0000
  H   H6143     1.0  0.50059  0.75208  0.89086  1.0000
  H   H6144     1.0  0.53457  0.81544  0.98162  1.0000
  C   C7680     1.0  0.61678  0.94622  0.98259  1.0000
