data_image0
_chemical_formula_structural       CHC2HCHC2H2C4H2CHC3H2FeCHC3H3C2S2C2HCH2CHCHCHCH4FeC4SCH2CH4C3S2H2SHPHSHFeCFeC3SCHCH2CFeCFeSFeS3C2HC4H2C12H6CHSHSFeSPC5H3CHFeCH4C2HC2HSC2H3CHCH2C2H2C3H3CH2C2HC2HC2H3CHC3H3CH2CHC3H5C3H3C2H3SCHSFeC2H3FeH2FeSCSCFeSCHCHC5H2CH3C4HPHCHC2H2C2HC2HC3HCHCHCHSCH3C3SHC3H2CH4CH2CPH2C2H4C3HCHCHCFeC3H2SCHC4HC2HC3HC2H6C2HCPC8HCH2CHC6PC4HC2H4C7HCHC3H2CH2C2H2CPC2H3C2HC2HCH2CHCHCHC2H2SC2HCHCHCH6C2H2CH2C4H2CH3CHC4HC3H3C9PCHC3HC2H2CH8C2HCSHCHC2H2C3HC3PC7H2CSH2C4H2SHFeSCFeS2FeSFeS3FeS2FeS2Fe2HS2H2C2H2C2HPC3HC2HC8H3CH4CH2C2HCHC2HCHC4HC3HC6H2CH2C4HSHCHSC2H2C3H2SH3C4HC2PCH4CH4CH3C6HCHPH3C3HC2H2C2H2C2HSCHCSHC3HCHSHC5HCHC9PC2HC2HC2SHC4H3CH5C3H2CSCHC3HFeC2FeC2HCHC4HCH3CHC2H2CH2CPCH4CHCHSH4CHCH2PCFeSC3HC3HCHCH2CHCSC2HCHFeHCH2SCHSHFeSC2HSH2C3H3CHCH2C2HC2HC8PC15H15C5SPC9PFeCHC3H6FeH5CHSC2HC2H2CFeHSFeHCHSCSFeS2FeHCFeSCSH2SHFeS2FeSFeCSCH5CHC3HC2HCHC6H6CHC2HC2HC3H2CHC7PC4HC3FeHC8SH12CH6CSCFeHCHSH2C2HC2HSCPC5HC3HCH2SCHC4H2SHFeSCSFeSFeS2CHSFeC4HC2HC3H2C5H3CHPC3HCH8CSHSC3H2FeC3HCH2CH4CSC4HCH2SC4FeHCHSHSCHFeHC6HS2H3CH3CH3C5H6CH2C2H2C3HC3HCHC4FeHSH2C2HCH2CSCHSHC2H2PCH2C2HC7HFeCH3CH4C8H3SC2HCHC2HC5HPHCHCSC3H2CHC4H3C8HCH2C2HC2HPCHCH3CH5CSC2HC2HC3HCHCHC9HCH2C2HC3H3CH2
_chemical_formula_sum              "C720 H576 Fe48 S96 P24"
_cell_length_a       36.8348
_cell_length_b       37.7407
_cell_length_c       54.01
_cell_angle_alpha    89.3135
_cell_angle_beta     89.9782
_cell_angle_gamma    115.112

_space_group_name_H-M_alt    "P 1"
_space_group_IT_number       1

loop_
  _space_group_symop_operation_xyz
  'x, y, z'

loop_
  _atom_site_type_symbol
  _atom_site_label
  _atom_site_symmetry_multiplicity
  _atom_site_fract_x
  _atom_site_fract_y
  _atom_site_fract_z
  _atom_site_occupancy
  C   C1        1.0  0.27569  0.35085  0.27493  1.0000
  H   H1        1.0  0.27269  0.37570  0.26673  1.0000
  C   C2        1.0  0.29762  0.33328  0.26302  1.0000
  C   C3        1.0  0.26503  0.42534  0.19413  1.0000
  H   H2        1.0  0.25210  0.44317  0.18527  1.0000
  C   C4        1.0  0.25427  0.38700  0.18636  1.0000
  H   H3        1.0  0.23311  0.37514  0.17139  1.0000
  C   C5        1.0  0.27060  0.36376  0.19797  1.0000
  C   C6        1.0  0.26451  0.23894  0.20491  1.0000
  H   H4        1.0  0.23674  0.21318  0.20809  1.0000
  H   H5        1.0  0.25082  0.27320  0.23153  1.0000
  C   C7        1.0  0.27279  0.27297  0.21829  1.0000
  C   C8        1.0  0.25788  0.33674  0.29803  1.0000
  C   C9        1.0  0.29220  0.44050  0.21350  1.0000
  C   C10       1.0  0.30200  0.30191  0.27474  1.0000
  H   H6        1.0  0.30030  0.46999  0.21986  1.0000
  H   H7        1.0  0.26183  0.33416  0.19167  1.0000
  C   C11       1.0  0.26234  0.30544  0.30953  1.0000
  H   H8        1.0  0.24172  0.35091  0.30740  1.0000
  C   C12       1.0  0.28449  0.28813  0.29790  1.0000
  C   C13       1.0  0.29805  0.37888  0.21738  1.0000
  C   C14       1.0  0.29234  0.23794  0.18770  1.0000
  H   H9        1.0  0.28873  0.26441  0.30697  1.0000
  H   H10       1.0  0.28629  0.21148  0.17752  1.0000
  Fe  Fe1       1.0  0.42705  0.01181  0.03157  1.0000
  C   C15       1.0  0.30874  0.41742  0.22499  1.0000
  H   H11       1.0  0.34489  0.18871  0.12084  1.0000
  C   C16       1.0  0.30937  0.30615  0.21488  1.0000
  C   C17       1.0  0.37284  0.37995  0.23519  1.0000
  C   C18       1.0  0.46368  0.33980  0.07055  1.0000
  H   H12       1.0  0.32957  0.42939  0.24006  1.0000
  H   H13       1.0  0.46809  0.46125  0.10516  1.0000
  H   H14       1.0  0.31920  0.28820  0.26599  1.0000
  C   C19       1.0  0.37306  0.25830  0.28862  1.0000
  C   C20       1.0  0.44952  0.38692  0.14671  1.0000
  S   S1        1.0  0.42260  0.06856  0.02484  1.0000
  S   S2        1.0  0.36318  0.45227  0.28696  1.0000
  C   C21       1.0  0.46008  0.37054  0.05773  1.0000
  C   C22       1.0  0.42569  0.21948  0.08218  1.0000
  H   H15       1.0  0.42220  0.18465  0.16422  1.0000
  C   C23       1.0  0.32829  0.27103  0.18381  1.0000
  H   H16       1.0  0.38741  0.14014  0.12997  1.0000
  H   H17       1.0  0.36957  0.16812  0.08335  1.0000
  C   C24       1.0  0.33695  0.30495  0.19739  1.0000
  H   H18       1.0  0.44849  0.41171  0.27740  1.0000
  C   C25       1.0  0.44574  0.40649  0.12540  1.0000
  H   H19       1.0  0.34981  0.27033  0.17043  1.0000
  C   C26       1.0  0.39852  0.24204  0.12481  1.0000
  H   H20       1.0  0.42347  0.39078  0.11172  1.0000
  C   C27       1.0  0.47088  0.44627  0.12174  1.0000
  H   H21       1.0  0.44583  0.01443  0.13988  1.0000
  H   H22       1.0  0.36531  0.32983  0.19422  1.0000
  H   H23       1.0  0.39480  0.45135  0.09383  1.0000
  H   H24       1.0  0.38210  0.46626  0.18932  1.0000
  Fe  Fe2       1.0  0.41903  0.26720  0.23198  1.0000
  C   C28       1.0  0.39152  0.29913  0.29061  1.0000
  C   C29       1.0  0.43521  0.42654  0.21652  1.0000
  C   C30       1.0  0.44105  0.13950  0.11464  1.0000
  C   C31       1.0  0.35388  0.23536  0.30933  1.0000
  S   S3        1.0  0.44432  0.02484  0.07141  1.0000
  C   C32       1.0  0.38773  0.19592  0.09188  1.0000
  H   H25       1.0  0.38810  0.25085  0.14131  1.0000
  H   H26       1.0  0.47484  0.32673  0.28922  1.0000
  C   C33       1.0  0.37402  0.20731  0.11311  1.0000
  H   H27       1.0  0.37655  0.36913  0.27446  1.0000
  H   H28       1.0  0.45518  0.29234  0.12475  1.0000
  H   H29       1.0  0.43934  0.38184  0.06436  1.0000
  H   H30       1.0  0.40614  0.31697  0.27463  1.0000
  C   C34       1.0  0.45026  0.25480  0.09366  1.0000
  C   C35       1.0  0.41952  0.15080  0.13181  1.0000
  C   C36       1.0  0.39446  0.40156  0.21451  1.0000
  S   S4        1.0  0.37111  0.23486  0.26033  1.0000
  S   S5        1.0  0.41291  0.24746  0.19240  1.0000
  H   H31       1.0  0.43563  0.20951  0.06597  1.0000
  H   H32       1.0  0.44579  0.32822  0.08711  1.0000
  S   S6        1.0  0.41729  0.33728  0.15109  1.0000
  H   H33       1.0  0.37988  0.39909  0.19681  1.0000
  P   P1        1.0  0.31961  0.34960  0.23273  1.0000
  H   H34       1.0  0.45168  0.44356  0.20067  1.0000
  S   S7        1.0  0.41503  0.10997  0.08954  1.0000
  H   H35       1.0  0.34624  0.45228  0.12527  1.0000
  Fe  Fe3       1.0  0.44531  0.08372  0.06375  1.0000
  C   C37       1.0  0.43665  0.26551  0.11534  1.0000
  Fe  Fe4       1.0  0.43777  0.31164  0.18300  1.0000
  C   C38       1.0  0.43919  0.17600  0.15128  1.0000
  C   C39       1.0  0.43352  0.40869  0.25979  1.0000
  C   C40       1.0  0.45484  0.42979  0.23906  1.0000
  S   S8        1.0  0.43795  0.33031  0.22215  1.0000
  C   C41       1.0  0.39259  0.38417  0.25796  1.0000
  H   H36       1.0  0.40427  0.34842  0.31463  1.0000
  C   C42       1.0  0.43767  0.98723  0.13007  1.0000
  H   H37       1.0  0.39799  0.47676  0.23817  1.0000
  H   H38       1.0  0.33936  0.20384  0.30786  1.0000
  C   C43       1.0  0.39021  0.31690  0.31320  1.0000
  Fe  Fe5       1.0  0.47725  0.25749  0.19556  1.0000
  C   C44       1.0  0.46740  0.97888  0.11908  1.0000
  Fe  Fe6       1.0  0.13091  0.33835  0.57304  1.0000
  S   S9        1.0  0.12197  0.29190  0.60202  1.0000
  Fe  Fe7       1.0  0.18674  0.37676  0.52880  1.0000
  S   S10       1.0  0.24284  0.37887  0.51060  1.0000
  S   S11       1.0  0.18958  0.39121  0.56905  1.0000
  S   S12       1.0  0.13136  0.32095  0.53356  1.0000
  C   C45       1.0  0.07768  0.27268  0.61997  1.0000
  C   C46       1.0  0.06047  0.23256  0.62541  1.0000
  H   H39       1.0  0.07361  0.21423  0.61786  1.0000
  C   C47       1.0  0.26194  0.40631  0.42758  1.0000
  C   C48       1.0  0.24967  0.38952  0.47868  1.0000
  C   C49       1.0  0.22383  0.40097  0.46543  1.0000
  C   C50       1.0  0.22953  0.40865  0.43986  1.0000
  H   H40       1.0  0.19935  0.40376  0.47484  1.0000
  H   H41       1.0  0.20888  0.41659  0.42958  1.0000
  C   C51       1.0  0.11898  0.33212  0.41108  1.0000
  C   C52       1.0  0.11328  0.35371  0.43031  1.0000
  C   C53       1.0  0.12404  0.34867  0.45443  1.0000
  C   C54       1.0  0.14062  0.32221  0.45941  1.0000
  C   C55       1.0  0.14620  0.30020  0.44025  1.0000
  C   C56       1.0  0.13512  0.30527  0.41603  1.0000
  C   C57       1.0  0.12042  0.15978  0.41002  1.0000
  C   C58       1.0  0.07927  0.14969  0.40972  1.0000
  C   C59       1.0  0.06435  0.17425  0.42063  1.0000
  C   C60       1.0  0.09056  0.20891  0.43182  1.0000
  C   C61       1.0  0.13236  0.22371  0.51769  1.0000
  C   C62       1.0  0.13243  0.22794  0.49190  1.0000
  H   H42       1.0  0.11087  0.33616  0.39233  1.0000
  H   H43       1.0  0.10049  0.37429  0.42660  1.0000
  H   H44       1.0  0.14911  0.31930  0.47824  1.0000
  H   H45       1.0  0.27203  0.45774  0.58455  1.0000
  H   H46       1.0  0.10623  0.20216  0.52713  1.0000
  H   H47       1.0  0.10608  0.20933  0.48176  1.0000
  C   C63       1.0  0.00936  0.37602  0.51826  1.0000
  H   H48       1.0  0.04489  0.28877  0.54479  1.0000
  S   S13       1.0  0.09286  0.37065  0.56604  1.0000
  H   H49       1.0  0.02699  0.37910  0.53474  1.0000
  S   S14       1.0  0.04682  0.33258  0.49915  1.0000
  Fe  Fe8       1.0  0.09765  0.35729  0.52613  1.0000
  S   S15       1.0  0.15321  0.41198  0.51794  1.0000
  P   P2        1.0  0.16556  0.26432  0.44655  1.0000
  C   C64       1.0  0.16589  0.25655  0.47965  1.0000
  C   C65       1.0  0.13199  0.21927  0.43221  1.0000
  C   C66       1.0  0.14673  0.19441  0.42122  1.0000
  C   C67       1.0  0.21579  0.27971  0.43428  1.0000
  C   C68       1.0  0.23031  0.30765  0.41504  1.0000
  H   H50       1.0  0.13903  0.28847  0.40098  1.0000
  H   H51       1.0  0.07848  0.22759  0.44025  1.0000
  H   H52       1.0  0.21280  0.32222  0.40782  1.0000
  C   C69       1.0  0.01264  0.35372  0.49860  1.0000
  H   H53       1.0  0.11963  0.36531  0.46938  1.0000
  Fe  Fe9       1.0  0.15176  0.42238  0.55867  1.0000
  C   C70       1.0  0.06086  0.29638  0.63019  1.0000
  H   H54       1.0  0.13202  0.14081  0.40149  1.0000
  H   H55       1.0  0.17845  0.20164  0.42112  1.0000
  H   H56       1.0  0.07435  0.32755  0.62644  1.0000
  H   H57       1.0  0.20092  0.36003  0.61713  1.0000
  C   C71       1.0  0.19905  0.28085  0.49362  1.0000
  C   C72       1.0  0.16556  0.24803  0.53143  1.0000
  H   H58       1.0  0.22997  0.24104  0.45836  1.0000
  C   C73       1.0  0.24046  0.26269  0.44356  1.0000
  C   C74       1.0  0.19890  0.27651  0.51937  1.0000
  H   H59       1.0  0.22469  0.30398  0.48474  1.0000
  S   S16       1.0  0.26920  0.41810  0.39573  1.0000
  C   C75       1.0  0.28159  0.38630  0.46634  1.0000
  C   C76       1.0  0.28781  0.39484  0.44089  1.0000
  H   H60       1.0  0.20449  0.45108  0.60345  1.0000
  H   H61       1.0  0.04127  0.41590  0.57983  1.0000
  H   H62       1.0  0.09515  0.42030  0.47381  1.0000
  C   C77       1.0  0.20581  0.37164  0.63569  1.0000
  H   H63       1.0  0.16505  0.24560  0.55147  1.0000
  C   C78       1.0  0.05237  0.44737  0.57796  1.0000
  H   H64       1.0  0.22419  0.29629  0.53002  1.0000
  H   H65       1.0  0.04306  0.22834  0.56418  1.0000
  C   C79       1.0  0.02045  0.27146  0.55708  1.0000
  C   C80       1.0  0.26857  0.31799  0.40511  1.0000
  H   H66       1.0  0.27971  0.33992  0.39049  1.0000
  H   H67       1.0  0.04110  0.41764  0.44559  1.0000
  C   C81       1.0  0.29293  0.30106  0.41448  1.0000
  C   C82       1.0  0.27891  0.27345  0.43373  1.0000
  C   C83       1.0  0.08250  0.44136  0.47560  1.0000
  H   H68       1.0  0.30166  0.37731  0.47650  1.0000
  H   H69       1.0  0.06244  0.44751  0.53911  1.0000
  H   H70       1.0  0.05895  0.12287  0.40101  1.0000
  C   C84       1.0  0.05189  0.43973  0.45977  1.0000
  H   H71       1.0  0.10871  0.45812  0.63584  1.0000
  H   H72       1.0  0.03244  0.16647  0.42042  1.0000
  C   C85       1.0  0.19936  0.47335  0.61310  1.0000
  C   C86       1.0  0.29745  0.45809  0.54854  1.0000
  H   H73       1.0  0.30201  0.43197  0.55219  1.0000
  C   C87       1.0  0.98914  0.34895  0.47750  1.0000
  C   C88       1.0  0.02580  0.21580  0.64006  1.0000
  H   H74       1.0  0.27014  0.39728  0.63259  1.0000
  C   C89       1.0  0.98343  0.39462  0.51645  1.0000
  C   C90       1.0  0.06428  0.46547  0.55479  1.0000
  H   H75       1.0  0.14300  0.35019  0.64350  1.0000
  H   H76       1.0  0.04646  0.45601  0.61672  1.0000
  H   H77       1.0  0.98903  0.40975  0.64741  1.0000
  C   C91       1.0  0.98768  0.21489  0.58381  1.0000
  H   H78       1.0  0.00849  0.46242  0.45165  1.0000
  C   C92       1.0  0.02723  0.27976  0.64610  1.0000
  C   C93       1.0  0.03358  0.46505  0.46314  1.0000
  C   C94       1.0  0.05553  0.46992  0.59879  1.0000
  H   H79       1.0  0.01221  0.18457  0.64359  1.0000
  H   H80       1.0  0.22884  0.46747  0.64634  1.0000
  H   H81       1.0  0.99143  0.33152  0.46235  1.0000
  C   C95       1.0  0.24471  0.39233  0.64449  1.0000
  H   H82       1.0  0.24962  0.29530  0.32776  1.0000
  H   H83       1.0  0.11881  0.46964  0.50695  1.0000
  C   C96       1.0  0.01909  0.23707  0.56776  1.0000
  H   H84       1.0  0.99283  0.31122  0.55455  1.0000
  C   C97       1.0  0.09549  0.46895  0.49446  1.0000
  C   C98       1.0  0.99068  0.28392  0.56252  1.0000
  C   C99       1.0  0.97795  0.38521  0.63497  1.0000
  H   H85       1.0  0.98729  0.18889  0.59272  1.0000
  H   H86       1.0  0.16817  0.47416  0.47326  1.0000
  H   H87       1.0  0.98155  0.41251  0.53141  1.0000
  H   H88       1.0  0.29796  0.26051  0.44103  1.0000
  H   H89       1.0  0.46675  0.29083  0.32855  1.0000
  C   C100      1.0  0.42340  0.26483  0.38802  1.0000
  C   C101      1.0  0.47121  0.36612  0.39515  1.0000
  C   C102      1.0  0.39224  0.19791  0.37381  1.0000
  H   H90       1.0  0.32278  0.30961  0.40691  1.0000
  H   H91       1.0  0.31985  0.46432  0.51141  1.0000
  H   H92       1.0  0.31249  0.39229  0.43162  1.0000
  C   C103      1.0  0.37121  0.29373  0.33393  1.0000
  C   C104      1.0  0.42864  0.20245  0.36328  1.0000
  H   H93       1.0  0.31450  0.46953  0.46127  1.0000
  H   H94       1.0  0.45462  0.36020  0.37794  1.0000
  H   H95       1.0  0.43044  0.17864  0.35315  1.0000
  S   S17       1.0  0.36876  0.47624  0.35854  1.0000
  C   C105      1.0  0.46247  0.23814  0.36515  1.0000
  H   H96       1.0  0.44808  0.40664  0.40733  1.0000
  S   S18       1.0  0.37306  0.40754  0.39504  1.0000
  Fe  Fe10      1.0  0.32544  0.42083  0.37710  1.0000
  C   C106      1.0  0.46006  0.26963  0.37749  1.0000
  C   C107      1.0  0.38971  0.22903  0.38628  1.0000
  H   H97       1.0  0.36880  0.45884  0.44059  1.0000
  H   H98       1.0  0.42022  0.28878  0.39704  1.0000
  H   H99       1.0  0.33825  0.23493  0.34775  1.0000
  Fe  Fe11      1.0  0.37226  0.37525  0.36023  1.0000
  H   H100      1.0  0.36580  0.17059  0.37186  1.0000
  H   H101      1.0  0.36128  0.22604  0.39382  1.0000
  Fe  Fe12      1.0  0.41642  0.46015  0.37402  1.0000
  S   S19       1.0  0.42008  0.42672  0.34074  1.0000
  C   C108      1.0  0.35337  0.25297  0.33193  1.0000
  S   S20       1.0  0.32077  0.38397  0.34399  1.0000
  C   C109      1.0  0.46707  0.39217  0.41184  1.0000
  Fe  Fe13      1.0  0.36833  0.43806  0.32697  1.0000
  S   S21       1.0  0.36889  0.31447  0.36257  1.0000
  C   C110      1.0  0.28023  0.47235  0.56666  1.0000
  H   H102      1.0  0.17674  0.47625  0.42764  1.0000
  C   C111      1.0  0.30745  0.47655  0.52530  1.0000
  H   H103      1.0  0.14291  0.41827  0.64918  1.0000
  C   C112      1.0  0.03952  0.35790  0.77988  1.0000
  C   C113      1.0  0.06390  0.37245  0.80061  1.0000
  C   C114      1.0  0.08854  0.41263  0.80251  1.0000
  C   C115      1.0  0.06610  0.42398  0.76240  1.0000
  C   C116      1.0  0.04008  0.38386  0.76099  1.0000
  H   H104      1.0  0.10684  0.42360  0.81877  1.0000
  H   H105      1.0  0.04111  0.19704  0.75539  1.0000
  C   C117      1.0  0.10400  0.31895  0.69954  1.0000
  H   H106      1.0  0.03037  0.41912  0.69906  1.0000
  H   H107      1.0  0.02035  0.37305  0.74534  1.0000
  H   H108      1.0  0.06347  0.35264  0.81536  1.0000
  C   C118      1.0  0.10643  0.39507  0.68216  1.0000
  C   C119      1.0  0.07326  0.30669  0.71747  1.0000
  C   C120      1.0  0.05455  0.41819  0.68801  1.0000
  C   C121      1.0  0.07435  0.39566  0.69589  1.0000
  H   H109      1.0  0.06881  0.32752  0.72922  1.0000
  P   P3        1.0  0.13559  0.37073  0.69487  1.0000
  H   H110      1.0  0.06574  0.38022  0.71328  1.0000
  C   C122      1.0  0.15276  0.37017  0.74547  1.0000
  H   H111      1.0  0.14360  0.33900  0.74403  1.0000
  C   C123      1.0  0.15268  0.39283  0.72464  1.0000
  C   C124      1.0  0.16408  0.38766  0.76860  1.0000
  H   H112      1.0  0.16266  0.36991  0.78479  1.0000
  H   H113      1.0  0.08872  0.22908  0.67806  1.0000
  C   C125      1.0  0.11003  0.29036  0.68591  1.0000
  C   C126      1.0  0.04786  0.26705  0.72071  1.0000
  H   H114      1.0  0.02368  0.25826  0.73414  1.0000
  C   C127      1.0  0.05306  0.23910  0.70632  1.0000
  C   C128      1.0  0.08467  0.25069  0.68932  1.0000
  H   H115      1.0  0.03216  0.20858  0.70798  1.0000
  C   C129      1.0  0.17853  0.37937  0.67522  1.0000
  C   C130      1.0  0.21780  0.40030  0.68392  1.0000
  C   C131      1.0  0.09010  0.43856  0.78334  1.0000
  H   H116      1.0  0.22329  0.41208  0.70240  1.0000
  C   C132      1.0  0.16604  0.43337  0.72708  1.0000
  H   H117      1.0  0.06654  0.44374  0.74766  1.0000
  C   C133      1.0  0.17634  0.42792  0.77096  1.0000
  H   H118      1.0  0.16713  0.45154  0.71114  1.0000
  C   C134      1.0  0.17777  0.45078  0.75015  1.0000
  H   H119      1.0  0.18405  0.44145  0.78894  1.0000
  S   S22       1.0  0.00903  0.30715  0.77816  1.0000
  C   C135      1.0  0.06733  0.44122  0.66659  1.0000
  H   H120      1.0  0.13375  0.29810  0.67236  1.0000
  H   H121      1.0  0.02793  0.23583  0.78803  1.0000
  H   H122      1.0  0.28084  0.42339  0.67530  1.0000
  C   C136      1.0  0.01144  0.18672  0.76353  1.0000
  C   C137      1.0  0.25070  0.40681  0.66856  1.0000
  C   C138      1.0  0.00416  0.20847  0.78205  1.0000
  S   S23       1.0  0.98250  0.31027  0.70764  1.0000
  H   H123      1.0  0.98812  0.43061  0.73969  1.0000
  C   C139      1.0  0.99427  0.44971  0.77752  1.0000
  C   C140      1.0  0.09856  0.44017  0.65242  1.0000
  C   C141      1.0  0.17292  0.36567  0.65083  1.0000
  H   H124      1.0  0.05363  0.46056  0.66139  1.0000
  H   H125      1.0  0.01542  0.29823  0.65484  1.0000
  C   C142      1.0  0.11800  0.41722  0.66010  1.0000
  H   H126      1.0  0.98411  0.34564  0.66150  1.0000
  H   H127      1.0  0.98516  0.47507  0.66082  1.0000
  H   H128      1.0  0.99241  0.46110  0.81631  1.0000
  H   H129      1.0  0.02483  0.47149  0.77487  1.0000
  C   C143      1.0  0.00908  0.23922  0.65054  1.0000
  H   H130      1.0  0.98595  0.13688  0.73988  1.0000
  H   H131      1.0  0.98328  0.02338  0.76792  1.0000
  C   C144      1.0  0.98020  0.15251  0.75495  1.0000
  P   P4        1.0  0.47354  0.00411  0.89245  1.0000
  H   H132      1.0  0.38172  0.99452  0.97842  1.0000
  H   H133      1.0  0.44568  0.05209  0.97180  1.0000
  C   C145      1.0  0.43765  0.08738  0.91492  1.0000
  C   C146      1.0  0.44547  0.05444  0.95181  1.0000
  H   H134      1.0  0.43016  0.10339  0.95216  1.0000
  H   H135      1.0  0.46218  0.00733  0.94653  1.0000
  H   H136      1.0  0.43159  0.11035  0.90634  1.0000
  H   H137      1.0  0.39224  0.99702  0.87973  1.0000
  C   C147      1.0  0.44762  0.06241  0.90032  1.0000
  C   C148      1.0  0.45519  0.02927  0.93732  1.0000
  C   C149      1.0  0.45625  0.03301  0.91141  1.0000
  H   H138      1.0  0.44949  0.06650  0.88040  1.0000
  C   C150      1.0  0.43668  0.08342  0.94068  1.0000
  H   H139      1.0  0.44826  0.94464  0.05592  1.0000
  C   C151      1.0  0.45687  0.94462  0.10553  1.0000
  H   H140      1.0  0.34752  0.87628  0.04844  1.0000
  C   C152      1.0  0.38564  0.62176  0.01269  1.0000
  Fe  Fe14      1.0  0.46765  0.76723  0.04783  1.0000
  C   C153      1.0  0.28839  0.84027  0.06203  1.0000
  C   C154      1.0  0.35325  0.63173  0.14737  1.0000
  C   C155      1.0  0.45633  0.92487  0.02036  1.0000
  H   H141      1.0  0.35537  0.90758  0.11228  1.0000
  H   H142      1.0  0.34595  0.56040  0.01386  1.0000
  S   S24       1.0  0.40129  0.73100  0.05044  1.0000
  C   C156      1.0  0.36541  0.55577  0.28286  1.0000
  H   H143      1.0  0.36947  0.62869  0.99803  1.0000
  C   C157      1.0  0.29031  0.78541  0.99183  1.0000
  C   C158      1.0  0.41813  0.54909  0.09233  1.0000
  C   C159      1.0  0.39925  0.49641  0.18355  1.0000
  C   C160      1.0  0.38974  0.54916  0.10965  1.0000
  H   H144      1.0  0.17162  0.81942  0.99757  1.0000
  C   C161      1.0  0.41905  0.51339  0.08622  1.0000
  C   C162      1.0  0.37988  0.72572  0.02094  1.0000
  H   H145      1.0  0.32423  0.67893  0.03277  1.0000
  C   C163      1.0  0.10380  0.70921  0.00907  1.0000
  C   C164      1.0  0.45821  0.64742  0.20559  1.0000
  C   C165      1.0  0.41553  0.84917  0.03941  1.0000
  H   H146      1.0  0.06259  0.72889  0.02581  1.0000
  C   C166      1.0  0.45493  0.85513  0.11694  1.0000
  C   C167      1.0  0.43689  0.51162  0.29442  1.0000
  H   H147      1.0  0.43191  0.77078  0.00344  1.0000
  H   H148      1.0  0.27409  0.84685  0.04627  1.0000
  H   H149      1.0  0.23291  0.80326  0.08020  1.0000
  H   H150      1.0  0.26630  0.78961  0.11667  1.0000
  H   H151      1.0  0.39966  0.61208  0.15145  1.0000
  H   H152      1.0  0.39974  0.81951  0.04631  1.0000
  C   C168      1.0  0.44470  0.57431  0.16939  1.0000
  C   C169      1.0  0.40949  0.48846  0.27696  1.0000
  H   H153      1.0  0.42231  0.83050  0.00275  1.0000
  C   C170      1.0  0.39739  0.96127  0.12752  1.0000
  P   P5        1.0  0.40327  0.87294  0.08609  1.0000
  C   C171      1.0  0.42796  0.50539  0.16478  1.0000
  C   C172      1.0  0.34933  0.84908  0.08370  1.0000
  C   C173      1.0  0.34072  0.69754  0.01746  1.0000
  C   C174      1.0  0.42082  0.84047  0.10178  1.0000
  C   C175      1.0  0.41982  0.65144  0.02264  1.0000
  C   C176      1.0  0.32602  0.82487  0.10303  1.0000
  C   C177      1.0  0.37236  0.58342  0.02171  1.0000
  C   C178      1.0  0.45577  0.52487  0.24388  1.0000
  H   H154      1.0  0.37636  0.78779  0.08530  1.0000
  C   C179      1.0  0.36362  0.89895  0.98584  1.0000
  H   H155      1.0  0.43309  0.48228  0.15593  1.0000
  H   H156      1.0  0.34024  0.81957  0.11932  1.0000
  C   C180      1.0  0.09141  0.73760  0.01673  1.0000
  H   H157      1.0  0.40136  0.74376  0.10502  1.0000
  C   C181      1.0  0.41658  0.91793  0.10314  1.0000
  C   C182      1.0  0.32642  0.64303  0.15951  1.0000
  C   C183      1.0  0.26727  0.74969  0.03840  1.0000
  C   C184      1.0  0.41579  0.77473  0.10893  1.0000
  C   C185      1.0  0.35176  0.56348  0.23976  1.0000
  C   C186      1.0  0.28414  0.80810  0.10166  1.0000
  P   P6        1.0  0.41051  0.60495  0.20450  1.0000
  C   C187      1.0  0.16604  0.76022  0.99312  1.0000
  C   C188      1.0  0.37618  0.61813  0.18706  1.0000
  C   C189      1.0  0.37819  0.61953  0.16109  1.0000
  C   C190      1.0  0.38682  0.92676  0.11418  1.0000
  H   H158      1.0  0.42682  0.58689  0.29406  1.0000
  C   C191      1.0  0.32476  0.64243  0.18539  1.0000
  C   C192      1.0  0.34975  0.63032  0.19915  1.0000
  H   H159      1.0  0.43979  0.51226  0.07238  1.0000
  H   H160      1.0  0.35547  0.54183  0.30083  1.0000
  H   H161      1.0  0.46704  0.66663  0.04936  1.0000
  H   H162      1.0  0.47158  0.88598  0.12000  1.0000
  C   C193      1.0  0.36384  0.51436  0.12145  1.0000
  C   C194      1.0  0.39247  0.58827  0.23560  1.0000
  C   C195      1.0  0.41685  0.56574  0.18882  1.0000
  C   C196      1.0  0.40567  0.58114  0.27904  1.0000
  C   C197      1.0  0.41930  0.59707  0.25551  1.0000
  C   C198      1.0  0.39290  0.57488  0.04100  1.0000
  C   C199      1.0  0.44358  0.91922  0.04507  1.0000
  H   H163      1.0  0.46293  0.60426  0.16384  1.0000
  C   C200      1.0  0.31900  0.78340  0.00795  1.0000
  H   H164      1.0  0.43606  0.70312  0.11906  1.0000
  C   C201      1.0  0.42331  0.88124  0.05490  1.0000
  C   C202      1.0  0.44061  0.64306  0.04181  1.0000
  C   C203      1.0  0.44866  0.89295  0.00519  1.0000
  H   H165      1.0  0.34894  0.63122  0.21917  1.0000
  H   H166      1.0  0.43429  0.68999  0.19807  1.0000
  C   C204      1.0  0.46904  0.82983  0.12807  1.0000
  H   H167      1.0  0.30728  0.65272  0.14887  1.0000
  H   H168      1.0  0.35510  0.63292  0.12732  1.0000
  C   C205      1.0  0.39359  0.52638  0.19548  1.0000
  C   C206      1.0  0.33020  0.85683  0.06326  1.0000
  H   H169      1.0  0.37211  0.51855  0.21045  1.0000
  H   H170      1.0  0.45106  0.61491  0.25294  1.0000
  C   C207      1.0  0.26532  0.81585  0.08117  1.0000
  P   P7        1.0  0.45190  0.59442  0.07753  1.0000
  C   C208      1.0  0.11613  0.77724  0.01256  1.0000
  C   C209      1.0  0.40172  0.79998  0.09763  1.0000
  H   H171      1.0  0.30441  0.65181  0.19480  1.0000
  H   H172      1.0  0.42979  0.68115  0.01569  1.0000
  H   H173      1.0  0.33067  0.55550  0.22461  1.0000
  C   C210      1.0  0.15329  0.78858  0.00077  1.0000
  C   C211      1.0  0.41887  0.49506  0.25166  1.0000
  H   H174      1.0  0.20748  0.73977  0.02841  1.0000
  C   C212      1.0  0.45030  0.54429  0.15751  1.0000
  C   C213      1.0  0.23842  0.75202  0.02241  1.0000
  H   H175      1.0  0.38193  0.54504  0.04779  1.0000
  C   C214      1.0  0.33840  0.54714  0.26327  1.0000
  H   H176      1.0  0.36107  0.87783  0.00022  1.0000
  H   H177      1.0  0.41779  0.65040  0.08898  1.0000
  C   C215      1.0  0.46087  0.68529  0.20141  1.0000
  H   H178      1.0  0.38767  0.57607  0.11405  1.0000
  C   C216      1.0  0.45256  0.68533  0.11867  1.0000
  H   H179      1.0  0.32992  0.76352  0.04347  1.0000
  C   C217      1.0  0.30757  0.76557  0.03122  1.0000
  H   H180      1.0  0.25850  0.73562  0.05638  1.0000
  C   C218      1.0  0.44252  0.65545  0.10139  1.0000
  C   C219      1.0  0.42811  0.85513  0.01465  1.0000
  H   H181      1.0  0.47265  0.55123  0.14299  1.0000
  H   H182      1.0  0.35002  0.79498  0.00210  1.0000
  S   S25       1.0  0.37862  0.95163  0.02336  1.0000
  C   C220      1.0  0.24987  0.77003  0.99899  1.0000
  C   C221      1.0  0.42693  0.60476  0.05143  1.0000
  H   H183      1.0  0.37433  0.96837  0.13548  1.0000
  C   C222      1.0  0.25033  0.85423  0.98528  1.0000
  H   H184      1.0  0.25081  0.84700  0.00466  1.0000
  C   C223      1.0  0.37313  0.93787  0.99211  1.0000
  H   H185      1.0  0.45781  0.89754  0.98596  1.0000
  C   C224      1.0  0.40129  0.74947  0.00096  1.0000
  H   H186      1.0  0.42996  0.50682  0.31397  1.0000
  H   H187      1.0  0.10644  0.79927  0.01838  1.0000
  H   H188      1.0  0.46320  0.52988  0.22440  1.0000
  H   H189      1.0  0.30736  0.52682  0.26624  1.0000
  H   H190      1.0  0.28019  0.91638  0.99152  1.0000
  H   H191      1.0  0.46129  0.77048  0.13231  1.0000
  C   C225      1.0  0.44943  0.78966  0.12418  1.0000
  C   C226      1.0  0.14093  0.72044  0.99728  1.0000
  H   H192      1.0  0.08459  0.67846  0.01219  1.0000
  H   H193      1.0  0.15015  0.69810  0.99142  1.0000
  C   C227      1.0  0.32281  0.69329  0.99418  1.0000
  H   H194      1.0  0.29251  0.67132  0.99157  1.0000
  H   H195      1.0  0.34264  0.51477  0.13522  1.0000
  C   C228      1.0  0.46478  0.63313  0.09990  1.0000
  C   C229      1.0  0.47280  0.54219  0.28661  1.0000
  C   C230      1.0  0.39326  0.47866  0.09814  1.0000
  C   C231      1.0  0.36580  0.47916  0.11583  1.0000
  H   H196      1.0  0.47067  0.95404  0.01269  1.0000
  H   H197      1.0  0.22656  0.49847  0.50052  1.0000
  C   C232      1.0  0.18567  0.53051  0.63878  1.0000
  H   H198      1.0  0.15806  0.53789  0.60512  1.0000
  H   H199      1.0  0.23190  0.59388  0.55660  1.0000
  H   H200      1.0  0.26531  0.60707  0.51542  1.0000
  C   C233      1.0  0.07404  0.56533  0.51796  1.0000
  H   H201      1.0  0.45549  0.56820  0.46805  1.0000
  C   C234      1.0  0.39395  0.55324  0.47822  1.0000
  C   C235      1.0  0.27480  0.51688  0.44460  1.0000
  C   C236      1.0  0.17330  0.52233  0.61410  1.0000
  C   C237      1.0  0.07755  0.49475  0.49782  1.0000
  H   H202      1.0  0.46333  0.57641  0.36616  1.0000
  C   C238      1.0  0.08135  0.52863  0.57327  1.0000
  C   C239      1.0  0.42462  0.54679  0.46667  1.0000
  C   C240      1.0  0.01962  0.58466  0.52421  1.0000
  H   H203      1.0  0.45227  0.62578  0.34023  1.0000
  H   H204      1.0  0.15881  0.56099  0.55987  1.0000
  H   H205      1.0  0.99386  0.61376  0.43435  1.0000
  C   C241      1.0  0.04809  0.56911  0.64729  1.0000
  C   C242      1.0  0.07739  0.62582  0.49962  1.0000
  C   C243      1.0  0.27226  0.50466  0.56141  1.0000
  C   C244      1.0  0.33520  0.64882  0.47853  1.0000
  C   C245      1.0  0.35582  0.66696  0.49988  1.0000
  C   C246      1.0  0.36387  0.64486  0.51820  1.0000
  C   C247      1.0  0.35111  0.60458  0.51527  1.0000
  C   C248      1.0  0.32954  0.58596  0.49413  1.0000
  C   C249      1.0  0.32228  0.60851  0.47557  1.0000
  P   P8        1.0  0.31368  0.53403  0.49023  1.0000
  C   C250      1.0  0.98818  0.63909  0.43019  1.0000
  H   H206      1.0  0.04590  0.60014  0.61386  1.0000
  C   C251      1.0  0.35386  0.52561  0.47621  1.0000
  C   C252      1.0  0.23132  0.50027  0.48068  1.0000
  C   C253      1.0  0.01686  0.67038  0.41675  1.0000
  H   H207      1.0  0.27485  0.54751  0.53440  1.0000
  C   C254      1.0  0.41551  0.51278  0.45313  1.0000
  C   C255      1.0  0.21327  0.48273  0.63739  1.0000
  H   H208      1.0  0.04416  0.66892  0.41055  1.0000
  H   H209      1.0  0.32942  0.66605  0.46418  1.0000
  C   C256      1.0  0.34513  0.49130  0.46287  1.0000
  H   H210      1.0  0.22446  0.58527  0.47730  1.0000
  H   H211      1.0  0.30673  0.59514  0.45879  1.0000
  H   H212      1.0  0.09331  0.65215  0.48866  1.0000
  H   H213      1.0  0.38023  0.65896  0.53466  1.0000
  H   H214      1.0  0.40171  0.57980  0.48853  1.0000
  H   H215      1.0  0.36589  0.69821  0.50215  1.0000
  H   H216      1.0  0.01980  0.53178  0.53905  1.0000
  H   H217      1.0  0.99093  0.57915  0.53261  1.0000
  C   C257      1.0  0.28206  0.52307  0.53820  1.0000
  C   C258      1.0  0.03263  0.57268  0.62401  1.0000
  H   H218      1.0  0.09214  0.56010  0.57183  1.0000
  C   C259      1.0  0.04006  0.61850  0.50998  1.0000
  S   S26       1.0  0.46764  0.50639  0.39422  1.0000
  H   H219      1.0  0.02703  0.63910  0.50716  1.0000
  C   C260      1.0  0.07048  0.51049  0.59652  1.0000
  H   H220      1.0  0.35817  0.58799  0.52947  1.0000
  C   C261      1.0  0.09437  0.59936  0.50358  1.0000
  C   C262      1.0  0.03634  0.55801  0.52807  1.0000
  H   H221      1.0  0.30436  0.52823  0.43620  1.0000
  H   H222      1.0  0.12326  0.60555  0.49540  1.0000
  C   C263      1.0  0.27012  0.51549  0.47048  1.0000
  C   C264      1.0  0.30033  0.50956  0.52006  1.0000
  C   C265      1.0  0.98326  0.50540  0.62699  1.0000
  H   H223      1.0  0.07372  0.52785  0.61284  1.0000
  C   C266      1.0  0.37580  0.48506  0.45125  1.0000
  C   C267      1.0  0.24123  0.50290  0.42923  1.0000
  C   C268      1.0  0.04614  0.49232  0.48221  1.0000
  P   P9        1.0  0.09476  0.53006  0.52234  1.0000
  C   C269      1.0  0.07889  0.50626  0.55221  1.0000
  C   C270      1.0  0.14892  0.55460  0.52027  1.0000
  C   C271      1.0  0.17240  0.56674  0.54166  1.0000
  C   C272      1.0  0.21419  0.58546  0.53986  1.0000
  C   C273      1.0  0.23294  0.59252  0.51668  1.0000
  C   C274      1.0  0.20991  0.58038  0.49526  1.0000
  C   C275      1.0  0.16807  0.56151  0.49701  1.0000
  H   H224      1.0  0.03232  0.72752  0.40059  1.0000
  H   H225      1.0  0.15065  0.55224  0.48023  1.0000
  C   C276      1.0  0.00000  0.54090  0.61384  1.0000
  S   S27       1.0  0.98095  0.54663  0.58480  1.0000
  H   H226      1.0  0.03083  0.51087  0.48490  1.0000
  H   H227      1.0  0.24513  0.50266  0.40934  1.0000
  C   C277      1.0  0.19786  0.48654  0.46523  1.0000
  C   C278      1.0  0.01020  0.70339  0.41114  1.0000
  C   C279      1.0  0.17956  0.49329  0.60135  1.0000
  C   C280      1.0  0.20274  0.48784  0.43954  1.0000
  H   H228      1.0  0.25773  0.51497  0.57520  1.0000
  H   H229      1.0  0.43918  0.50791  0.44398  1.0000
  S   S28       1.0  0.16329  0.48297  0.57063  1.0000
  H   H230      1.0  0.18000  0.55234  0.64869  1.0000
  Fe  Fe15      1.0  0.38608  0.80307  0.87322  1.0000
  S   S29       1.0  0.34282  0.82750  0.86128  1.0000
  C   C281      1.0  0.34743  0.69549  0.80285  1.0000
  Fe  Fe16      1.0  0.33559  0.76019  0.91781  1.0000
  S   S30       1.0  0.28985  0.78350  0.91023  1.0000
  S   S31       1.0  0.31955  0.71083  0.94567  1.0000
  Fe  Fe17      1.0  0.29398  0.76824  0.87060  1.0000
  S   S32       1.0  0.23434  0.73073  0.85265  1.0000
  Fe  Fe18      1.0  0.34248  0.84024  0.90182  1.0000
  S   S33       1.0  0.34689  0.89971  0.91166  1.0000
  S   S34       1.0  0.33725  0.74247  0.87866  1.0000
  S   S35       1.0  0.38834  0.81868  0.91326  1.0000
  Fe  Fe19      1.0  0.18187  0.61029  0.73219  1.0000
  S   S36       1.0  0.20308  0.56433  0.74191  1.0000
  S   S37       1.0  0.22210  0.67324  0.74158  1.0000
  Fe  Fe20      1.0  0.10638  0.55168  0.70675  1.0000
  S   S38       1.0  0.12271  0.50185  0.71432  1.0000
  S   S39       1.0  0.04340  0.52991  0.69176  1.0000
  Fe  Fe21      1.0  0.13889  0.52653  0.75206  1.0000
  Fe  Fe22      1.0  0.18476  0.54358  0.70323  1.0000
  H   H231      1.0  0.14161  0.68587  0.75700  1.0000
  S   S40       1.0  0.11912  0.57433  0.74569  1.0000
  S   S41       1.0  0.16759  0.59203  0.69234  1.0000
  H   H232      1.0  0.28811  0.76084  0.81021  1.0000
  H   H233      1.0  0.43162  0.92262  0.91017  1.0000
  C   C282      1.0  0.35914  0.91425  0.94248  1.0000
  C   C283      1.0  0.35741  0.88732  0.96098  1.0000
  H   H234      1.0  0.05929  0.52875  0.80284  1.0000
  H   H235      1.0  0.35023  0.85741  0.95615  1.0000
  C   C284      1.0  0.37219  0.76502  0.79344  1.0000
  C   C285      1.0  0.37578  0.92382  0.83930  1.0000
  H   H236      1.0  0.23586  0.67445  0.92876  1.0000
  P   P10       1.0  0.33752  0.65550  0.82449  1.0000
  C   C286      1.0  0.21880  0.69170  0.93047  1.0000
  C   C287      1.0  0.02941  0.55337  0.77850  1.0000
  C   C288      1.0  0.36381  0.73454  0.81062  1.0000
  H   H237      1.0  0.15905  0.68571  0.71285  1.0000
  C   C289      1.0  0.34253  0.58411  0.82227  1.0000
  C   C290      1.0  0.05999  0.62296  0.71052  1.0000
  H   H238      1.0  0.27667  0.59049  0.79694  1.0000
  C   C291      1.0  0.35749  0.55826  0.81334  1.0000
  C   C292      1.0  0.40105  0.70026  0.85532  1.0000
  C   C293      1.0  0.23189  0.71472  0.82184  1.0000
  C   C294      1.0  0.19803  0.68163  0.81423  1.0000
  C   C295      1.0  0.19541  0.66768  0.78996  1.0000
  C   C296      1.0  0.22556  0.68818  0.77269  1.0000
  C   C297      1.0  0.25846  0.72227  0.78001  1.0000
  C   C298      1.0  0.26227  0.73491  0.80467  1.0000
  H   H239      1.0  0.17411  0.66623  0.82732  1.0000
  H   H240      1.0  0.16971  0.64160  0.78446  1.0000
  H   H241      1.0  0.28107  0.73895  0.76651  1.0000
  C   C299      1.0  0.22111  0.62305  0.84631  1.0000
  H   H242      1.0  0.07281  0.59379  0.65509  1.0000
  H   H243      1.0  0.41618  0.89711  0.83242  1.0000
  H   H244      1.0  0.22610  0.81311  0.92823  1.0000
  H   H245      1.0  0.38496  0.79503  0.79974  1.0000
  C   C300      1.0  0.26280  0.64279  0.84412  1.0000
  H   H246      1.0  0.16723  0.57708  0.83199  1.0000
  H   H247      1.0  0.18884  0.67316  0.89558  1.0000
  C   C301      1.0  0.36051  0.66537  0.89912  1.0000
  C   C302      1.0  0.02365  0.55166  0.82316  1.0000
  H   H248      1.0  0.39896  0.55064  0.78818  1.0000
  C   C303      1.0  0.11857  0.66865  0.74403  1.0000
  H   H249      1.0  0.20540  0.63330  0.85930  1.0000
  C   C304      1.0  0.34229  0.65218  0.87622  1.0000
  C   C305      1.0  0.23594  0.83493  0.94249  1.0000
  H   H250      1.0  0.29962  0.79862  0.97364  1.0000
  C   C306      1.0  0.04989  0.62226  0.73565  1.0000
  H   H251      1.0  0.03137  0.54372  0.84110  1.0000
  C   C307      1.0  0.25213  0.87434  0.93524  1.0000
  C   C308      1.0  0.19965  0.59170  0.83083  1.0000
  C   C309      1.0  0.19217  0.69080  0.91184  1.0000
  C   C310      1.0  0.41151  0.91976  0.84219  1.0000
  H   H252      1.0  0.16021  0.75583  0.93530  1.0000
  C   C311      1.0  0.17086  0.71368  0.91378  1.0000
  C   C312      1.0  0.28360  0.63009  0.82725  1.0000
  C   C313      1.0  0.39865  0.69637  0.90014  1.0000
  H   H253      1.0  0.39930  0.76454  0.96235  1.0000
  C   C314      1.0  0.07950  0.64561  0.75232  1.0000
  C   C315      1.0  0.36178  0.67062  0.85414  1.0000
  C   C316      1.0  0.20484  0.74047  0.95238  1.0000
  C   C317      1.0  0.40285  0.60922  0.78609  1.0000
  C   C318      1.0  0.22514  0.71637  0.95072  1.0000
  C   C319      1.0  0.26722  0.90364  0.95295  1.0000
  H   H254      1.0  0.24678  0.71720  0.96451  1.0000
  H   H255      1.0  0.27862  0.66821  0.85542  1.0000
  C   C320      1.0  0.12845  0.66865  0.71909  1.0000
  H   H256      1.0  0.18702  0.48192  0.75200  1.0000
  H   H257      1.0  0.41200  0.70753  0.91793  1.0000
  C   C321      1.0  0.23424  0.82451  0.96766  1.0000
  C   C322      1.0  0.33746  0.68737  0.77781  1.0000
  C   C323      1.0  0.36844  0.95303  0.94879  1.0000
  C   C324      1.0  0.09918  0.64594  0.70235  1.0000
  H   H258      1.0  0.36934  0.97379  0.93455  1.0000
  S   S42       1.0  0.44162  0.81423  0.85072  1.0000
  H   H259      1.0  0.04112  0.54611  0.76192  1.0000
  C   C325      1.0  0.38291  0.74597  0.97772  1.0000
  H   H260      1.0  0.25482  0.88226  0.91574  1.0000
  S   S43       1.0  0.22179  0.52063  0.68120  1.0000
  C   C326      1.0  0.03047  0.53394  0.66074  1.0000
  C   C327      1.0  0.17667  0.73798  0.93416  1.0000
  H   H261      1.0  0.36987  0.74185  0.82989  1.0000
  H   H262      1.0  0.46770  0.93969  0.86099  1.0000
  C   C328      1.0  0.21992  0.58007  0.81314  1.0000
  C   C329      1.0  0.34358  0.71780  0.97438  1.0000
  C   C330      1.0  0.26170  0.59936  0.81119  1.0000
  H   H263      1.0  0.15077  0.71337  0.89906  1.0000
  H   H264      1.0  0.20306  0.55645  0.80069  1.0000
  S   S44       1.0  0.12131  0.48898  0.78678  1.0000
  H   H265      1.0  0.34453  0.65254  0.91616  1.0000
  H   H266      1.0  0.31939  0.57412  0.83645  1.0000
  H   H267      1.0  0.03820  0.60509  0.69723  1.0000
  C   C331      1.0  0.99300  0.66399  0.75046  1.0000
  C   C332      1.0  0.38751  0.57074  0.79517  1.0000
  C   C333      1.0  0.99840  0.50215  0.65038  1.0000
  C   C334      1.0  0.46152  0.93504  0.91780  1.0000
  H   H268      1.0  0.28119  0.93411  0.94715  1.0000
  C   C335      1.0  0.36930  0.95205  0.85273  1.0000
  C   C336      1.0  0.03927  0.54313  0.80165  1.0000
  P   P11       1.0  0.21378  0.77383  0.97780  1.0000
  C   C337      1.0  0.35713  0.62251  0.81282  1.0000
  H   H269      1.0  0.02529  0.67856  0.74861  1.0000
  H   H270      1.0  0.07265  0.64567  0.77181  1.0000
  H   H271      1.0  0.31270  0.62824  0.87593  1.0000
  H   H272      1.0  0.35263  0.90428  0.82725  1.0000
  C   C338      1.0  0.37572  0.96488  0.97353  1.0000
  H   H273      1.0  0.42629  0.61897  0.77212  1.0000
  H   H274      1.0  0.34573  0.52851  0.82049  1.0000
  H   H275      1.0  0.45213  0.88207  0.93773  1.0000
  H   H276      1.0  0.32290  0.65742  0.77156  1.0000
  C   C339      1.0  0.38793  0.63514  0.79498  1.0000
  H   H277      1.0  0.44842  0.73799  0.87901  1.0000
  H   H278      1.0  0.10717  0.64556  0.68310  1.0000
  H   H279      1.0  0.41733  0.71418  0.83859  1.0000
  C   C340      1.0  0.99841  0.57072  0.82149  1.0000
  C   C341      1.0  0.44074  0.94399  0.85843  1.0000
  C   C342      1.0  0.36335  0.75674  0.76843  1.0000
  C   C343      1.0  0.00508  0.57346  0.77664  1.0000
  C   C344      1.0  0.34563  0.71788  0.76066  1.0000
  C   C345      1.0  0.47295  0.91191  0.93349  1.0000
  H   H280      1.0  0.34098  0.95415  0.85123  1.0000
  C   C346      1.0  0.41909  0.71351  0.87824  1.0000
  H   H281      1.0  0.98751  0.71840  0.75325  1.0000
  P   P12       1.0  0.99948  0.59287  0.74687  1.0000
  H   H282      1.0  0.36893  0.78032  0.75522  1.0000
  H   H283      1.0  0.33693  0.71127  0.74149  1.0000
  H   H284      1.0  0.40052  0.66496  0.78796  1.0000
  C   C347      1.0  0.26661  0.89360  0.97795  1.0000
  C   C348      1.0  0.43492  0.97298  0.87166  1.0000
  C   C349      1.0  0.20581  0.51079  0.65042  1.0000
  H   H285      1.0  0.47621  0.86533  0.80975  1.0000
  C   C350      1.0  0.98938  0.58192  0.79833  1.0000
  C   C351      1.0  0.39869  0.97653  0.86889  1.0000
  H   H286      1.0  0.98653  0.57757  0.83820  1.0000
  H   H287      1.0  0.60347  0.40129  0.12077  1.0000
  C   C352      1.0  0.58930  0.02516  0.00477  1.0000
  C   C353      1.0  0.55814  0.35172  0.10271  1.0000
  H   H288      1.0  0.81130  0.12765  0.02342  1.0000
  H   H289      1.0  0.77566  0.45923  0.19727  1.0000
  C   C354      1.0  0.72598  0.44008  0.27371  1.0000
  C   C355      1.0  0.62669  0.37980  0.30024  1.0000
  H   H290      1.0  0.73145  0.36432  0.12856  1.0000
  S   S45       1.0  0.54786  0.38950  0.23789  1.0000
  C   C356      1.0  0.50307  0.44740  0.16096  1.0000
  H   H291      1.0  0.64888  0.44226  0.30197  1.0000
  C   C357      1.0  0.51099  0.37295  0.02857  1.0000
  S   S46       1.0  0.50996  0.11133  0.05246  1.0000
  H   H292      1.0  0.56787  0.29069  0.15844  1.0000
  C   C358      1.0  0.53724  0.28953  0.12431  1.0000
  C   C359      1.0  0.74096  0.38510  0.14354  1.0000
  C   C360      1.0  0.51486  0.34235  0.04144  1.0000
  H   H293      1.0  0.55079  0.24774  0.08851  1.0000
  C   C361      1.0  0.61062  0.15183  0.01535  1.0000
  H   H294      1.0  0.82481  0.45798  0.16692  1.0000
  S   S47       1.0  0.55808  0.04631  0.07796  1.0000
  H   H295      1.0  0.58660  0.15650  0.02405  1.0000
  C   C362      1.0  0.57909  0.38505  0.26107  1.0000
  C   C363      1.0  0.57721  0.34860  0.26832  1.0000
  C   C364      1.0  0.60128  0.34602  0.28779  1.0000
  C   C365      1.0  0.62886  0.41616  0.29273  1.0000
  C   C366      1.0  0.60533  0.41883  0.27312  1.0000
  H   H296      1.0  0.55703  0.32243  0.25915  1.0000
  C   C367      1.0  0.50033  0.25020  0.03603  1.0000
  H   H297      1.0  0.60689  0.44708  0.26761  1.0000
  C   C368      1.0  0.56542  0.30774  0.14277  1.0000
  C   C369      1.0  0.62560  0.02919  0.01546  1.0000
  C   C370      1.0  0.71083  0.43882  0.22984  1.0000
  C   C371      1.0  0.58953  0.30752  0.21154  1.0000
  C   C372      1.0  0.60680  0.28192  0.21714  1.0000
  C   C373      1.0  0.64841  0.29621  0.21906  1.0000
  C   C374      1.0  0.67270  0.33602  0.21499  1.0000
  C   C375      1.0  0.65549  0.36189  0.20907  1.0000
  C   C376      1.0  0.61359  0.34741  0.20775  1.0000
  P   P13       1.0  0.68778  0.41260  0.20213  1.0000
  C   C377      1.0  0.72480  0.41251  0.18020  1.0000
  C   C378      1.0  0.65974  0.43719  0.18859  1.0000
  H   H298      1.0  0.58258  0.01379  0.11870  1.0000
  C   C379      1.0  0.51623  0.38173  0.30384  1.0000
  C   C380      1.0  0.71104  0.08314  0.01133  1.0000
  H   H299      1.0  0.80313  0.41065  0.13246  1.0000
  C   C381      1.0  0.63108  0.17492  0.99504  1.0000
  C   C382      1.0  0.71280  0.38572  0.16069  1.0000
  S   S48       1.0  0.50151  0.32036  0.18313  1.0000
  H   H300      1.0  0.65905  0.02770  0.11036  1.0000
  C   C383      1.0  0.76542  0.43850  0.18236  1.0000
  C   C384      1.0  0.68555  0.12271  0.09392  1.0000
  C   C385      1.0  0.49923  0.46690  0.13963  1.0000
  C   C386      1.0  0.50206  0.17699  0.13749  1.0000
  H   H301      1.0  0.48165  0.39235  0.18088  1.0000
  H   H302      1.0  0.49933  0.14379  0.10456  1.0000
  H   H303      1.0  0.68737  0.14421  0.05684  1.0000
  C   C387      1.0  0.63367  0.44580  0.20364  1.0000
  H   H304      1.0  0.55732  0.29629  0.21011  1.0000
  H   H305      1.0  0.58771  0.25102  0.21996  1.0000
  H   H306      1.0  0.66176  0.27636  0.22364  1.0000
  H   H307      1.0  0.70494  0.34667  0.21637  1.0000
  H   H308      1.0  0.59913  0.36644  0.20363  1.0000
  C   C388      1.0  0.48357  0.38700  0.03669  1.0000
  C   C389      1.0  0.53764  0.21130  0.03050  1.0000
  C   C390      1.0  0.70760  0.41912  0.25255  1.0000
  H   H309      1.0  0.51847  0.39731  0.28659  1.0000
  H   H310      1.0  0.54586  0.19245  0.01908  1.0000
  C   C391      1.0  0.49077  0.32509  0.06233  1.0000
  S   S49       1.0  0.50593  0.22067  0.17871  1.0000
  C   C392      1.0  0.54039  0.24301  0.06961  1.0000
  H   H311      1.0  0.59959  0.31780  0.29353  1.0000
  C   C393      1.0  0.56015  0.98815  0.99857  1.0000
  C   C394      1.0  0.78537  0.09607  0.99022  1.0000
  C   C395      1.0  0.55685  0.99962  0.08241  1.0000
  H   H312      1.0  0.53710  0.33264  0.03532  1.0000
  Fe  Fe23      1.0  0.50017  0.33394  0.22320  1.0000
  C   C396      1.0  0.66562  0.05316  0.09860  1.0000
  C   C397      1.0  0.66090  0.16771  0.98312  1.0000
  Fe  Fe24      1.0  0.50747  0.05113  0.05710  1.0000
  C   C398      1.0  0.51177  0.22650  0.02120  1.0000
  C   C399      1.0  0.51513  0.25925  0.06025  1.0000
  H   H313      1.0  0.51808  0.25851  0.12599  1.0000
  C   C400      1.0  0.66016  0.04867  0.07301  1.0000
  H   H314      1.0  0.66055  0.99819  0.02688  1.0000
  C   C401      1.0  0.58924  0.34801  0.14152  1.0000
  C   C402      1.0  0.78131  0.41116  0.14575  1.0000
  C   C403      1.0  0.78381  0.11097  0.01355  1.0000
  C   C404      1.0  0.66781  0.08131  0.05757  1.0000
  H   H315      1.0  0.69468  0.15128  0.10205  1.0000
  C   C405      1.0  0.67047  0.13758  0.99158  1.0000
  H   H316      1.0  0.60996  0.36226  0.15628  1.0000
  H   H317      1.0  0.68452  0.44324  0.15148  1.0000
  H   H318      1.0  0.64916  0.01955  0.06566  1.0000
  C   C406      1.0  0.67790  0.09006  0.10908  1.0000
  H   H319      1.0  0.60381  0.10396  0.03963  1.0000
  C   C407      1.0  0.53368  0.31125  0.10396  1.0000
  C   C408      1.0  0.48247  0.15252  0.11759  1.0000
  H   H320      1.0  0.54096  0.45971  0.26846  1.0000
  H   H321      1.0  0.68162  0.36529  0.15875  1.0000
  C   C409      1.0  0.62025  0.12186  0.02398  1.0000
  H   H322      1.0  0.68093  0.09322  0.12898  1.0000
  H   H323      1.0  0.49988  0.21894  0.00267  1.0000
  C   C410      1.0  0.65049  0.11471  0.01229  1.0000
  P   P14       1.0  0.66335  0.07662  0.02423  1.0000
  C   C411      1.0  0.66392  0.44852  0.16347  1.0000
  H   H324      1.0  0.74633  0.11692  0.04198  1.0000
  H   H325      1.0  0.52488  0.46305  0.17486  1.0000
  H   H326      1.0  0.64515  0.47679  0.13441  1.0000
  H   H327      1.0  0.52958  0.38604  0.01245  1.0000
  C   C412      1.0  0.61066  0.46371  0.19365  1.0000
  H   H328      1.0  0.53403  0.18687  0.13975  1.0000
  C   C413      1.0  0.58554  0.36998  0.12153  1.0000
  H   H329      1.0  0.49858  0.99964  0.12037  1.0000
  S   S50       1.0  0.49069  0.03365  0.01774  1.0000
  H   H330      1.0  0.69013  0.38783  0.25432  1.0000
  H   H331      1.0  0.63084  0.43834  0.22316  1.0000
  H   H332      1.0  0.57066  0.20631  0.06217  1.0000
  H   H333      1.0  0.62276  0.19740  0.98795  1.0000
  C   C414      1.0  0.68090  0.11846  0.06828  1.0000
  H   H334      1.0  0.58324  0.05035  0.00117  1.0000
  C   C415      1.0  0.74681  0.10468  0.02406  1.0000
  H   H335      1.0  0.72255  0.42485  0.29132  1.0000
  H   H336      1.0  0.55587  0.36953  0.08750  1.0000
  P   P15       1.0  0.49763  0.28734  0.07994  1.0000
  C   C416      1.0  0.55175  0.21933  0.05472  1.0000
  Fe  Fe25      1.0  0.48768  0.09151  0.01416  1.0000
  S   S51       1.0  0.48154  0.27194  0.23617  1.0000
  C   C417      1.0  0.71287  0.06815  0.98792  1.0000
  C   C418      1.0  0.79352  0.43781  0.16515  1.0000
  C   C419      1.0  0.61470  0.47480  0.16868  1.0000
  H   H337      1.0  0.53239  0.98539  0.99021  1.0000
  C   C420      1.0  0.64159  0.46750  0.15364  1.0000
  C   C421      1.0  0.49130  0.34180  0.30539  1.0000
  C   C422      1.0  0.63237  0.99567  0.01941  1.0000
  H   H338      1.0  0.59004  0.46925  0.20555  1.0000
  C   C423      1.0  0.57172  0.99169  0.10457  1.0000
  H   H339      1.0  0.48643  0.44908  0.24045  1.0000
  C   C424      1.0  0.48053  0.18916  0.15424  1.0000
  H   H340      1.0  0.50176  0.46119  0.30577  1.0000
  H   H341      1.0  0.48082  0.41093  0.02685  1.0000
  C   C425      1.0  0.47853  0.40727  0.16435  1.0000
  H   H342      1.0  0.47914  0.26060  0.02881  1.0000
  C   C426      1.0  0.97448  0.34873  0.64306  1.0000
  S   S52       1.0  0.68152  0.42435  0.38945  1.0000
  C   C427      1.0  0.61284  0.29429  0.40116  1.0000
  C   C428      1.0  0.96577  0.38973  0.61118  1.0000
  H   H343      1.0  0.54061  0.34601  0.42662  1.0000
  C   C429      1.0  0.81176  0.18017  0.62423  1.0000
  H   H344      1.0  0.55947  0.43181  0.32269  1.0000
  Fe  Fe26      1.0  0.67731  0.43080  0.34836  1.0000
  H   H345      1.0  0.93189  0.27233  0.53065  1.0000
  C   C430      1.0  0.66954  0.41107  0.45257  1.0000
  H   H346      1.0  0.60786  0.39862  0.44563  1.0000
  H   H347      1.0  0.93484  0.21052  0.60268  1.0000
  S   S53       1.0  0.84627  0.41206  0.53161  1.0000
  C   C431      1.0  0.95773  0.22716  0.58926  1.0000
  H   H348      1.0  0.53321  0.39228  0.45564  1.0000
  S   S54       1.0  0.92901  0.43450  0.56392  1.0000
  H   H349      1.0  0.56930  0.45790  0.37579  1.0000
  Fe  Fe27      1.0  0.86307  0.41347  0.57150  1.0000
  S   S55       1.0  0.82787  0.36015  0.59491  1.0000
  C   C432      1.0  0.53599  0.38062  0.34640  1.0000
  C   C433      1.0  0.96394  0.36804  0.47548  1.0000
  H   H350      1.0  0.51016  0.47071  0.36539  1.0000
  S   S56       1.0  0.93181  0.41699  0.49040  1.0000
  H   H351      1.0  0.66090  0.27491  0.50924  1.0000
  H   H352      1.0  0.62909  0.20295  0.50568  1.0000
  C   C434      1.0  0.54252  0.28006  0.40546  1.0000
  C   C435      1.0  0.85202  0.36287  0.62317  1.0000
  C   C436      1.0  0.84299  0.32906  0.63762  1.0000
  H   H353      1.0  0.95404  0.28787  0.63449  1.0000
  H   H354      1.0  0.82034  0.30129  0.63152  1.0000
  H   H355      1.0  0.64526  0.33672  0.37284  1.0000
  C   C437      1.0  0.62853  0.38682  0.45176  1.0000
  H   H356      1.0  0.51399  0.26420  0.41476  1.0000
  C   C438      1.0  0.54622  0.30714  0.38643  1.0000
  H   H357      1.0  0.94680  0.36523  0.45877  1.0000
  H   H358      1.0  0.58250  0.32878  0.45814  1.0000
  C   C439      1.0  0.57573  0.27371  0.41279  1.0000
  C   C440      1.0  0.48880  0.40098  0.43384  1.0000
  H   H359      1.0  0.55389  0.39582  0.36206  1.0000
  C   C441      1.0  0.61660  0.32093  0.38206  1.0000
  C   C442      1.0  0.50987  0.34075  0.34843  1.0000
  H   H360      1.0  0.68045  0.44161  0.44706  1.0000
  C   C443      1.0  0.83119  0.21665  0.63535  1.0000
  C   C444      1.0  0.95846  0.26127  0.57809  1.0000
  C   C445      1.0  0.83320  0.37349  0.45300  1.0000
  C   C446      1.0  0.83075  0.38236  0.42804  1.0000
  C   C447      1.0  0.79430  0.37900  0.41830  1.0000
  C   C448      1.0  0.76017  0.36632  0.43341  1.0000
  C   C449      1.0  0.76240  0.35741  0.45855  1.0000
  C   C450      1.0  0.79917  0.36095  0.46821  1.0000
  P   P16       1.0  0.71761  0.33741  0.47751  1.0000
  C   C451      1.0  0.68251  0.35645  0.46730  1.0000
  C   C452      1.0  0.69467  0.28472  0.47501  1.0000
  C   C453      1.0  0.66785  0.26147  0.49339  1.0000
  C   C454      1.0  0.64962  0.22071  0.49138  1.0000
  C   C455      1.0  0.65783  0.20288  0.47093  1.0000
  C   C456      1.0  0.68421  0.22582  0.45246  1.0000
  C   C457      1.0  0.70253  0.26659  0.45444  1.0000
  C   C458      1.0  0.69644  0.39590  0.46014  1.0000
  C   C459      1.0  0.64114  0.33229  0.46656  1.0000
  C   C460      1.0  0.73123  0.35140  0.50930  1.0000
  C   C461      1.0  0.74081  0.32701  0.52533  1.0000
  C   C462      1.0  0.75079  0.33748  0.54999  1.0000
  C   C463      1.0  0.75216  0.37270  0.55874  1.0000
  C   C464      1.0  0.74375  0.39760  0.54278  1.0000
  C   C465      1.0  0.73345  0.38712  0.51815  1.0000
  H   H361      1.0  0.86165  0.37691  0.46069  1.0000
  H   H362      1.0  0.85731  0.39288  0.41642  1.0000
  H   H363      1.0  0.79265  0.38727  0.39917  1.0000
  H   H364      1.0  0.73225  0.36384  0.42542  1.0000
  H   H365      1.0  0.80182  0.35431  0.48748  1.0000
  H   H366      1.0  0.64372  0.17129  0.46938  1.0000
  H   H367      1.0  0.69052  0.21202  0.43657  1.0000
  H   H368      1.0  0.72274  0.28377  0.43986  1.0000
  H   H369      1.0  0.72816  0.41493  0.46050  1.0000
  H   H370      1.0  0.62933  0.30180  0.47193  1.0000
  H   H371      1.0  0.74112  0.30016  0.51879  1.0000
  H   H372      1.0  0.75853  0.31885  0.56229  1.0000
  H   H373      1.0  0.76104  0.38126  0.57768  1.0000
  H   H374      1.0  0.74629  0.42562  0.54929  1.0000
  H   H375      1.0  0.72807  0.40749  0.50614  1.0000
  C   C466      1.0  0.51509  0.38403  0.43909  1.0000
  C   C467      1.0  0.61432  0.34747  0.45876  1.0000
  C   C468      1.0  0.53903  0.40109  0.32421  1.0000
  C   C469      1.0  0.94928  0.35754  0.59558  1.0000
  C   C470      1.0  0.94377  0.32025  0.60409  1.0000
  S   S57       1.0  0.61409  0.46790  0.42184  1.0000
  P   P17       1.0  0.92019  0.27763  0.58505  1.0000
  C   C471      1.0  0.87810  0.23966  0.60078  1.0000
  C   C472      1.0  0.89923  0.28979  0.55777  1.0000
  C   C473      1.0  0.87054  0.30473  0.56076  1.0000
  C   C474      1.0  0.85537  0.31667  0.54020  1.0000
  C   C475      1.0  0.86819  0.31313  0.51641  1.0000
  C   C476      1.0  0.89533  0.29656  0.51318  1.0000
  C   C477      1.0  0.91077  0.28479  0.53374  1.0000
  C   C478      1.0  0.85802  0.20315  0.58953  1.0000
  C   C479      1.0  0.82511  0.17345  0.60129  1.0000
  P   P18       1.0  0.50339  0.31620  0.37808  1.0000
  Fe  Fe28      1.0  0.91229  0.43805  0.52442  1.0000
  C   C480      1.0  0.86413  0.24633  0.62365  1.0000
  H   H376      1.0  0.57274  0.25294  0.42753  1.0000
  C   C481      1.0  0.88087  0.39879  0.63116  1.0000
  C   C482      1.0  0.51928  0.35784  0.42247  1.0000
  C   C483      1.0  0.49707  0.34840  0.40045  1.0000
  H   H377      1.0  0.94047  0.36194  0.57714  1.0000
  H   H378      1.0  0.63870  0.28965  0.40683  1.0000
  H   H379      1.0  0.86083  0.30821  0.57915  1.0000
  H   H380      1.0  0.83431  0.32944  0.54289  1.0000
  H   H381      1.0  0.85755  0.32368  0.50051  1.0000
  H   H382      1.0  0.90525  0.29374  0.49473  1.0000
  Fe  Fe29      1.0  0.74151  0.47537  0.38569  1.0000
  H   H383      1.0  0.86797  0.19775  0.57167  1.0000
  H   H384      1.0  0.80988  0.14530  0.59255  1.0000
  H   H385      1.0  0.58730  0.34823  0.35986  1.0000
  H   H386      1.0  0.88775  0.42501  0.62017  1.0000
  H   H387      1.0  0.87831  0.27440  0.63249  1.0000
  C   C484      1.0  0.58349  0.32741  0.37470  1.0000
  H   H388      1.0  0.78623  0.15727  0.63335  1.0000
  S   S58       1.0  0.65555  0.37655  0.32524  1.0000
  C   C485      1.0  0.95750  0.31628  0.62772  1.0000
  C   C486      1.0  0.82317  0.46728  0.45092  1.0000
  H   H389      1.0  0.96853  0.41817  0.60510  1.0000
  C   C487      1.0  0.48752  0.32139  0.32769  1.0000
  C   C488      1.0  0.96129  0.39118  0.49481  1.0000
  H   H390      1.0  0.49027  0.24161  0.35637  1.0000
  H   H391      1.0  0.93431  0.46140  0.43427  1.0000
  C   C489      1.0  0.55701  0.47046  0.38940  1.0000
  Fe  Fe30      1.0  0.65699  0.46937  0.39178  1.0000
  H   H392      1.0  0.84103  0.45549  0.44128  1.0000
  S   S59       1.0  0.64677  0.47104  0.35101  1.0000
  Fe  Fe31      1.0  0.85434  0.47346  0.53730  1.0000
  H   H393      1.0  0.48634  0.42208  0.44635  1.0000
  C   C490      1.0  0.52367  0.47796  0.38348  1.0000
  H   H394      1.0  0.84785  0.46363  0.48645  1.0000
  S   S60       1.0  0.79514  0.47398  0.40516  1.0000
  C   C491      1.0  0.82678  0.47161  0.47663  1.0000
  S   S61       1.0  0.86580  0.47315  0.57815  1.0000
  Fe  Fe32      1.0  0.72352  0.07369  0.86791  1.0000
  S   S62       1.0  0.66791  0.08126  0.85909  1.0000
  S   S63       1.0  0.78381  0.10215  0.84828  1.0000
  Fe  Fe33      1.0  0.68417  0.02084  0.91259  1.0000
  H   H395      1.0  0.54708  0.01951  0.91972  1.0000
  C   C492      1.0  0.90941  0.00007  0.72497  1.0000
  Fe  Fe34      1.0  0.66305  0.08812  0.90007  1.0000
  S   S64       1.0  0.65280  0.13932  0.91361  1.0000
  C   C493      1.0  0.90110  0.40082  0.65338  1.0000
  S   S65       1.0  0.72139  0.08540  0.90841  1.0000
  H   H396      1.0  0.86097  0.15583  0.66512  1.0000
  H   H397      1.0  0.96000  0.21320  0.80617  1.0000
  S   S66       1.0  0.93336  0.22470  0.73584  1.0000
  H   H398      1.0  0.71174  0.04524  0.81664  1.0000
  Fe  Fe35      1.0  0.92370  0.31473  0.70726  1.0000
  S   S67       1.0  0.88822  0.25413  0.69320  1.0000
  S   S68       1.0  0.92219  0.37073  0.69395  1.0000
  Fe  Fe36      1.0  0.87838  0.23605  0.73343  1.0000
  S   S69       1.0  0.81502  0.19750  0.74668  1.0000
  Fe  Fe37      1.0  0.94613  0.24820  0.69673  1.0000
  C   C494      1.0  0.94780  0.05554  0.76131  1.0000
  S   S70       1.0  0.90977  0.29738  0.74703  1.0000
  C   C495      1.0  0.52652  0.02914  0.85185  1.0000
  H   H399      1.0  0.81767  0.27408  0.76718  1.0000
  H   H400      1.0  0.58959  0.13186  0.87869  1.0000
  H   H401      1.0  0.85749  0.30499  0.67060  1.0000
  H   H402      1.0  0.55924  0.18736  0.94564  1.0000
  H   H403      1.0  0.85560  0.14942  0.82196  1.0000
  C   C496      1.0  0.54745  0.13117  0.96185  1.0000
  H   H404      1.0  0.96234  0.07623  0.77586  1.0000
  C   C497      1.0  0.61024  0.13335  0.93117  1.0000
  C   C498      1.0  0.58928  0.10043  0.94634  1.0000
  C   C499      1.0  0.55795  0.09947  0.96185  1.0000
  H   H405      1.0  0.77644  0.39938  0.85565  1.0000
  C   C500      1.0  0.56730  0.16294  0.94583  1.0000
  C   C501      1.0  0.59881  0.16425  0.93086  1.0000
  H   H406      1.0  0.59822  0.07659  0.94683  1.0000
  C   C502      1.0  0.57169  0.10329  0.87109  1.0000
  H   H407      1.0  0.61484  0.18970  0.91921  1.0000
  C   C503      1.0  0.79169  0.13007  0.82063  1.0000
  C   C504      1.0  0.75993  0.13188  0.80735  1.0000
  C   C505      1.0  0.76739  0.15278  0.78472  1.0000
  C   C506      1.0  0.80670  0.17279  0.77556  1.0000
  C   C507      1.0  0.83850  0.17200  0.78922  1.0000
  C   C508      1.0  0.83096  0.15032  0.81153  1.0000
  H   H408      1.0  0.72968  0.11708  0.81444  1.0000
  H   H409      1.0  0.74265  0.15358  0.77432  1.0000
  H   H410      1.0  0.86882  0.18818  0.78250  1.0000
  H   H411      1.0  0.75121  0.06352  0.95925  1.0000
  H   H412      1.0  0.67024  0.06902  0.79145  1.0000
  H   H413      1.0  0.75736  0.02827  0.77655  1.0000
  C   C509      1.0  0.58131  0.09366  0.84791  1.0000
  H   H414      1.0  0.61149  0.02188  0.76872  1.0000
  C   C510      1.0  0.78800  0.03994  0.78304  1.0000
  C   C511      1.0  0.81983  0.05732  0.76629  1.0000
  H   H415      1.0  0.84592  0.13279  0.74323  1.0000
  C   C512      1.0  0.79566  0.03860  0.80828  1.0000
  C   C513      1.0  0.82062  0.37635  0.85231  1.0000
  H   H416      1.0  0.60681  0.11465  0.83767  1.0000
  C   C514      1.0  0.86410  0.33108  0.65961  1.0000
  C   C515      1.0  0.93478  0.16103  0.78417  1.0000
  C   C516      1.0  0.53971  0.07585  0.88479  1.0000
  H   H417      1.0  0.81324  0.05774  0.74680  1.0000
  H   H418      1.0  0.77112  0.02629  0.82145  1.0000
  C   C517      1.0  0.83512  0.05445  0.81678  1.0000
  H   H419      1.0  0.87302  0.03117  0.71873  1.0000
  C   C518      1.0  0.63011  0.01148  0.77927  1.0000
  C   C519      1.0  0.91610  0.28032  0.81832  1.0000
  C   C520      1.0  0.88270  0.24897  0.82829  1.0000
  C   C521      1.0  0.84473  0.24867  0.82651  1.0000
  C   C522      1.0  0.84012  0.27976  0.81481  1.0000
  C   C523      1.0  0.87351  0.31135  0.80463  1.0000
  C   C524      1.0  0.91165  0.31149  0.80665  1.0000
  P   P19       1.0  0.86709  0.35135  0.78944  1.0000
  C   C525      1.0  0.83885  0.36741  0.81030  1.0000
  C   C526      1.0  0.91606  0.39127  0.78445  1.0000
  C   C527      1.0  0.93510  0.39710  0.76123  1.0000
  C   C528      1.0  0.66317  0.03807  0.79210  1.0000
  H   H420      1.0  0.84076  0.05421  0.83647  1.0000
  C   C529      1.0  0.96583  0.19564  0.79234  1.0000
  C   C530      1.0  0.93692  0.41486  0.80427  1.0000
  C   C531      1.0  0.84300  0.36479  0.83604  1.0000
  Fe  Fe38      1.0  0.96559  0.28793  0.74640  1.0000
  H   H421      1.0  0.90728  0.47291  0.67978  1.0000
  C   C532      1.0  0.78984  0.39365  0.81747  1.0000
  C   C533      1.0  0.81216  0.38207  0.80114  1.0000
  C   C534      1.0  0.84096  0.33673  0.76020  1.0000
  C   C535      1.0  0.84309  0.36532  0.74257  1.0000
  C   C536      1.0  0.82513  0.35436  0.71941  1.0000
  C   C537      1.0  0.80435  0.31482  0.71372  1.0000
  C   C538      1.0  0.80134  0.28620  0.73126  1.0000
  C   C539      1.0  0.81945  0.29701  0.75440  1.0000
  S   S71       1.0  0.58744  0.98136  0.83976  1.0000
  H   H422      1.0  0.88607  0.22460  0.83708  1.0000
  H   H423      1.0  0.81875  0.22389  0.83382  1.0000
  H   H424      1.0  0.81042  0.27891  0.81342  1.0000
  H   H425      1.0  0.93803  0.33502  0.79874  1.0000
  H   H426      1.0  0.92070  0.37851  0.74583  1.0000
  H   H427      1.0  0.68575  0.05175  0.97756  1.0000
  H   H428      1.0  0.56722  0.04844  0.82081  1.0000
  H   H429      1.0  0.82071  0.22213  0.65303  1.0000
  H   H430      1.0  0.92362  0.41024  0.82255  1.0000
  H   H431      1.0  0.86335  0.35355  0.84361  1.0000
  H   H432      1.0  0.90522  0.15202  0.79200  1.0000
  H   H433      1.0  0.67557  0.18450  0.96669  1.0000
  C   C540      1.0  0.51633  0.03862  0.87512  1.0000
  H   H434      1.0  0.80815  0.38433  0.78146  1.0000
  H   H435      1.0  0.85978  0.39613  0.74639  1.0000
  H   H436      1.0  0.82849  0.37650  0.70549  1.0000
  H   H437      1.0  0.79131  0.30640  0.69554  1.0000
  H   H438      1.0  0.78588  0.25546  0.72674  1.0000
  H   H439      1.0  0.53353  0.08384  0.90298  1.0000
  C   C541      1.0  0.79400  0.39072  0.84303  1.0000
  S   S72       1.0  0.62532  0.02451  0.90762  1.0000
  C   C542      1.0  0.95953  0.02542  0.75700  1.0000
  Fe  Fe39      1.0  0.63457  0.01673  0.86740  1.0000
  H   H440      1.0  0.93058  0.45497  0.71891  1.0000
  C   C543      1.0  0.86702  0.07191  0.80009  1.0000
  H   H441      1.0  0.82370  0.37384  0.87213  1.0000
  S   S73       1.0  0.69101  0.00837  0.87282  1.0000
  H   H442      1.0  0.76903  0.40459  0.81026  1.0000
  H   H443      1.0  0.91058  0.12777  0.66365  1.0000
  C   C544      1.0  0.55888  0.05653  0.83837  1.0000
  C   C545      1.0  0.89760  0.03015  0.72926  1.0000
  H   H444      1.0  0.92839  0.10219  0.70164  1.0000
  C   C546      1.0  0.90526  0.11266  0.70252  1.0000
  C   C547      1.0  0.91747  0.05871  0.74699  1.0000
  H   H445      1.0  0.82834  0.15778  0.70494  1.0000
  S   S74       1.0  0.96502  0.21580  0.66841  1.0000
  C   C548      1.0  0.68654  0.02464  0.80630  1.0000
  P   P20       1.0  0.90093  0.09635  0.75327  1.0000
  C   C549      1.0  0.89517  0.12702  0.68088  1.0000
  C   C550      1.0  0.86727  0.14303  0.68171  1.0000
  C   C551      1.0  0.84916  0.14438  0.70416  1.0000
  C   C552      1.0  0.94170  0.13913  0.76547  1.0000
  C   C553      1.0  0.85908  0.12996  0.72585  1.0000
  H   H446      1.0  0.92367  0.42842  0.65932  1.0000
  C   C554      1.0  0.89361  0.36699  0.66732  1.0000
  C   C555      1.0  0.85958  0.07435  0.77478  1.0000
  C   C556      1.0  0.88666  0.11328  0.72511  1.0000
  H   H447      1.0  0.89739  0.08401  0.80704  1.0000
  C   C557      1.0  0.67683  0.98461  0.80775  1.0000
  H   H448      1.0  0.54249  0.07469  0.97404  1.0000
  H   H449      1.0  0.51032  0.00053  0.84409  1.0000
  S   S75       1.0  0.69651  0.98805  0.94416  1.0000
  C   C558      1.0  0.52647  0.98930  0.92313  1.0000
  H   H450      1.0  0.94552  0.28034  0.81923  1.0000
  C   C559      1.0  0.94052  0.99783  0.73873  1.0000
  C   C560      1.0  0.74996  0.07481  0.97743  1.0000
  C   C561      1.0  0.97596  0.44381  0.80082  1.0000
  C   C562      1.0  0.97372  0.42654  0.75771  1.0000
  H   H451      1.0  0.69299  0.13206  0.98162  1.0000
  H   H452      1.0  0.81397  0.10110  0.98193  1.0000
  S   S76       1.0  0.51148  0.13409  0.98224  1.0000
  H   H453      1.0  0.89436  0.97842  0.71100  1.0000
  Fe  Fe40      1.0  0.56176  0.55287  0.16738  1.0000
  S   S77       1.0  0.62741  0.59153  0.16281  1.0000
  C   C563      1.0  0.55193  0.60798  0.03750  1.0000
  S   S78       1.0  0.62253  0.62615  0.21748  1.0000
  Fe  Fe41      1.0  0.61216  0.63865  0.17809  1.0000
  S   S79       1.0  0.63149  0.70093  0.16475  1.0000
  Fe  Fe42      1.0  0.63112  0.57520  0.20266  1.0000
  S   S80       1.0  0.67770  0.55591  0.21632  1.0000
  S   S81       1.0  0.56624  0.53293  0.20613  1.0000
  C   C564      1.0  0.54934  0.56875  0.07377  1.0000
  H   H454      1.0  0.71728  0.77121  0.11700  1.0000
  S   S82       1.0  0.58286  0.82513  0.04218  1.0000
  Fe  Fe43      1.0  0.54697  0.76155  0.05193  1.0000
  C   C565      1.0  0.81526  0.86024  0.00674  1.0000
  C   C566      1.0  0.69644  0.70055  0.28709  1.0000
  C   C567      1.0  0.58563  0.71125  0.08761  1.0000
  C   C568      1.0  0.68271  0.52879  0.26282  1.0000
  H   H455      1.0  0.59322  0.76856  0.09872  1.0000
  C   C569      1.0  0.68947  0.86617  0.05313  1.0000
  C   C570      1.0  0.48242  0.54893  0.26146  1.0000
  H   H456      1.0  0.51288  0.62267  0.11674  1.0000
  C   C571      1.0  0.59812  0.55248  0.28708  1.0000
  C   C572      1.0  0.69301  0.53302  0.28799  1.0000
  C   C573      1.0  0.68694  0.56136  0.24834  1.0000
  H   H457      1.0  0.56707  0.62324  0.02077  1.0000
  H   H458      1.0  0.56222  0.55319  0.08518  1.0000
  C   C574      1.0  0.69750  0.90252  0.04186  1.0000
  C   C575      1.0  0.61370  0.70467  0.13510  1.0000
  C   C576      1.0  0.61061  0.73909  0.12779  1.0000
  C   C577      1.0  0.58931  0.67717  0.09485  1.0000
  C   C578      1.0  0.60254  0.67352  0.11869  1.0000
  H   H459      1.0  0.61912  0.76321  0.14049  1.0000
  H   H460      1.0  0.58165  0.65343  0.08205  1.0000
  H   H461      1.0  0.60482  0.64688  0.12419  1.0000
  C   C579      1.0  0.66168  0.91745  0.07474  1.0000
  H   H462      1.0  0.73266  0.49586  0.21189  1.0000
  P   P21       1.0  0.70530  0.83270  0.03791  1.0000
  C   C580      1.0  0.67602  0.81988  0.00986  1.0000
  C   C581      1.0  0.63695  0.78998  0.01029  1.0000
  C   C582      1.0  0.49738  0.59160  0.06724  1.0000
  H   H463      1.0  0.49621  0.84174  0.13898  1.0000
  C   C583      1.0  0.59599  0.74216  0.10419  1.0000
  H   H464      1.0  0.55763  0.67090  0.21358  1.0000
  H   H465      1.0  0.69028  0.50793  0.29895  1.0000
  H   H466      1.0  0.67969  0.93624  0.98639  1.0000
  H   H467      1.0  0.62465  0.77335  0.02710  1.0000
  H   H468      1.0  0.50071  0.55742  0.09897  1.0000
  H   H469      1.0  0.53222  0.91203  0.05428  1.0000
  H   H470      1.0  0.71376  0.91085  0.02447  1.0000
  H   H471      1.0  0.60189  0.63261  0.27590  1.0000
  C   C584      1.0  0.54233  0.97074  0.06432  1.0000
  S   S83       1.0  0.50384  0.75133  0.02076  1.0000
  H   H472      1.0  0.67171  0.50022  0.25450  1.0000
  S   S84       1.0  0.56046  0.88151  0.09689  1.0000
  C   C585      1.0  0.66693  0.85556  0.07518  1.0000
  C   C586      1.0  0.62894  0.64904  0.28622  1.0000
  C   C587      1.0  0.68376  0.75326  0.04840  1.0000
  H   H473      1.0  0.72658  0.82727  0.08949  1.0000
  H   H474      1.0  0.50257  0.66392  0.30815  1.0000
  Fe  Fe44      1.0  0.55728  0.58530  0.21802  1.0000
  C   C588      1.0  0.82456  0.90789  0.03859  1.0000
  C   C589      1.0  0.70847  0.76638  0.09774  1.0000
  C   C590      1.0  0.70807  0.56992  0.29875  1.0000
  H   H475      1.0  0.70446  0.62353  0.24817  1.0000
  C   C591      1.0  0.69967  0.79152  0.05758  1.0000
  H   H476      1.0  0.50035  0.74681  0.19794  1.0000
  H   H477      1.0  0.75508  0.81625  0.00205  1.0000
  C   C592      1.0  0.56812  0.58704  0.05170  1.0000
  H   H478      1.0  0.49313  0.56074  0.30012  1.0000
  H   H479      1.0  0.65801  0.82688  0.08353  1.0000
  H   H480      1.0  0.58191  0.76038  0.99022  1.0000
  H   H481      1.0  0.64985  0.93661  0.08279  1.0000
  C   C593      1.0  0.53061  0.67500  0.21015  1.0000
  S   S85       1.0  0.54623  0.60133  0.17957  1.0000
  C   C594      1.0  0.52867  0.48667  0.30051  1.0000
  C   C595      1.0  0.49330  0.64268  0.21021  1.0000
  C   C596      1.0  0.71316  0.79794  0.08217  1.0000
  C   C597      1.0  0.54325  0.93413  0.06834  1.0000
  H   H482      1.0  0.60713  0.93275  0.01839  1.0000
  C   C598      1.0  0.56653  0.95480  0.00352  1.0000
  H   H483      1.0  0.76537  0.53224  0.24924  1.0000
  H   H484      1.0  0.67437  0.74741  0.02935  1.0000
  S   S86       1.0  0.49612  0.83096  0.03807  1.0000
  C   C599      1.0  0.66067  0.67998  0.27447  1.0000
  C   C600      1.0  0.78352  0.88979  0.04404  1.0000
  C   C601      1.0  0.50558  0.66972  0.13429  1.0000
  C   C602      1.0  0.51430  0.57119  0.08157  1.0000
  Fe  Fe45      1.0  0.53600  0.81567  0.01330  1.0000
  H   H485      1.0  0.58389  0.94951  0.12593  1.0000
  C   C603      1.0  0.71184  0.60251  0.28439  1.0000
  H   H486      1.0  0.84412  0.93319  0.04897  1.0000
  S   S87       1.0  0.52852  0.51712  0.13481  1.0000
  H   H487      1.0  0.82759  0.84862  0.99242  1.0000
  S   S88       1.0  0.52600  0.58999  0.25273  1.0000
  C   C604      1.0  0.55838  0.92646  0.09058  1.0000
  H   H488      1.0  0.77190  0.90116  0.05887  1.0000
  Fe  Fe46      1.0  0.54004  0.83526  0.06767  1.0000
  H   H489      1.0  0.72362  0.63113  0.29262  1.0000
  C   C605      1.0  0.70098  0.59822  0.25926  1.0000
  C   C606      1.0  0.58524  0.51859  0.27293  1.0000
  C   C607      1.0  0.51676  0.61033  0.04523  1.0000
  C   C608      1.0  0.75795  0.85725  0.03047  1.0000
  C   C609      1.0  0.53318  0.71244  0.20548  1.0000
  C   C610      1.0  0.57239  0.95530  0.10866  1.0000
  H   H490      1.0  0.54358  0.92595  0.99936  1.0000
  S   S89       1.0  0.50802  0.77227  0.07982  1.0000
  S   S90       1.0  0.56872  0.71458  0.05762  1.0000
  H   H491      1.0  0.65773  0.68756  0.25540  1.0000
  H   H492      1.0  0.49299  0.71667  0.14782  1.0000
  H   H493      1.0  0.68686  0.70383  0.10096  1.0000
  C   C611      1.0  0.69139  0.72832  0.08868  1.0000
  H   H494      1.0  0.72125  0.72398  0.27777  1.0000
  H   H495      1.0  0.50554  0.62759  0.03422  1.0000
  H   H496      1.0  0.66541  0.69217  0.05715  1.0000
  C   C612      1.0  0.65357  0.88136  0.08605  1.0000
  H   H497      1.0  0.60221  0.51773  0.25675  1.0000
  H   H498      1.0  0.53018  0.67534  0.14699  1.0000
  H   H499      1.0  0.59564  0.58568  0.04590  1.0000
  C   C613      1.0  0.60251  0.95861  0.01412  1.0000
  C   C614      1.0  0.67928  0.72179  0.06400  1.0000
  C   C615      1.0  0.68371  0.92805  0.05266  1.0000
  C   C616      1.0  0.48438  0.69278  0.13492  1.0000
  C   C617      1.0  0.75033  0.50055  0.24997  1.0000
  H   H500      1.0  0.63537  0.87268  0.10275  1.0000
  H   H501      1.0  0.56230  0.73731  0.20509  1.0000
  H   H502      1.0  0.61945  0.87600  0.99819  1.0000
  H   H503      1.0  0.68946  0.95571  0.04367  1.0000
  H   H504      1.0  0.71927  0.86746  0.98773  1.0000
  H   H505      1.0  0.62551  0.57708  0.28171  1.0000
  C   C618      1.0  0.49574  0.63988  0.11694  1.0000
  H   H506      1.0  0.49170  0.61379  0.21378  1.0000
  H   H507      1.0  0.48018  0.93914  0.09664  1.0000
  C   C619      1.0  0.69008  0.84287  0.98825  1.0000
  C   C620      1.0  0.49828  0.71766  0.20135  1.0000
  H   H508      1.0  0.59736  0.48946  0.16112  1.0000
  H   H509      1.0  0.76072  0.49704  0.28894  1.0000
  C   C621      1.0  0.77421  0.84209  0.01215  1.0000
  C   C622      1.0  0.57577  0.55419  0.30775  1.0000
  C   C623      1.0  0.63248  0.63873  0.31088  1.0000
  H   H510      1.0  0.87222  0.90727  0.01569  1.0000
  C   C624      1.0  0.84041  0.89323  0.01988  1.0000
  C   C625      1.0  0.55052  0.48578  0.27957  1.0000
  C   C626      1.0  0.61252  0.78270  0.98942  1.0000
  H   H511      1.0  0.56296  0.65315  0.30199  1.0000
  C   C627      1.0  0.70047  0.69030  0.31153  1.0000
  H   H512      1.0  0.53063  0.97679  0.04727  1.0000
  C   C628      1.0  0.73158  0.47980  0.22886  1.0000
  C   C629      1.0  0.54141  0.52058  0.31467  1.0000
  C   C630      1.0  0.74747  0.48072  0.27240  1.0000
  C   C631      1.0  0.50758  0.64289  0.31979  1.0000
  Fe  Fe47      1.0  0.93072  0.49446  0.56740  1.0000
  H   H513      1.0  0.76192  0.58861  0.42546  1.0000
  S   S91       1.0  0.91944  0.49980  0.52685  1.0000
  H   H514      1.0  0.89141  0.56307  0.54373  1.0000
  H   H515      1.0  0.97622  0.68157  0.52888  1.0000
  C   C632      1.0  0.54852  0.60877  0.33091  1.0000
  C   C633      1.0  0.77295  0.49253  0.45048  1.0000
  H   H516      1.0  0.51485  0.51868  0.43768  1.0000
  C   C634      1.0  0.51986  0.58747  0.34902  1.0000
  H   H517      1.0  0.72853  0.70558  0.32115  1.0000
  H   H518      1.0  0.77619  0.58479  0.47001  1.0000
  C   C635      1.0  0.95544  0.65324  0.52221  1.0000
  S   S92       1.0  0.72350  0.57580  0.32988  1.0000
  C   C636      1.0  0.91149  0.50221  0.42112  1.0000
  H   H519      1.0  0.88133  0.55140  0.49893  1.0000
  S   S93       1.0  0.80975  0.49407  0.52154  1.0000
  H   H520      1.0  0.81362  0.59618  0.39394  1.0000
  C   C637      1.0  0.66872  0.65951  0.32339  1.0000
  C   C638      1.0  0.94620  0.67401  0.43252  1.0000
  H   H521      1.0  0.88850  0.54454  0.41384  1.0000
  H   H522      1.0  0.57148  0.50270  0.44867  1.0000
  P   P22       1.0  0.91525  0.60034  0.45527  1.0000
  C   C639      1.0  0.85781  0.59819  0.42080  1.0000
  H   H523      1.0  0.96567  0.67071  0.48401  1.0000
  H   H524      1.0  0.88014  0.60197  0.40674  1.0000
  C   C640      1.0  0.90778  0.58654  0.53065  1.0000
  C   C641      1.0  0.82031  0.59544  0.41345  1.0000
  H   H525      1.0  0.93965  0.62768  0.55888  1.0000
  C   C642      1.0  0.79921  0.58911  0.45629  1.0000
  C   C643      1.0  0.50839  0.49533  0.40095  1.0000
  C   C644      1.0  0.80364  0.48665  0.48943  1.0000
  C   C645      1.0  0.90581  0.53567  0.42656  1.0000
  C   C646      1.0  0.93478  0.62301  0.53915  1.0000
  C   C647      1.0  0.92260  0.61006  0.48807  1.0000
  C   C648      1.0  0.92113  0.55619  0.44850  1.0000
  H   H526      1.0  0.67308  0.65159  0.34209  1.0000
  Fe  Fe48      1.0  0.70937  0.51883  0.35017  1.0000
  C   C649      1.0  0.90194  0.58003  0.50525  1.0000
  H   H527      1.0  0.91903  0.67591  0.43859  1.0000
  H   H528      1.0  0.64300  0.56876  0.42014  1.0000
  H   H529      1.0  0.89826  0.48589  0.40456  1.0000
  C   C650      1.0  0.94933  0.64690  0.49674  1.0000
  H   H530      1.0  0.61436  0.61747  0.41601  1.0000
  H   H531      1.0  0.84137  0.58878  0.48324  1.0000
  H   H532      1.0  0.62893  0.54713  0.34226  1.0000
  H   H533      1.0  0.75810  0.50806  0.48626  1.0000
  C   C651      1.0  0.60820  0.58921  0.35578  1.0000
  C   C652      1.0  0.60520  0.60973  0.37666  1.0000
  C   C653      1.0  0.61771  0.60244  0.39984  1.0000
  C   C654      1.0  0.63401  0.57527  0.40218  1.0000
  C   C655      1.0  0.63804  0.55570  0.38135  1.0000
  C   C656      1.0  0.62532  0.56258  0.35819  1.0000
  C   C657      1.0  0.47922  0.62135  0.33777  1.0000
  C   C658      1.0  0.48540  0.59366  0.35238  1.0000
  H   H534      1.0  0.96241  0.49781  0.47263  1.0000
  H   H535      1.0  0.65010  0.53437  0.38328  1.0000
  H   H536      1.0  0.52404  0.52052  0.33079  1.0000
  S   S94       1.0  0.71769  0.52013  0.39140  1.0000
  C   C659      1.0  0.83646  0.59126  0.46371  1.0000
  C   C660      1.0  0.79109  0.59109  0.43119  1.0000
  H   H537      1.0  0.52379  0.56556  0.36043  1.0000
  C   C661      1.0  0.86623  0.59598  0.44602  1.0000
  H   H538      1.0  0.59289  0.63109  0.37508  1.0000
  C   C662      1.0  0.77628  0.49662  0.47639  1.0000
  C   C663      1.0  0.57395  0.47885  0.41305  1.0000
  H   H539      1.0  0.75232  0.50084  0.44044  1.0000
  C   C664      1.0  0.55836  0.49595  0.43044  1.0000
  C   C665      1.0  0.94745  0.50890  0.45947  1.0000
  C   C666      1.0  0.52629  0.50494  0.42423  1.0000
  C   C667      1.0  0.95250  0.64059  0.43800  1.0000
  C   C668      1.0  0.94286  0.54297  0.46463  1.0000
  H   H540      1.0  0.95588  0.55845  0.48142  1.0000
  P   P23       1.0  0.59157  0.59821  0.32598  1.0000
  H   H541      1.0  0.96971  0.73080  0.41471  1.0000
  C   C669      1.0  0.93166  0.48841  0.43780  1.0000
  H   H542      1.0  0.95830  0.48069  0.61931  1.0000
  C   C670      1.0  0.97492  0.70524  0.41908  1.0000
  S   S95       1.0  0.73937  0.47871  0.34413  1.0000
  C   C671      1.0  0.79681  0.47818  0.43766  1.0000
  C   C672      1.0  0.54212  0.63672  0.31638  1.0000
  C   C673      1.0  0.71078  0.92728  0.78087  1.0000
  H   H543      1.0  0.70712  0.94932  0.76944  1.0000
  H   H544      1.0  0.72524  0.84851  0.82118  1.0000
  C   C674      1.0  0.93764  0.48542  0.71485  1.0000
  H   H545      1.0  0.53405  0.82611  0.71502  1.0000
  C   C675      1.0  0.92475  0.49546  0.69264  1.0000
  C   C676      1.0  0.58749  0.89655  0.94311  1.0000
  C   C677      1.0  0.62093  0.93114  0.93683  1.0000
  C   C678      1.0  0.61981  0.89129  0.98108  1.0000
  H   H546      1.0  0.66023  0.85258  0.82162  1.0000
  H   H547      1.0  0.56202  0.88532  0.93080  1.0000
  H   H548      1.0  0.61494  0.90409  0.88731  1.0000
  C   C679      1.0  0.60381  0.88818  0.87039  1.0000
  C   C680      1.0  0.57100  0.85166  0.87117  1.0000
  C   C681      1.0  0.53223  0.91976  0.86842  1.0000
  C   C682      1.0  0.48846  0.97378  0.91221  1.0000
  C   C683      1.0  0.52361  0.91744  0.82400  1.0000
  C   C684      1.0  0.74764  0.92489  0.78078  1.0000
  C   C685      1.0  0.49884  0.88293  0.87071  1.0000
  C   C686      1.0  0.58650  0.87707  0.96549  1.0000
  H   H549      1.0  0.67594  0.85425  0.95108  1.0000
  C   C687      1.0  0.93069  0.60518  0.75247  1.0000
  H   H550      1.0  0.64616  0.93355  0.84766  1.0000
  H   H551      1.0  0.53277  0.93083  0.80589  1.0000
  C   C688      1.0  0.55634  0.83140  0.84926  1.0000
  C   C689      1.0  0.75288  0.89657  0.79534  1.0000
  H   H552      1.0  0.55638  0.83953  0.88871  1.0000
  C   C690      1.0  0.53798  0.96588  0.93858  1.0000
  C   C691      1.0  0.90941  0.62805  0.75504  1.0000
  H   H553      1.0  0.51998  0.90899  0.95574  1.0000
  P   P24       1.0  0.63194  0.90582  0.79649  1.0000
  C   C692      1.0  0.66560  0.83550  0.96736  1.0000
  H   H554      1.0  0.53021  0.80350  0.84984  1.0000
  C   C693      1.0  0.68434  0.87293  0.81012  1.0000
  H   H555      1.0  0.56325  0.83071  0.81005  1.0000
  H   H556      1.0  0.60707  0.80104  0.95226  1.0000
  H   H557      1.0  0.48960  0.86938  0.88879  1.0000
  C   C694      1.0  0.64348  0.95752  0.79502  1.0000
  H   H558      1.0  0.60626  0.84016  0.71517  1.0000
  H   H559      1.0  0.64899  0.87456  0.75018  1.0000
  H   H560      1.0  0.97095  0.59784  0.79753  1.0000
  H   H561      1.0  0.62105  0.94665  0.91988  1.0000
  H   H562      1.0  0.77222  0.94520  0.76955  1.0000
  C   C695      1.0  0.54497  0.93671  0.84489  1.0000
  S   S96       1.0  0.54321  0.83511  0.97337  1.0000
  C   C696      1.0  0.62148  0.90489  0.84773  1.0000
  C   C697      1.0  0.97121  0.55427  0.72558  1.0000
  H   H563      1.0  0.54830  0.93464  0.88472  1.0000
  C   C698      1.0  0.67908  0.90177  0.79590  1.0000
  C   C699      1.0  0.60695  0.88493  0.82556  1.0000
  H   H564      1.0  0.59413  0.95153  0.77092  1.0000
  C   C700      1.0  0.57466  0.84755  0.82659  1.0000
  C   C701      1.0  0.65421  0.94541  0.95236  1.0000
  C   C702      1.0  0.60119  0.88062  0.77051  1.0000
  H   H565      1.0  0.78152  0.89486  0.79539  1.0000
  C   C703      1.0  0.72119  0.87048  0.80989  1.0000
  H   H566      1.0  0.69516  0.97487  0.81906  1.0000
  C   C704      1.0  0.51123  0.92719  0.94373  1.0000
  H   H567      1.0  0.54704  0.88142  0.78541  1.0000
  C   C705      1.0  0.65388  0.92526  0.97438  1.0000
  C   C706      1.0  0.56033  0.87267  0.77015  1.0000
  C   C707      1.0  0.53623  0.85305  0.75025  1.0000
  C   C708      1.0  0.55278  0.84135  0.73043  1.0000
  C   C709      1.0  0.59346  0.84927  0.73054  1.0000
  C   C710      1.0  0.61763  0.86884  0.75048  1.0000
  C   C711      1.0  0.62027  0.97139  0.78067  1.0000
  C   C712      1.0  0.97264  0.62299  0.75012  1.0000
  C   C713      1.0  0.49137  0.88051  0.82619  1.0000
  H   H568      1.0  0.50467  0.84687  0.75028  1.0000
  C   C714      1.0  0.62677  0.80552  0.96799  1.0000
  H   H569      1.0  0.91445  0.57358  0.75223  1.0000
  H   H570      1.0  0.87701  0.61411  0.75670  1.0000
  C   C715      1.0  0.47888  0.86292  0.84946  1.0000
  C   C716      1.0  0.96060  0.51465  0.73137  1.0000
  H   H571      1.0  0.92612  0.54237  0.66911  1.0000
  C   C717      1.0  0.93515  0.53468  0.68671  1.0000
  C   C718      1.0  0.92986  0.66884  0.75535  1.0000
  C   C719      1.0  0.95802  0.56395  0.70316  1.0000
  H   H572      1.0  0.91334  0.68655  0.75728  1.0000
  H   H573      1.0  0.97024  0.50603  0.74835  1.0000
  H   H574      1.0  0.94969  0.97454  0.73539  1.0000
  C   C720      1.0  0.97162  0.68677  0.75308  1.0000
  H   H575      1.0  0.96592  0.59423  0.69822  1.0000
  H   H576      1.0  0.56769  0.97766  0.94659  1.0000
