data_image0
_chemical_formula_structural       FeS2FeS2FeSFeS3CFeS2FeS2FeSFeS3PSCSFeSFeSCHC7H6C3HCHCH2C6H2C8H4C5SHCHCHCPSC2HCHCH3C2H3C3H5C2HC2H2C2H3CHC2H3CH3C2H2CHCPH2C2HC2H2C3HC2H3C2H2CHFeC3HCHCHC6HC5H2CHC3H3CHC8HCHC6PC9HC8H11CH6CH3CHC7H3CH4CHCH2CHCH2CH2CHC2HCHC3H2C2H2C6HC2HC3H2CS2CH2CH4CHC6HC2HC3HC3H2C3HCHCFeS2FeS2FeSFeS3HFeS2FeS2FeSFeS3CSCHFeSFeSHCHC6H4CH2C4H3C7PHCHC6H5CHC2HC2H2C2SH2C2HCH2CH2C7H5CHC4HCHCHCH2CHC2HC2HCHCH2CH2C2HC5HCHCHC5HCH3C2PCH3PH3C2HCHCH2CH5CH2C2HCHC5HCH2C3HC5FeC2PCH2CHC3HCHC3HCHC2HCH5C2HC2HCHC2HCHSCH3CHC3HC2HC2H3C2PHC2HCHPCHFeCFeS2FeC3S2HSC3H2C8H5CHCH2CHCHCH3CH2SCPCHCH3C10H3C2HCHC2PHCHCHC2H2FeH2CHC2H2CHC5H3C2H2CH2C3HCH2CHC4HC5H2CHCH3C2H2C3PHC2H2CH3C2SHC2HCFeH2PH2CHCH2C3H2FeHFeS2C2HCS2HSCSCH2C8H4CH2C2PHCSH2C3H5CHCH2C3H2C2HC7H2CHC2HCHC2H3CH4CHSCHSCH3C10HC2H3CH2C2H5FePC5HCHCHC2FeC2H3CPFeH5FeS2FeC2H3S2CHCH3C2HC8H7CH2CH2CSC2SC4HCH4CHCHFeH2C3SCH2CH2C3HCHCFeCHC5HC2HC2H4CHC4SCH2C2H2CH2C3H2C2S2CHPC2HFeS2C5HS2C3H2CH2CHC3HC2H8CH3CH2C2H3CHPCH3FeC2H2CH2C2HCHC4H2C4H2CH2PCHCHC4HCHCHC2FeCHCHC3HCFeC2H2PCH5CHC3HCH2C3HC3SCH4C2HCH2CFeS2FeS2FeSFeS3CSFeS2FeSFeS3FeS2FeSFeCFeHS2H3C4HCHC2HC9H4CH2C2HC2H2C6H4C6H4CHC6PC18H21CH2C4H3CHC3H2CHCHCHC2HCH2CHC2HCH2CHCHC5HC4H2C2HCPH2CH2CHC2H2CHCHCH3C2H2C2HC3HC2HC3H2C2PC4HC2FeCHSC5HC2HPCH5C5HCH2CH2C2HC3HC2HC5H3CHC3H2SPCH2C2H3PC7HCH2CHPC3HCSCH5CFeS2FeS2FeSFeS3CSFeSHFeSFeSCHFeS2FeSFeHFeHS2C5H2C2HC2HCHC7H4CHC5H3C6H4C6H3CSHSCHC5HC3H3CHSHC2HC3HC2H4C3H2CH3SHPCHCFeC2HC2H2C5H2CHCH3CHCHCPHCHC3H2CH2C3H2CHC2HPC14HC5H2CH15CPC13SH2CH8CHCHCHC3H2C2HC3H3CHCH2C2H3C3H2C4HCHC2H2CH2CHSH2CH3C2HC3HC8SCH2C5HCHC2H5C2H4CH3CHCPCH2C2H5CH2C6HC2HCSCHCHCH3CHC2HCHCH4CHCHCSC2HC2H2CHC2H2CH2CSH4FeSCFeSCFeSFeS2FeSCFeSFeSFeCS3C2FeS2FeS2CFeHS2CFeS2CHFeHFeCHSC2H3CH4CHC2SHPCHC3HCH2CHC2SC12HC3H2C2H2C6H5CH2C4HCHCSHSCSC4H2CFeHC3SH2C2HCSH4C8HCHCH2C2HCH2CH2C2HCH2C3H4C4PC2HC7HC7SHCH3C3H9C2H4CHC2HC3H2CHCHCHCHCHC4H3CHC2H2CH3CHC3HC2HCH2C3HC3H2C4HC2H2S2HFeCPH2CHCHCH2PHC5HCHC3SPH2C2HCHSC4H3CHCH2CPHCSHCHC3HC2H2C2HC2HC4H4C2H2CH2CHCHCH2C2HC3HC5H3FeCH2CH2C4HSH2FeSCFeSCFeSFeS2FeS2FeSFeCFeCS3H2FeSHFeS2Fe2S3CFeS2C2FeHFeCS2HCHC2HC2H2C2HCHC8H2CHC3H2C5HC2H3CHC2HC3H2C6HCH3CPHCHCH5SH2CH2CH2CHPCHCSH3C5H4C2HCHC2H5CFeC2SC2HC2HC5HC3HCH5CH2C2HC3HC2HCH2C2SCHCH4C2H4PHC2HC2SC3H3S2C6PC4HC3H2C6HCH6C2H2C3HS2HC3H3C2HCHC3P2CHC4HCH3C2HC2HCH3C2HC6HC2H2C4PC3HC5PSCHC3HC2HC3HC2H4C4H4C2HC2HC2HC2HC4H2C2H3SHCH2SC4H5CHCH2CHCH3C2H2SH2CHC2SC2HCHCHCH5CHS2FeS2FeSFeSHFeCFeC3SCFeS2FeS2FeSFeS3FeSHFeS2FeSFeS3CHC9HC3H4C4SCH2C6H5C2HC2PC2H4CSHCSH5CHSH4C3H3C3HC4H4C2H4C3HC3HC3HPC2H2C3HC2HC2FeHCHCHCPHCHC4HC3HC3H2C2HCHCSC4HC2HCHC2H3C3H2CHCH2CHCH2CH3C2H3CHCHC2HC7PC18H22C11H3C4HC2H4C2H2CH2CSHC2HCHC5H6CHCFeCSCH3C5HCHC3FeCHSH4CH4CHCHPH4CHC4SCH2CSCFeSFeSCFeSFeSC2S2FeS2FeS2FeSFeS3FeSHFeS2FeSFeS3FeHC4H2C3HPHC4HC3HCH2C7H4SC2H2CH2CHC6SC2SCHC2HC2HCHC2H3CHCHC4HC2HCHC2SHC2HC2HC2HCHCH3C9H2C2HC2H3C5H3CH3C3HC5PCHC9HCHCH2C5HCH3CH3C2HC3H3CHC2H2C3HCHCH4PC2H2C2H6C6PC18H23C2HC7H7C3HSPCHC2PC7H4C7H10C3HSPC3HC6HCHFeHC3H3C3HCH2CHSH2CHCHFeCHC2SHSCHC3HC2HCHPSFeH2CHC2H2C3HCS2HCH5C4HCHFeHCHSC3HCH2CH2FeHCHC4HCH3C4SCH3C4HPC3H5CHC2H2CHC4H4C2SCHC5PHC2H2CHCHFeHSH3C2HCH3CH2CSHSHCFeS2FeS2FeHFeS3HFeS2FeS2FeSFeS4CSHFeSFeSC7HCHC6H5C2H2C5H2C8H7C2HC3SHC2HC5HC4HCHC3HCHC2HCH2C2HC2H5C4H3CHCHCH2C5HC3H3CH7CPC2HC2H2C2H2CHC2PHCSC2HCHC3H2FeC6H3CH3C4H2CHC5HCH3CHC4HSHCPCH5CHCHCH3CSCH3CHC3H2C2HCHC4H2C2H4C3H2CH2C2H3C4H4CHCHC3HC2HC2H3C3HC2H3CSHCH2CFeS2FeS2FeSFeS3HFeS2FeS2FeSFeS3C2SCFeSFeSHC5H2C8HCH4CHC4H2CH2FeC6H4C2HCHCHCHCPHC2H2C2H3C4SH2C2H2C2H2C7H2C2HC2HC2H2C2HC2H2C7HCHCHPC2HC4HC2HC2H5C2HC3H2CH5C3HCH4CH2C2HC2H3CH7C4HSCH2C2H7C2HC4HCHC2H2CHCH5CPCHC4HC2PH3C3H2C2HPHC2HC2SCHC8H3C4HC2H4C2H2C5HC3HCH2C2HCH2C2HCHC2HC6FeS2C2S2CSC4HC6H5CHC2H3CHCH4C3H4CH2CHC2HC2HC2HCHC3H2CHC2HPC11H3C2HCHCH4C2HC3FeH3CH3CHCPHC2HC2FeHCSHCHCHCHCHCHCPCH3C2FeH2CHCH3PCH2C2FeS2H2S2FeSHC2H2C6H4CHCHCH2FeH3CH5C2H3C2SH3PCH3CH3C2HC2HCHC7H2CFePCHC3H2SCHC8HCHCHCH2C3HCHC2HC4HC2HC3PH2CHCH2C2HCHC2H2FeC3HC4HCHCFeHSHPHCSHC3HCHSCH2C6HSCH3CH2C2HCH2CPCHC3HCHCH2C3HC4HC2HC4HC2H4CH2C4H2CHC2H4CHC3H3CFeC2HCHSC4HC2SHCH2C2HCH2CHCHPHCHCHCHFeS2H2CHS2HC4H2CH2C6HC2H2C2FeC2HC2HC5H3CH2CPC2H3CH4C3SC3SCHCHC2H2C4H2C3H3CH2CH2CSCH2CHCHPCHPHCHC2H3C3HCHFeCHCH2C3H2CH4CH2C2HC2FeS2FeS2FeSFeS3CSFeSCFeSFeSCSFeS2FeSFeCFeCS2C3H2CH3C2HC6H4CHPCH6C6H4C3H2C6H3CH2C6HCH5C3HCH6SH2C3H2C2H4CHSHCHCHC3HCH2CHFeCHCH2CHC3HC3HCH9CHC3HC2H2C2SC4H3C3H2CH4C2HPC2HC2H3C2HC4HCHCHCHC3H2CH2CH4CPC5HC4HCHC2HC2HCHP2CSH3CHC3PHCHC3HC2H3CSC2H3CH4C2HC5HC11HCHC6HC3HC4PHCHC2H2CHC2H3CHCHC2HFeS2FeS2FeSFeS3HSFeS2FeSFeS3FeS2FeSFeCFeHS2C3HC3H4C7H4C4H2CHCHC6H5C9H6C3H8FeC2H2CH2C5HC2HC2H2C3PH2CHC3H2CH3CHCH2PC7PC18H18CHC2H3C2H2C3HC3PC2H3CH2C3HC3HCHC6HC2HC7H3C2H2CSCHC2HCHC2H6C2H5C2H2C3SH2C2SHC3H2C2HC5H2C3HC2H5C2PHCH2CHCHCHC2PC4HC2HCH4C2HC2HC3HC
_chemical_formula_sum              "Fe192 S384 C2880 P96 H2304"
_cell_length_a       58.265
_cell_length_b       88.3553
_cell_length_c       48.4392
_cell_angle_alpha    90.0144
_cell_angle_beta     89.7221
_cell_angle_gamma    88.5274

_space_group_name_H-M_alt    "P 1"
_space_group_IT_number       1

loop_
  _space_group_symop_operation_xyz
  'x, y, z'

loop_
  _atom_site_type_symbol
  _atom_site_label
  _atom_site_symmetry_multiplicity
  _atom_site_fract_x
  _atom_site_fract_y
  _atom_site_fract_z
  _atom_site_occupancy
  Fe  Fe1       1.0  0.10565  0.01939  0.41348  1.0000
  S   S1        1.0  0.09729  0.04438  0.41686  1.0000
  S   S2        1.0  0.12166  0.00601  0.44969  1.0000
  Fe  Fe2       1.0  0.09176  0.01830  0.35166  1.0000
  S   S3        1.0  0.08213  0.04324  0.35108  1.0000
  S   S4        1.0  0.08109  0.00414  0.31417  1.0000
  Fe  Fe3       1.0  0.11435  0.04704  0.37542  1.0000
  S   S5        1.0  0.13996  0.06544  0.36338  1.0000
  Fe  Fe4       1.0  0.06591  0.03888  0.39227  1.0000
  S   S6        1.0  0.03150  0.04870  0.40533  1.0000
  S   S7        1.0  0.12532  0.02221  0.37326  1.0000
  S   S8        1.0  0.07294  0.01382  0.39170  1.0000
  C   C1        1.0  0.23805  0.19490  0.47578  1.0000
  Fe  Fe5       1.0  0.16633  0.15816  0.37768  1.0000
  S   S9        1.0  0.14510  0.17964  0.37120  1.0000
  S   S10       1.0  0.14358  0.13732  0.38341  1.0000
  Fe  Fe6       1.0  0.21085  0.17648  0.38199  1.0000
  S   S11       1.0  0.19216  0.19860  0.37629  1.0000
  S   S12       1.0  0.24919  0.17451  0.39204  1.0000
  Fe  Fe7       1.0  0.16564  0.18963  0.40542  1.0000
  S   S13       1.0  0.14712  0.20527  0.43625  1.0000
  Fe  Fe8       1.0  0.17305  0.18688  0.34238  1.0000
  S   S14       1.0  0.16716  0.20206  0.30470  1.0000
  S   S15       1.0  0.18547  0.16808  0.41367  1.0000
  S   S16       1.0  0.19333  0.16485  0.34635  1.0000
  P   P1        1.0  0.01839  0.16751  0.08373  1.0000
  S   S17       1.0  0.09440  0.19580  0.11720  1.0000
  C   C2        1.0  0.15528  0.13563  0.47939  1.0000
  S   S18       1.0  0.14482  0.21058  0.12643  1.0000
  Fe  Fe9       1.0  0.12246  0.20475  0.09017  1.0000
  S   S19       1.0  0.13740  0.18977  0.05552  1.0000
  Fe  Fe10      1.0  0.11543  0.20354  0.15338  1.0000
  S   S20       1.0  0.12069  0.18671  0.18890  1.0000
  C   C3        1.0  0.10568  0.98968  0.04127  1.0000
  H   H1        1.0  0.24785  0.14616  0.44749  1.0000
  C   C4        1.0  0.15087  0.14594  0.45797  1.0000
  C   C5        1.0  0.15390  0.19751  0.27287  1.0000
  C   C6        1.0  0.15017  0.18256  0.26499  1.0000
  C   C7        1.0  0.13998  0.17943  0.23928  1.0000
  C   C8        1.0  0.13353  0.19120  0.22108  1.0000
  C   C9        1.0  0.13730  0.20616  0.22899  1.0000
  C   C10       1.0  0.14750  0.20928  0.25467  1.0000
  H   H2        1.0  0.15548  0.17341  0.27854  1.0000
  H   H3        1.0  0.13735  0.16783  0.23336  1.0000
  H   H4        1.0  0.13238  0.21535  0.21531  1.0000
  H   H5        1.0  0.15050  0.22089  0.26042  1.0000
  H   H6        1.0  0.17148  0.21182  0.18176  1.0000
  H   H7        1.0  0.11719  0.21413  0.02120  1.0000
  C   C11       1.0  0.10683  0.05601  0.23731  1.0000
  C   C12       1.0  0.14687  0.20252  0.47253  1.0000
  C   C13       1.0  0.13907  0.10187  0.46469  1.0000
  H   H8        1.0  0.15041  0.99902  0.19316  1.0000
  C   C14       1.0  0.20694  0.21956  0.47689  1.0000
  H   H9        1.0  0.17001  0.18314  0.47262  1.0000
  C   C15       1.0  0.02538  0.13645  0.09286  1.0000
  H   H10       1.0  0.15915  0.14451  0.43813  1.0000
  H   H11       1.0  0.19064  0.19534  0.02320  1.0000
  C   C16       1.0  0.31619  0.18491  0.39940  1.0000
  C   C17       1.0  0.29501  0.17772  0.39998  1.0000
  C   C18       1.0  0.27509  0.18489  0.38981  1.0000
  C   C19       1.0  0.27673  0.19961  0.37891  1.0000
  C   C20       1.0  0.29830  0.20686  0.37805  1.0000
  C   C21       1.0  0.03581  0.99997  0.21440  1.0000
  H   H12       1.0  0.29412  0.16642  0.40844  1.0000
  H   H13       1.0  0.26143  0.20545  0.37156  1.0000
  C   C22       1.0  0.13587  0.15832  0.46203  1.0000
  C   C23       1.0  0.12466  0.16032  0.48736  1.0000
  C   C24       1.0  0.14063  0.08539  0.36963  1.0000
  C   C25       1.0  0.12252  0.09345  0.38246  1.0000
  C   C26       1.0  0.12377  0.10927  0.38641  1.0000
  C   C27       1.0  0.14300  0.11733  0.37748  1.0000
  C   C28       1.0  0.16103  0.10928  0.36453  1.0000
  C   C29       1.0  0.15985  0.09345  0.36069  1.0000
  H   H14       1.0  0.10757  0.08748  0.38942  1.0000
  H   H15       1.0  0.10972  0.11530  0.39657  1.0000
  H   H16       1.0  0.17596  0.11521  0.35762  1.0000
  H   H17       1.0  0.17395  0.08741  0.35066  1.0000
  C   C30       1.0  0.09522  0.99470  0.28596  1.0000
  C   C31       1.0  0.09705  0.00334  0.02991  1.0000
  C   C32       1.0  0.04658  0.02512  0.02695  1.0000
  C   C33       1.0  0.19466  0.12484  0.42200  1.0000
  C   C34       1.0  0.13625  0.00524  0.18362  1.0000
  S   S21       1.0  0.09828  0.22671  0.15455  1.0000
  H   H18       1.0  0.14269  0.99569  0.14330  1.0000
  C   C35       1.0  0.02302  0.02053  0.45928  1.0000
  H   H19       1.0  0.01607  0.18716  0.46797  1.0000
  C   C36       1.0  0.16423  0.13659  0.01519  1.0000
  H   H20       1.0  0.19299  0.19858  0.21891  1.0000
  C   C37       1.0  0.01209  0.99550  0.41131  1.0000
  P   P2        1.0  0.17633  0.12046  0.47462  1.0000
  S   S22       1.0  0.10597  0.22793  0.08731  1.0000
  C   C38       1.0  0.08173  0.98970  0.26393  1.0000
  C   C39       1.0  0.05812  0.03880  0.02744  1.0000
  H   H21       1.0  0.02839  0.03239  0.35360  1.0000
  C   C40       1.0  0.02097  0.17342  0.16776  1.0000
  H   H22       1.0  0.15024  0.13549  0.18993  1.0000
  C   C41       1.0  0.05933  0.17412  0.01568  1.0000
  H   H23       1.0  0.04569  0.16961  0.48811  1.0000
  H   H24       1.0  0.13056  0.05725  0.30155  1.0000
  H   H25       1.0  0.21881  0.21255  0.24900  1.0000
  C   C42       1.0  0.20613  0.19155  0.01249  1.0000
  C   C43       1.0  0.09084  0.18554  0.43754  1.0000
  H   H26       1.0  0.05036  0.03645  0.45760  1.0000
  H   H27       1.0  0.08748  0.07383  0.13853  1.0000
  H   H28       1.0  0.00614  0.10501  0.06048  1.0000
  C   C44       1.0  0.01897  0.99483  0.03556  1.0000
  C   C45       1.0  0.07658  0.06823  0.15333  1.0000
  C   C46       1.0  0.04850  0.05365  0.19148  1.0000
  H   H29       1.0  0.07557  0.20448  0.05340  1.0000
  H   H30       1.0  0.22270  0.18930  0.43685  1.0000
  H   H31       1.0  0.08655  0.01075  0.04269  1.0000
  H   H32       1.0  0.12504  0.01528  0.22167  1.0000
  H   H33       1.0  0.03736  0.04816  0.20612  1.0000
  C   C47       1.0  0.09170  0.98251  0.24063  1.0000
  C   C48       1.0  0.10287  0.02216  0.18777  1.0000
  H   H34       1.0  0.01800  0.02275  0.43815  1.0000
  C   C49       1.0  0.18697  0.21594  0.07020  1.0000
  C   C50       1.0  0.11693  0.14596  0.19659  1.0000
  H   H35       1.0  0.06977  0.05769  0.00344  1.0000
  H   H36       1.0  0.30000  0.18494  0.01144  1.0000
  C   C51       1.0  0.19798  0.12668  0.45047  1.0000
  C   C52       1.0  0.09839  0.04124  0.23790  1.0000
  H   H37       1.0  0.04710  0.19419  0.08564  1.0000
  H   H38       1.0  0.02179  0.06922  0.17803  1.0000
  H   H39       1.0  0.08431  0.15552  0.20946  1.0000
  C   C53       1.0  0.03960  0.06563  0.17558  1.0000
  H   H40       1.0  0.06564  0.04269  0.04648  1.0000
  C   C54       1.0  0.08553  0.05626  0.16919  1.0000
  C   C55       1.0  0.09929  0.14123  0.24104  1.0000
  H   H41       1.0  0.09569  0.02104  0.26233  1.0000
  H   H42       1.0  0.05284  0.03491  0.25750  1.0000
  H   H43       1.0  0.25821  0.17503  0.02524  1.0000
  C   C56       1.0  0.06396  0.18953  0.47564  1.0000
  H   H44       1.0  0.24970  0.20763  0.32432  1.0000
  H   H45       1.0  0.24411  0.21328  0.08380  1.0000
  H   H46       1.0  0.06337  0.99151  0.26485  1.0000
  C   C57       1.0  0.06010  0.17040  0.15148  1.0000
  C   C58       1.0  0.00800  0.04192  0.38680  1.0000
  H   H47       1.0  0.27596  0.20669  0.44714  1.0000
  H   H48       1.0  0.02765  0.99564  0.42343  1.0000
  C   C59       1.0  0.06777  0.16487  0.45335  1.0000
  H   H49       1.0  0.12597  0.15799  0.02241  1.0000
  C   C60       1.0  0.14183  0.07808  0.43983  1.0000
  P   P3        1.0  0.08322  0.03344  0.20880  1.0000
  H   H50       1.0  0.24767  0.22529  0.42896  1.0000
  H   H51       1.0  0.12479  0.07315  0.25976  1.0000
  C   C61       1.0  0.05362  0.07290  0.15650  1.0000
  C   C62       1.0  0.22268  0.19715  0.45407  1.0000
  H   H52       1.0  0.10408  0.18983  0.42400  1.0000
  C   C63       1.0  0.13670  0.13008  0.23016  1.0000
  C   C64       1.0  0.10193  0.03240  0.26156  1.0000
  H   H53       1.0  0.17527  0.07169  0.42421  1.0000
  H   H54       1.0  0.09199  0.16324  0.41956  1.0000
  C   C65       1.0  0.20742  0.21093  0.08245  1.0000
  C   C66       1.0  0.09903  0.15283  0.05069  1.0000
  C   C67       1.0  0.30477  0.22109  0.44144  1.0000
  H   H55       1.0  0.07840  0.17025  0.15563  1.0000
  C   C68       1.0  0.13758  0.19349  0.01945  1.0000
  C   C69       1.0  0.06023  0.02163  0.22071  1.0000
  H   H56       1.0  0.19242  0.13971  0.04308  1.0000
  H   H57       1.0  0.10339  0.05279  0.16658  1.0000
  H   H58       1.0  0.10216  0.16267  0.06349  1.0000
  C   C70       1.0  0.07152  0.04884  0.18831  1.0000
  C   C71       1.0  0.13587  0.13687  0.20407  1.0000
  H   H59       1.0  0.22303  0.18382  0.04941  1.0000
  H   H60       1.0  0.20711  0.20211  0.09797  1.0000
  C   C72       1.0  0.11349  0.03812  0.28435  1.0000
  H   H61       1.0  0.13335  0.16652  0.44562  1.0000
  Fe  Fe11      1.0  0.07876  0.21936  0.11675  1.0000
  C   C73       1.0  0.13186  0.00330  0.15553  1.0000
  C   C74       1.0  0.11021  0.99797  0.48057  1.0000
  C   C75       1.0  0.08407  0.17055  0.43509  1.0000
  H   H62       1.0  0.08471  0.97994  0.42376  1.0000
  C   C76       1.0  0.16271  0.10390  0.46095  1.0000
  H   H63       1.0  0.06289  0.00565  0.18665  1.0000
  C   C77       1.0  0.04123  0.02850  0.47039  1.0000
  H   H64       1.0  0.22001  0.13651  0.48129  1.0000
  C   C78       1.0  0.03897  0.17512  0.05966  1.0000
  C   C79       1.0  0.06664  0.19428  0.04800  1.0000
  C   C80       1.0  0.19537  0.21057  0.21553  1.0000
  C   C81       1.0  0.07110  0.18713  0.02275  1.0000
  C   C82       1.0  0.24440  0.18013  0.01338  1.0000
  C   C83       1.0  0.09861  0.14807  0.21501  1.0000
  H   H65       1.0  0.07463  0.99997  0.46922  1.0000
  C   C84       1.0  0.23313  0.13998  0.44052  1.0000
  C   C85       1.0  0.25640  0.21499  0.30848  1.0000
  C   C86       1.0  0.01123  0.03432  0.36170  1.0000
  C   C87       1.0  0.08109  0.19494  0.45792  1.0000
  C   C88       1.0  0.06046  0.04724  0.00326  1.0000
  H   H66       1.0  0.04527  0.01876  0.04591  1.0000
  H   H67       1.0  0.24202  0.14223  0.39750  1.0000
  C   C89       1.0  0.08665  0.99610  0.48478  1.0000
  H   H68       1.0  0.08339  0.02517  0.15001  1.0000
  C   C90       1.0  0.22984  0.13781  0.41226  1.0000
  C   C91       1.0  0.12171  0.05281  0.28372  1.0000
  C   C92       1.0  0.05385  0.00891  0.20537  1.0000
  H   H69       1.0  0.04668  0.08214  0.14415  1.0000
  H   H70       1.0  0.02143  0.01888  0.27342  1.0000
  H   H71       1.0  0.07099  0.14516  0.07549  1.0000
  C   C93       1.0  0.05057  0.18835  0.06632  1.0000
  H   H72       1.0  0.24997  0.18528  0.47529  1.0000
  C   C94       1.0  0.12173  0.01450  0.19977  1.0000
  C   C95       1.0  0.01262  0.21995  0.11700  1.0000
  C   C96       1.0  0.21055  0.13030  0.40300  1.0000
  C   C97       1.0  0.11254  0.15016  0.02723  1.0000
  C   C98       1.0  0.12870  0.08898  0.45417  1.0000
  C   C99       1.0  0.02402  0.00364  0.23876  1.0000
  C   C100      1.0  0.22820  0.21723  0.07448  1.0000
  C   C101      1.0  0.31818  0.19948  0.38849  1.0000
  H   H73       1.0  0.01046  0.99650  0.24600  1.0000
  C   C102      1.0  0.13355  0.21243  0.48915  1.0000
  H   H74       1.0  0.13374  0.06826  0.43110  1.0000
  C   C103      1.0  0.18814  0.12832  0.30534  1.0000
  C   C104      1.0  0.19690  0.11367  0.30064  1.0000
  C   C105      1.0  0.18246  0.10245  0.29112  1.0000
  C   C106      1.0  0.15926  0.10587  0.28627  1.0000
  C   C107      1.0  0.15017  0.12048  0.29160  1.0000
  C   C108      1.0  0.16486  0.13173  0.30093  1.0000
  P   P4        1.0  0.12048  0.12509  0.28382  1.0000
  C   C109      1.0  0.11852  0.13237  0.24899  1.0000
  C   C110      1.0  0.10358  0.10832  0.28799  1.0000
  C   C111      1.0  0.08641  0.10473  0.26900  1.0000
  C   C112      1.0  0.07367  0.09162  0.27254  1.0000
  C   C113      1.0  0.07795  0.08207  0.29506  1.0000
  C   C114      1.0  0.09504  0.08556  0.31396  1.0000
  C   C115      1.0  0.10780  0.09860  0.31041  1.0000
  C   C116      1.0  0.20992  0.21862  0.23273  1.0000
  C   C117      1.0  0.11843  0.06175  0.26016  1.0000
  H   H75       1.0  0.30703  0.22513  0.27934  1.0000
  C   C118      1.0  0.03021  0.01627  0.25415  1.0000
  C   C119      1.0  0.11907  0.99254  0.28423  1.0000
  C   C120      1.0  0.11026  0.13965  0.30749  1.0000
  C   C121      1.0  0.11339  0.15497  0.30110  1.0000
  C   C122      1.0  0.10609  0.16634  0.31942  1.0000
  C   C123      1.0  0.09560  0.16252  0.34436  1.0000
  C   C124      1.0  0.09243  0.14732  0.35095  1.0000
  C   C125      1.0  0.09975  0.13591  0.33265  1.0000
  H   H76       1.0  0.19939  0.13702  0.31263  1.0000
  H   H77       1.0  0.21487  0.11102  0.30446  1.0000
  H   H78       1.0  0.18922  0.09107  0.28761  1.0000
  H   H79       1.0  0.14847  0.09706  0.27849  1.0000
  H   H80       1.0  0.15846  0.14313  0.30491  1.0000
  H   H81       1.0  0.08280  0.11197  0.25149  1.0000
  H   H82       1.0  0.06044  0.08886  0.25789  1.0000
  H   H83       1.0  0.06818  0.07189  0.29787  1.0000
  H   H84       1.0  0.09850  0.07812  0.33138  1.0000
  H   H85       1.0  0.12100  0.10115  0.32519  1.0000
  H   H86       1.0  0.08520  0.14329  0.25534  1.0000
  C   C126      1.0  0.21725  0.13449  0.45960  1.0000
  H   H87       1.0  0.15182  0.12343  0.23575  1.0000
  H   H88       1.0  0.12178  0.15817  0.28211  1.0000
  H   H89       1.0  0.10905  0.17812  0.31449  1.0000
  H   H90       1.0  0.09043  0.17133  0.35883  1.0000
  H   H91       1.0  0.08503  0.14430  0.37068  1.0000
  H   H92       1.0  0.09768  0.12426  0.33867  1.0000
  C   C127      1.0  0.12908  0.98510  0.26105  1.0000
  H   H93       1.0  0.32768  0.17134  0.04155  1.0000
  H   H94       1.0  0.22302  0.22351  0.29675  1.0000
  H   H95       1.0  0.06304  0.15312  0.45196  1.0000
  C   C128      1.0  0.01385  0.99376  0.38267  1.0000
  H   H96       1.0  0.10920  0.00876  0.12184  1.0000
  C   C129      1.0  0.26556  0.22823  0.42972  1.0000
  C   C130      1.0  0.04818  0.02526  0.24515  1.0000
  C   C131      1.0  0.22276  0.21762  0.49842  1.0000
  C   C132      1.0  0.22443  0.18506  0.02723  1.0000
  C   C133      1.0  0.05791  0.17427  0.47369  1.0000
  C   C134      1.0  0.09841  0.02000  0.15954  1.0000
  C   C135      1.0  0.15954  0.19078  0.48512  1.0000
  H   H97       1.0  0.02358  0.20513  0.14974  1.0000
  H   H98       1.0  0.10454  0.06313  0.21938  1.0000
  H   H99       1.0  0.19492  0.21089  0.43807  1.0000
  C   C136      1.0  0.11296  0.01070  0.14347  1.0000
  H   H100      1.0  0.11601  0.03110  0.30252  1.0000
  H   H101      1.0  0.14750  0.98327  0.26012  1.0000
  H   H102      1.0  0.03094  0.11251  0.09944  1.0000
  H   H103      1.0  0.03129  0.99000  0.20274  1.0000
  C   C137      1.0  0.08144  0.14302  0.05734  1.0000
  H   H104      1.0  0.17951  0.11942  0.41444  1.0000
  C   C138      1.0  0.07715  0.13064  0.04030  1.0000
  H   H105      1.0  0.05075  0.17476  0.19383  1.0000
  H   H106      1.0  0.17092  0.21083  0.07575  1.0000
  C   C139      1.0  0.16532  0.08003  0.43593  1.0000
  H   H107      1.0  0.03060  0.99296  0.37285  1.0000
  C   C140      1.0  0.28149  0.21771  0.44048  1.0000
  H   H108      1.0  0.19404  0.09412  0.44341  1.0000
  H   H109      1.0  0.11678  0.15180  0.17689  1.0000
  C   C141      1.0  0.20711  0.20942  0.45469  1.0000
  H   H110      1.0  0.11340  0.17011  0.49056  1.0000
  H   H111      1.0  0.06458  0.16704  0.10796  1.0000
  C   C142      1.0  0.28863  0.22467  0.28286  1.0000
  H   H112      1.0  0.29951  0.21820  0.36993  1.0000
  C   C143      1.0  0.02854  0.16978  0.11874  1.0000
  C   C144      1.0  0.00896  0.20994  0.13889  1.0000
  H   H113      1.0  0.20764  0.12899  0.38107  1.0000
  C   C145      1.0  0.04452  0.17290  0.17308  1.0000
  H   H114      1.0  0.12856  0.11024  0.47551  1.0000
  C   C146      1.0  0.17579  0.09283  0.44659  1.0000
  C   C147      1.0  0.18315  0.21804  0.19463  1.0000
  C   C148      1.0  0.18709  0.22756  0.05068  1.0000
  H   H115      1.0  0.11041  0.08751  0.45673  1.0000
  H   H116      1.0  0.29176  0.20853  0.31610  1.0000
  C   C149      1.0  0.00027  0.14332  0.05488  1.0000
  C   C150      1.0  0.31877  0.16523  0.02563  1.0000
  H   H117      1.0  0.06330  0.12316  0.04526  1.0000
  H   H118      1.0  0.12979  0.99645  0.30081  1.0000
  C   C151      1.0  0.10878  0.13755  0.01028  1.0000
  C   C152      1.0  0.05217  0.16873  0.12444  1.0000
  C   C153      1.0  0.28006  0.21541  0.30370  1.0000
  C   C154      1.0  0.03743  0.98845  0.05051  1.0000
  C   C155      1.0  0.12616  0.20608  0.00791  1.0000
  C   C156      1.0  0.24133  0.22392  0.29263  1.0000
  H   H119      1.0  0.15388  0.13111  0.03067  1.0000
  C   C157      1.0  0.01154  0.00985  0.47533  1.0000
  C   C158      1.0  0.32316  0.14973  0.02198  1.0000
  H   H120      1.0  0.03625  0.13947  0.10994  1.0000
  C   C159      1.0  0.03438  0.98379  0.07781  1.0000
  C   C160      1.0  0.04329  0.16814  0.03401  1.0000
  C   C161      1.0  0.09075  0.12791  0.01681  1.0000
  H   H121      1.0  0.31719  0.21272  0.44889  1.0000
  H   H122      1.0  0.14376  0.99410  0.49814  1.0000
  C   C162      1.0  0.18610  0.14142  0.02229  1.0000
  S   S23       1.0  0.04082  0.22477  0.10532  1.0000
  S   S24       1.0  0.09800  0.98502  0.07614  1.0000
  C   C163      1.0  0.30304  0.17288  0.00857  1.0000
  H   H123      1.0  0.15834  0.17353  0.01045  1.0000
  H   H124      1.0  0.03450  0.15805  0.02804  1.0000
  C   C164      1.0  0.11544  0.97993  0.23919  1.0000
  H   H125      1.0  0.08748  0.20627  0.45999  1.0000
  H   H126      1.0  0.00889  0.17561  0.18446  1.0000
  H   H127      1.0  0.21639  0.15266  0.00831  1.0000
  H   H128      1.0  0.05437  0.98739  0.04125  1.0000
  C   C165      1.0  0.12552  0.99271  0.50109  1.0000
  H   H129      1.0  0.12375  0.22159  0.47967  1.0000
  C   C166      1.0  0.23812  0.20509  0.49789  1.0000
  C   C167      1.0  0.01290  0.98545  0.09048  1.0000
  C   C168      1.0  0.99732  0.99628  0.04829  1.0000
  C   C169      1.0  0.02241  0.12112  0.08697  1.0000
  C   C170      1.0  0.04763  0.02624  0.49785  1.0000
  C   C171      1.0  0.03757  0.01964  0.00212  1.0000
  H   H130      1.0  0.05050  0.22337  0.45836  1.0000
  C   C172      1.0  0.01440  0.14766  0.07676  1.0000
  C   C173      1.0  0.00844  0.11689  0.06505  1.0000
  H   H131      1.0  0.00498  0.19704  0.05873  1.0000
  C   C174      1.0  0.02069  0.20323  0.50124  1.0000
  C   C175      1.0  0.00781  0.19486  0.48244  1.0000
  C   C176      1.0  0.12002  0.98045  0.02479  1.0000
  H   H132      1.0  0.01068  0.98191  0.11176  1.0000
  C   C177      1.0  0.01298  0.17179  0.14075  1.0000
  C   C178      1.0  0.10218  0.00762  0.00245  1.0000
  C   C179      1.0  0.06148  0.22041  0.50069  1.0000
  H   H133      1.0  0.08360  0.19173  0.00862  1.0000
  H   H134      1.0  0.08721  0.11825  0.00395  1.0000
  C   C180      1.0  0.19962  0.14870  0.00272  1.0000
  C   C181      1.0  0.99735  0.12799  0.04903  1.0000
  C   C182      1.0  0.22845  0.22871  0.05458  1.0000
  H   H135      1.0  0.19423  0.22869  0.47730  1.0000
  C   C183      1.0  0.05810  0.22865  0.47619  1.0000
  H   H136      1.0  0.19071  0.09152  0.50082  1.0000
  C   C184      1.0  0.14918  0.18320  0.00180  1.0000
  Fe  Fe12      1.0  0.11044  0.01966  0.91805  1.0000
  S   S25       1.0  0.09680  0.04369  0.92260  1.0000
  S   S26       1.0  0.12513  0.00364  0.95168  1.0000
  Fe  Fe13      1.0  0.09812  0.01791  0.85558  1.0000
  S   S27       1.0  0.08321  0.04169  0.85639  1.0000
  S   S28       1.0  0.09366  0.99987  0.82102  1.0000
  Fe  Fe14      1.0  0.11371  0.04871  0.88171  1.0000
  S   S29       1.0  0.12272  0.07331  0.86969  1.0000
  Fe  Fe15      1.0  0.06738  0.03586  0.89705  1.0000
  S   S30       1.0  0.03224  0.04546  0.90807  1.0000
  S   S31       1.0  0.13000  0.02497  0.87844  1.0000
  S   S32       1.0  0.07962  0.01166  0.89505  1.0000
  H   H137      1.0  0.02898  0.01329  0.89763  1.0000
  Fe  Fe16      1.0  0.18206  0.15699  0.87872  1.0000
  S   S33       1.0  0.15086  0.16988  0.86300  1.0000
  S   S34       1.0  0.18294  0.13214  0.89377  1.0000
  Fe  Fe17      1.0  0.21134  0.18628  0.87981  1.0000
  S   S35       1.0  0.18133  0.20038  0.86529  1.0000
  S   S36       1.0  0.24045  0.20166  0.89245  1.0000
  Fe  Fe18      1.0  0.16002  0.18729  0.89525  1.0000
  S   S37       1.0  0.13612  0.20027  0.92496  1.0000
  Fe  Fe19      1.0  0.17562  0.18185  0.83464  1.0000
  S   S38       1.0  0.17823  0.18792  0.78882  1.0000
  S   S39       1.0  0.19023  0.17420  0.91164  1.0000
  S   S40       1.0  0.20652  0.16788  0.84846  1.0000
  C   C185      1.0  0.03032  0.08708  0.80671  1.0000
  S   S41       1.0  0.09265  0.20514  0.62039  1.0000
  C   C186      1.0  0.05314  0.02638  0.75002  1.0000
  H   H138      1.0  0.00077  0.18544  0.70152  1.0000
  Fe  Fe20      1.0  0.12432  0.21145  0.59637  1.0000
  S   S42       1.0  0.14424  0.19575  0.56683  1.0000
  Fe  Fe21      1.0  0.10906  0.21675  0.65650  1.0000
  S   S43       1.0  0.10275  0.20832  0.70032  1.0000
  H   H139      1.0  0.09541  0.01819  0.99423  1.0000
  C   C187      1.0  0.04827  0.01132  0.75576  1.0000
  H   H140      1.0  0.27536  0.17671  0.90486  1.0000
  C   C188      1.0  0.15688  0.19380  0.76481  1.0000
  C   C189      1.0  0.16365  0.19739  0.73769  1.0000
  C   C190      1.0  0.14735  0.20200  0.71778  1.0000
  C   C191      1.0  0.12405  0.20294  0.72474  1.0000
  C   C192      1.0  0.11729  0.19946  0.75189  1.0000
  C   C193      1.0  0.13361  0.19498  0.77189  1.0000
  H   H141      1.0  0.18160  0.19650  0.73202  1.0000
  H   H142      1.0  0.04419  0.04644  0.81444  1.0000
  H   H143      1.0  0.09930  0.20018  0.75746  1.0000
  H   H144      1.0  0.12818  0.19227  0.79265  1.0000
  C   C194      1.0  0.14515  0.19874  0.53060  1.0000
  H   H145      1.0  0.19136  0.13920  0.52071  1.0000
  H   H146      1.0  0.22069  0.19305  0.62270  1.0000
  C   C195      1.0  0.13739  0.19769  0.96134  1.0000
  C   C196      1.0  0.09426  0.98133  0.77488  1.0000
  C   C197      1.0  0.07869  0.98878  0.50884  1.0000
  C   C198      1.0  0.04763  0.00032  0.60250  1.0000
  H   H147      1.0  0.15791  0.17721  0.95970  1.0000
  H   H148      1.0  0.11674  0.21772  0.97019  1.0000
  H   H149      1.0  0.12229  0.21825  0.53047  1.0000
  C   C199      1.0  0.31154  0.21696  0.86382  1.0000
  C   C200      1.0  0.07314  0.98057  0.95234  1.0000
  C   C201      1.0  0.28309  0.22389  0.76981  1.0000
  C   C202      1.0  0.26664  0.20788  0.87792  1.0000
  C   C203      1.0  0.28105  0.19835  0.86213  1.0000
  C   C204      1.0  0.30347  0.20281  0.85539  1.0000
  C   C205      1.0  0.32098  0.20092  0.92985  1.0000
  P   P5        1.0  0.12664  0.13421  0.98009  1.0000
  H   H150      1.0  0.27538  0.18726  0.85624  1.0000
  C   C206      1.0  0.30770  0.18875  0.93812  1.0000
  H   H151      1.0  0.22351  0.19078  0.67505  1.0000
  C   C207      1.0  0.13963  0.08954  0.87709  1.0000
  C   C208      1.0  0.15760  0.08922  0.89622  1.0000
  C   C209      1.0  0.17044  0.10235  0.90114  1.0000
  C   C210      1.0  0.16573  0.11600  0.88693  1.0000
  C   C211      1.0  0.14773  0.11635  0.86787  1.0000
  C   C212      1.0  0.13486  0.10323  0.86301  1.0000
  H   H152      1.0  0.16175  0.07882  0.90706  1.0000
  H   H153      1.0  0.18429  0.10185  0.91591  1.0000
  H   H154      1.0  0.14390  0.12666  0.85659  1.0000
  H   H155      1.0  0.12123  0.10367  0.84796  1.0000
  H   H156      1.0  0.02484  0.20814  0.70361  1.0000
  C   C213      1.0  0.00770  0.04362  0.82135  1.0000
  H   H157      1.0  0.01536  0.99582  0.62111  1.0000
  C   C214      1.0  0.11666  0.99844  0.98600  1.0000
  C   C215      1.0  0.06434  0.09165  0.83385  1.0000
  H   H158      1.0  0.20173  0.15664  0.96079  1.0000
  C   C216      1.0  0.09953  0.99574  0.78530  1.0000
  C   C217      1.0  0.10869  0.00629  0.76698  1.0000
  H   H159      1.0  0.05189  0.04414  0.71961  1.0000
  H   H160      1.0  0.03992  0.18133  0.59764  1.0000
  C   C218      1.0  0.00687  0.20893  0.70962  1.0000
  C   C219      1.0  0.14913  0.18530  0.97298  1.0000
  S   S44       1.0  0.14220  0.22077  0.63379  1.0000
  H   H161      1.0  0.24381  0.14844  0.96605  1.0000
  H   H162      1.0  0.02431  0.00093  0.82902  1.0000
  C   C220      1.0  0.27436  0.22229  0.88522  1.0000
  C   C221      1.0  0.27624  0.19688  0.77277  1.0000
  H   H163      1.0  0.10751  0.17484  0.56332  1.0000
  C   C222      1.0  0.01727  0.00823  0.50334  1.0000
  H   H164      1.0  0.19303  0.18952  0.58464  1.0000
  H   H165      1.0  0.19703  0.21730  0.91656  1.0000
  C   C223      1.0  0.20465  0.09730  0.54011  1.0000
  H   H166      1.0  0.01532  0.04944  0.76528  1.0000
  H   H167      1.0  0.02304  0.21597  0.63949  1.0000
  C   C224      1.0  0.28050  0.20621  0.96001  1.0000
  C   C225      1.0  0.04157  0.98747  0.98322  1.0000
  C   C226      1.0  0.03067  0.03859  0.81867  1.0000
  C   C227      1.0  0.25613  0.15823  0.88954  1.0000
  C   C228      1.0  0.24236  0.14602  0.89615  1.0000
  C   C229      1.0  0.23810  0.14249  0.92375  1.0000
  C   C230      1.0  0.24753  0.15119  0.94476  1.0000
  H   H168      1.0  0.27451  0.22116  0.71299  1.0000
  H   H169      1.0  0.25900  0.16118  0.86812  1.0000
  H   H170      1.0  0.23453  0.13947  0.87992  1.0000
  H   H171      1.0  0.22697  0.13320  0.92872  1.0000
  H   H172      1.0  0.09567  0.18880  0.52146  1.0000
  C   C231      1.0  0.12827  0.14981  0.50856  1.0000
  H   H173      1.0  0.04138  0.99872  0.58170  1.0000
  C   C232      1.0  0.26131  0.16353  0.93831  1.0000
  C   C233      1.0  0.05182  0.18256  0.58057  1.0000
  C   C234      1.0  0.08991  0.17894  0.56126  1.0000
  C   C235      1.0  0.20501  0.12397  0.55137  1.0000
  H   H174      1.0  0.06990  0.07681  0.86856  1.0000
  C   C236      1.0  0.19460  0.10073  0.51462  1.0000
  H   H175      1.0  0.26718  0.22534  0.66361  1.0000
  C   C237      1.0  0.10717  0.09434  0.94491  1.0000
  H   H176      1.0  0.99820  0.98270  0.96160  1.0000
  C   C238      1.0  0.10737  0.10935  0.95413  1.0000
  H   H177      1.0  0.20898  0.13297  0.56564  1.0000
  H   H178      1.0  0.08704  0.98391  0.93885  1.0000
  C   C239      1.0  0.26551  0.16699  0.91052  1.0000
  H   H179      1.0  0.07187  0.00371  0.67651  1.0000
  C   C240      1.0  0.10265  0.16490  0.90826  1.0000
  C   C241      1.0  0.26035  0.19952  0.79402  1.0000
  H   H180      1.0  0.24325  0.19906  0.71750  1.0000
  C   C242      1.0  0.21865  0.20148  0.68462  1.0000
  C   C243      1.0  0.28780  0.20898  0.76095  1.0000
  H   H181      1.0  0.24898  0.21358  0.61999  1.0000
  C   C244      1.0  0.22270  0.21893  0.55789  1.0000
  H   H182      1.0  0.15274  0.20465  0.69700  1.0000
  C   C245      1.0  0.12525  0.08434  0.95152  1.0000
  H   H183      1.0  0.03531  0.99063  0.74038  1.0000
  H   H184      1.0  0.16828  0.17968  0.52349  1.0000
  C   C246      1.0  0.13270  0.21057  0.51802  1.0000
  H   H185      1.0  0.25159  0.19016  0.80354  1.0000
  H   H186      1.0  0.27989  0.18540  0.76586  1.0000
  C   C247      1.0  0.14361  0.08934  0.96726  1.0000
  C   C248      1.0  0.11251  0.15062  0.90283  1.0000
  H   H187      1.0  0.01966  0.09009  0.78924  1.0000
  C   C249      1.0  0.23797  0.22114  0.57980  1.0000
  C   C250      1.0  0.01954  0.01274  0.82628  1.0000
  C   C251      1.0  0.11750  0.98573  0.52542  1.0000
  C   C252      1.0  0.29398  0.21835  0.95198  1.0000
  C   C253      1.0  0.06047  0.19242  0.53492  1.0000
  H   H188      1.0  0.02746  0.19474  0.55583  1.0000
  C   C254      1.0  0.17952  0.22865  0.95029  1.0000
  H   H189      1.0  0.19434  0.20571  0.54341  1.0000
  C   C255      1.0  0.03787  0.02348  0.70392  1.0000
  H   H190      1.0  0.07991  0.09782  0.83739  1.0000
  C   C256      1.0  0.07048  0.22768  0.52384  1.0000
  C   C257      1.0  0.03955  0.02838  0.97805  1.0000
  C   C258      1.0  0.03349  0.00820  0.70936  1.0000
  C   C259      1.0  0.09990  0.16985  0.93549  1.0000
  C   C260      1.0  0.04773  0.03252  0.72419  1.0000
  H   H191      1.0  0.19345  0.19798  0.97241  1.0000
  C   C261      1.0  0.05869  0.07981  0.85147  1.0000
  H   H192      1.0  0.14607  0.12942  0.52123  1.0000
  H   H193      1.0  0.06509  0.97929  0.69677  1.0000
  H   H194      1.0  0.11521  0.14691  0.88171  1.0000
  C   C262      1.0  0.19143  0.15091  0.97595  1.0000
  C   C263      1.0  0.22762  0.18816  0.96994  1.0000
  P   P6        1.0  0.02330  0.99611  0.68207  1.0000
  C   C264      1.0  0.05008  0.09536  0.81159  1.0000
  H   H195      1.0  0.05453  0.10457  0.79797  1.0000
  H   H196      1.0  0.22857  0.18946  0.94770  1.0000
  H   H197      1.0  0.05441  0.01959  0.82093  1.0000
  P   P7        1.0  0.27152  0.17538  0.96586  1.0000
  H   H198      1.0  0.11983  0.01071  0.72513  1.0000
  H   H199      1.0  0.07242  0.22177  0.54332  1.0000
  H   H200      1.0  0.08219  0.00450  0.58902  1.0000
  C   C265      1.0  0.29618  0.14953  0.98405  1.0000
  C   C266      1.0  0.28726  0.19130  0.95309  1.0000
  H   H201      1.0  0.23159  0.22298  0.74026  1.0000
  C   C267      1.0  0.04129  0.99974  0.65220  1.0000
  H   H202      1.0  0.09335  0.11699  0.94848  1.0000
  C   C268      1.0  0.03896  0.07156  0.84669  1.0000
  H   H203      1.0  0.15786  0.08163  0.97176  1.0000
  H   H204      1.0  0.03442  0.02822  0.68369  1.0000
  C   C269      1.0  0.06458  0.00305  0.65603  1.0000
  H   H205      1.0  0.31333  0.17734  0.93273  1.0000
  H   H206      1.0  0.24466  0.21609  0.82098  1.0000
  H   H207      1.0  0.09787  0.17236  0.89136  1.0000
  H   H208      1.0  0.19647  0.21653  0.81620  1.0000
  H   H209      1.0  0.09719  0.00704  0.63664  1.0000
  C   C270      1.0  0.03546  0.01626  0.51443  1.0000
  H   H210      1.0  0.28814  0.14326  0.96773  1.0000
  H   H211      1.0  0.12537  0.07284  0.94365  1.0000
  C   C271      1.0  0.19993  0.22731  0.80655  1.0000
  C   C272      1.0  0.14400  0.10438  0.97628  1.0000
  H   H212      1.0  0.20837  0.08560  0.54565  1.0000
  C   C273      1.0  0.03656  0.02328  0.82180  1.0000
  H   H213      1.0  0.31556  0.12993  0.99810  1.0000
  C   C274      1.0  0.00925  0.21365  0.51880  1.0000
  C   C275      1.0  0.00880  0.22020  0.62723  1.0000
  C   C276      1.0  0.05101  0.04209  0.97868  1.0000
  C   C277      1.0  0.02475  0.07496  0.82409  1.0000
  C   C278      1.0  0.11981  0.14135  0.92459  1.0000
  H   H214      1.0  0.12840  0.13063  0.91982  1.0000
  C   C279      1.0  0.20583  0.19820  0.58321  1.0000
  H   H215      1.0  0.26498  0.20854  0.97174  1.0000
  H   H216      1.0  0.03253  0.02451  0.95866  1.0000
  C   C280      1.0  0.07913  0.00500  0.63336  1.0000
  C   C281      1.0  0.08315  0.18689  0.53760  1.0000
  C   C282      1.0  0.11668  0.14610  0.95206  1.0000
  H   H217      1.0  0.09320  0.18119  0.93957  1.0000
  C   C283      1.0  0.04489  0.19034  0.55677  1.0000
  C   C284      1.0  0.12557  0.98486  0.99750  1.0000
  C   C285      1.0  0.22126  0.20030  0.60474  1.0000
  C   C286      1.0  0.12589  0.11453  0.96971  1.0000
  C   C287      1.0  0.24616  0.18171  0.98458  1.0000
  Fe  Fe22      1.0  0.07820  0.22814  0.60907  1.0000
  C   C288      1.0  0.11260  0.00243  0.73889  1.0000
  C   C289      1.0  0.25618  0.21423  0.80362  1.0000
  P   P8        1.0  0.00011  0.06346  0.81720  1.0000
  C   C290      1.0  0.07070  0.00357  0.60660  1.0000
  H   H218      1.0  0.05286  0.04864  0.95994  1.0000
  H   H219      1.0  0.06158  0.03316  0.76544  1.0000
  C   C291      1.0  0.15568  0.13911  0.98845  1.0000
  H   H220      1.0  0.31488  0.19508  0.84431  1.0000
  C   C292      1.0  0.01194  0.01838  0.89728  1.0000
  C   C293      1.0  0.12591  0.20808  0.97897  1.0000
  C   C294      1.0  0.07423  0.17669  0.58266  1.0000
  H   H221      1.0  0.07971  0.17088  0.60130  1.0000
  C   C295      1.0  0.31425  0.21569  0.93701  1.0000
  H   H222      1.0  0.06286  0.00340  0.96128  1.0000
  C   C296      1.0  0.18962  0.11584  0.50733  1.0000
  C   C297      1.0  0.20983  0.10890  0.55849  1.0000
  C   C298      1.0  0.22291  0.21964  0.72158  1.0000
  H   H223      1.0  0.03502  0.06228  0.86031  1.0000
  C   C299      1.0  0.19402  0.22396  0.68641  1.0000
  H   H224      1.0  0.23586  0.22173  0.93530  1.0000
  C   C300      1.0  0.05927  0.99165  0.96521  1.0000
  C   C301      1.0  0.26733  0.22641  0.79150  1.0000
  H   H225      1.0  0.11287  0.01742  0.77444  1.0000
  C   C302      1.0  0.15858  0.18887  0.51399  1.0000
  H   H226      1.0  0.32406  0.22488  0.80039  1.0000
  H   H227      1.0  0.10534  0.16484  0.97814  1.0000
  H   H228      1.0  0.12955  0.98200  0.54104  1.0000
  H   H229      1.0  0.06052  0.98707  0.51148  1.0000
  H   H230      1.0  0.11958  0.15140  0.52822  1.0000
  C   C303      1.0  0.22975  0.20613  0.70857  1.0000
  C   C304      1.0  0.20096  0.21048  0.67339  1.0000
  H   H231      1.0  0.04036  0.01460  0.53578  1.0000
  C   C305      1.0  0.03836  0.00230  0.73562  1.0000
  C   C306      1.0  0.23722  0.21182  0.60313  1.0000
  H   H232      1.0  0.30061  0.20672  0.74510  1.0000
  C   C307      1.0  0.10690  0.16051  0.95734  1.0000
  H   H233      1.0  0.16376  0.14782  0.94774  1.0000
  C   C308      1.0  0.20658  0.20743  0.55984  1.0000
  C   C309      1.0  0.19498  0.12745  0.52590  1.0000
  H   H234      1.0  0.25018  0.20322  0.51457  1.0000
  C   C310      1.0  0.16968  0.14598  0.96868  1.0000
  H   H235      1.0  0.21755  0.10621  0.57827  1.0000
  S   S45       1.0  0.11358  0.98366  0.69287  1.0000
  C   C311      1.0  0.03293  0.99850  0.62513  1.0000
  H   H236      1.0  0.00786  0.00066  0.51654  1.0000
  H   H237      1.0  0.19208  0.20688  0.65501  1.0000
  H   H238      1.0  0.05298  0.00641  0.77550  1.0000
  C   C312      1.0  0.29654  0.22692  0.87784  1.0000
  H   H239      1.0  0.18908  0.21979  0.76687  1.0000
  C   C313      1.0  0.09402  0.98355  0.52935  1.0000
  C   C314      1.0  0.99724  0.22278  0.71830  1.0000
  C   C315      1.0  0.00879  0.03389  0.90202  1.0000
  H   H240      1.0  0.09335  0.09051  0.93194  1.0000
  C   C316      1.0  0.31192  0.14191  0.00116  1.0000
  C   C317      1.0  0.14343  0.13744  0.50458  1.0000
  H   H241      1.0  0.06275  0.16865  0.99602  1.0000
  C   C318      1.0  0.20771  0.19305  0.98386  1.0000
  C   C319      1.0  0.10751  0.98798  0.72854  1.0000
  H   H242      1.0  0.32450  0.22510  0.93030  1.0000
  H   H243      1.0  0.06201  0.03224  0.50624  1.0000
  H   H244      1.0  0.15868  0.10807  0.98783  1.0000
  C   C320      1.0  0.00200  0.05782  0.76061  1.0000
  C   C321      1.0  0.22081  0.22595  0.94624  1.0000
  P   P9        1.0  0.02375  0.00155  0.00078  1.0000
  H   H245      1.0  0.16254  0.22639  0.94245  1.0000
  C   C322      1.0  0.29142  0.16507  0.98785  1.0000
  C   C323      1.0  0.19894  0.22350  0.93570  1.0000
  H   H246      1.0  0.00342  0.05326  0.71690  1.0000
  C   C324      1.0  0.20449  0.22842  0.71105  1.0000
  H   H247      1.0  0.99818  0.07845  0.87178  1.0000
  P   P10       1.0  0.05165  0.20126  0.50292  1.0000
  C   C325      1.0  0.01317  0.22839  0.60308  1.0000
  H   H248      1.0  0.01884  0.22041  0.53327  1.0000
  Fe  Fe23      1.0  0.30109  0.32328  0.10796  1.0000
  C   C326      1.0  0.30265  0.42689  0.04124  1.0000
  Fe  Fe24      1.0  0.27576  0.29278  0.11705  1.0000
  S   S46       1.0  0.30874  0.28149  0.13118  1.0000
  S   S47       1.0  0.24991  0.27358  0.11474  1.0000
  Fe  Fe25      1.0  0.31458  0.30256  0.15545  1.0000
  C   C327      1.0  0.29803  0.39341  0.15626  1.0000
  C   C328      1.0  0.18800  0.25568  0.27420  1.0000
  C   C329      1.0  0.26537  0.37357  0.13627  1.0000
  S   S48       1.0  0.28081  0.31355  0.14358  1.0000
  S   S49       1.0  0.29254  0.30360  0.07996  1.0000
  H   H249      1.0  0.17337  0.27407  0.33375  1.0000
  S   S50       1.0  0.14461  0.25602  0.13014  1.0000
  C   C330      1.0  0.17420  0.26264  0.29448  1.0000
  C   C331      1.0  0.22176  0.26069  0.30138  1.0000
  C   C332      1.0  0.28476  0.41083  0.07526  1.0000
  H   H250      1.0  0.30738  0.35816  0.47227  1.0000
  H   H251      1.0  0.29132  0.27863  0.30616  1.0000
  C   C333      1.0  0.14730  0.28291  0.03390  1.0000
  C   C334      1.0  0.17536  0.26453  0.05076  1.0000
  C   C335      1.0  0.22063  0.26900  0.12027  1.0000
  C   C336      1.0  0.21427  0.25379  0.11767  1.0000
  C   C337      1.0  0.19122  0.24955  0.12101  1.0000
  C   C338      1.0  0.17414  0.26053  0.12684  1.0000
  C   C339      1.0  0.18054  0.27571  0.12974  1.0000
  C   C340      1.0  0.20362  0.27994  0.12650  1.0000
  H   H252      1.0  0.22727  0.24521  0.11291  1.0000
  H   H253      1.0  0.19368  0.23286  0.34729  1.0000
  H   H254      1.0  0.16750  0.28430  0.13430  1.0000
  H   H255      1.0  0.20818  0.29167  0.12855  1.0000
  H   H256      1.0  0.20839  0.44824  0.10145  1.0000
  C   C341      1.0  0.31862  0.42945  0.15221  1.0000
  H   H257      1.0  0.24906  0.44018  0.09781  1.0000
  C   C342      1.0  0.30128  0.35345  0.49153  1.0000
  H   H258      1.0  0.24698  0.24491  0.19471  1.0000
  H   H259      1.0  0.28472  0.32827  0.03820  1.0000
  C   C343      1.0  0.26749  0.28187  0.22874  1.0000
  H   H260      1.0  0.21567  0.27243  0.33981  1.0000
  C   C344      1.0  0.21075  0.42386  0.15579  1.0000
  H   H261      1.0  0.28285  0.28650  0.18923  1.0000
  C   C345      1.0  0.24785  0.42488  0.13279  1.0000
  H   H262      1.0  0.32793  0.27261  0.19176  1.0000
  H   H263      1.0  0.13298  0.29070  0.03780  1.0000
  H   H264      1.0  0.17512  0.23949  0.43233  1.0000
  C   C346      1.0  0.24075  0.29379  0.47141  1.0000
  H   H265      1.0  0.26545  0.44106  0.17467  1.0000
  H   H266      1.0  0.15572  0.26319  0.29192  1.0000
  S   S51       1.0  0.30004  0.34788  0.09228  1.0000
  C   C347      1.0  0.32118  0.44853  0.18787  1.0000
  P   P11       1.0  0.27769  0.41894  0.13064  1.0000
  C   C348      1.0  0.26388  0.27901  0.36855  1.0000
  H   H267      1.0  0.19998  0.41939  0.17201  1.0000
  C   C349      1.0  0.26462  0.27343  0.45254  1.0000
  H   H268      1.0  0.26573  0.35513  0.47950  1.0000
  H   H269      1.0  0.28944  0.28299  0.01738  1.0000
  H   H270      1.0  0.29017  0.40464  0.03267  1.0000
  C   C350      1.0  0.28010  0.39904  0.13954  1.0000
  C   C351      1.0  0.18188  0.23592  0.38915  1.0000
  C   C352      1.0  0.22536  0.24774  0.39945  1.0000
  C   C353      1.0  0.20794  0.26781  0.32146  1.0000
  C   C354      1.0  0.27468  0.25341  0.35496  1.0000
  C   C355      1.0  0.18541  0.23360  0.19090  1.0000
  C   C356      1.0  0.28408  0.25891  0.33040  1.0000
  C   C357      1.0  0.24859  0.27116  0.43140  1.0000
  C   C358      1.0  0.24399  0.26371  0.04234  1.0000
  C   C359      1.0  0.24639  0.25852  0.23208  1.0000
  H   H271      1.0  0.23687  0.26012  0.06190  1.0000
  H   H272      1.0  0.21633  0.27918  0.41400  1.0000
  H   H273      1.0  0.24075  0.41121  0.16879  1.0000
  C   C360      1.0  0.15695  0.27463  0.05569  1.0000
  C   C361      1.0  0.20002  0.24169  0.20796  1.0000
  H   H274      1.0  0.25653  0.28703  0.38318  1.0000
  C   C362      1.0  0.21548  0.44010  0.11604  1.0000
  H   H275      1.0  0.33005  0.39925  0.08024  1.0000
  C   C363      1.0  0.33016  0.28995  0.22275  1.0000
  C   C364      1.0  0.17458  0.27101  0.00220  1.0000
  P   P12       1.0  0.25281  0.25617  0.40618  1.0000
  H   H276      1.0  0.31318  0.44866  0.05578  1.0000
  C   C365      1.0  0.27769  0.35181  0.49559  1.0000
  H   H277      1.0  0.29940  0.44461  0.10336  1.0000
  C   C366      1.0  0.28323  0.36810  0.15290  1.0000
  H   H278      1.0  0.25050  0.27461  0.26543  1.0000
  C   C367      1.0  0.23308  0.26027  0.01746  1.0000
  C   C368      1.0  0.26449  0.26342  0.37425  1.0000
  H   H279      1.0  0.24009  0.25974  0.30465  1.0000
  H   H280      1.0  0.18368  0.43789  0.13842  1.0000
  Fe  Fe26      1.0  0.32539  0.29314  0.09531  1.0000
  H   H281      1.0  0.32626  0.30119  0.03118  1.0000
  H   H282      1.0  0.18279  0.25839  0.06795  1.0000
  C   C369      1.0  0.29947  0.37802  0.16300  1.0000
  H   H283      1.0  0.15018  0.27597  0.07650  1.0000
  C   C370      1.0  0.22879  0.28056  0.43028  1.0000
  C   C371      1.0  0.29645  0.24538  0.42025  1.0000
  H   H284      1.0  0.25320  0.36575  0.12787  1.0000
  H   H285      1.0  0.18044  0.27600  0.49453  1.0000
  C   C372      1.0  0.31224  0.23492  0.43133  1.0000
  H   H286      1.0  0.28023  0.26663  0.45395  1.0000
  C   C373      1.0  0.27275  0.27870  0.20117  1.0000
  C   C374      1.0  0.26520  0.26539  0.18907  1.0000
  C   C375      1.0  0.28786  0.42185  0.09572  1.0000
  C   C376      1.0  0.18753  0.24063  0.41572  1.0000
  C   C377      1.0  0.26368  0.38898  0.12978  1.0000
  H   H287      1.0  0.20951  0.29894  0.44937  1.0000
  H   H288      1.0  0.27569  0.24135  0.35905  1.0000
  H   H289      1.0  0.31363  0.37369  0.17532  1.0000
  C   C378      1.0  0.28394  0.44012  0.17297  1.0000
  C   C379      1.0  0.27298  0.24215  0.41944  1.0000
  H   H290      1.0  0.30474  0.37771  0.06932  1.0000
  H   H291      1.0  0.28490  0.35607  0.15719  1.0000
  C   C380      1.0  0.18398  0.26239  0.02392  1.0000
  H   H292      1.0  0.21339  0.24983  0.44174  1.0000
  H   H293      1.0  0.29252  0.25119  0.31595  1.0000
  C   C381      1.0  0.20156  0.43428  0.13688  1.0000
  C   C382      1.0  0.22487  0.29178  0.45027  1.0000
  C   C383      1.0  0.28350  0.27442  0.32493  1.0000
  H   H294      1.0  0.30258  0.25605  0.41238  1.0000
  C   C384      1.0  0.26438  0.27171  0.04221  1.0000
  H   H295      1.0  0.27697  0.40019  0.08014  1.0000
  H   H296      1.0  0.26934  0.26294  0.16765  1.0000
  C   C385      1.0  0.29724  0.44929  0.18981  1.0000
  H   H297      1.0  0.24975  0.39298  0.11676  1.0000
  C   C386      1.0  0.31767  0.37642  0.08513  1.0000
  C   C387      1.0  0.20921  0.24643  0.42093  1.0000
  C   C388      1.0  0.32509  0.29204  0.46541  1.0000
  C   C389      1.0  0.29754  0.43568  0.08828  1.0000
  H   H298      1.0  0.32509  0.33386  0.04707  1.0000
  C   C390      1.0  0.23856  0.43545  0.11400  1.0000
  C   C391      1.0  0.25429  0.27187  0.24416  1.0000
  C   C392      1.0  0.31888  0.33421  0.02605  1.0000
  C   C393      1.0  0.23382  0.41920  0.15383  1.0000
  C   C394      1.0  0.25228  0.25526  0.20448  1.0000
  H   H299      1.0  0.28073  0.24058  0.25077  1.0000
  H   H300      1.0  0.27322  0.29652  0.33986  1.0000
  C   C395      1.0  0.27334  0.28446  0.34395  1.0000
  H   H301      1.0  0.27379  0.29210  0.23808  1.0000
  C   C396      1.0  0.29593  0.33095  0.02106  1.0000
  H   H302      1.0  0.27311  0.28630  0.48867  1.0000
  H   H303      1.0  0.28902  0.45714  0.20418  1.0000
  H   H304      1.0  0.16523  0.23112  0.38528  1.0000
  C   C397      1.0  0.18415  0.26873  0.31806  1.0000
  C   C398      1.0  0.29226  0.41332  0.04818  1.0000
  H   H305      1.0  0.23182  0.24304  0.35603  1.0000
  H   H306      1.0  0.31117  0.40068  0.16392  1.0000
  C   C399      1.0  0.19797  0.23687  0.36778  1.0000
  C   C400      1.0  0.27360  0.27683  0.01735  1.0000
  C   C401      1.0  0.31975  0.36258  0.09947  1.0000
  P   P13       1.0  0.23007  0.24516  0.25207  1.0000
  H   H307      1.0  0.24475  0.23320  0.04829  1.0000
  C   C402      1.0  0.30515  0.43810  0.06124  1.0000
  C   C403      1.0  0.29455  0.43015  0.15391  1.0000
  H   H308      1.0  0.23773  0.30246  0.48694  1.0000
  H   H309      1.0  0.32716  0.42199  0.13742  1.0000
  C   C404      1.0  0.32728  0.29220  0.49442  1.0000
  H   H310      1.0  0.17553  0.23944  0.17504  1.0000
  H   H311      1.0  0.18663  0.23784  0.11875  1.0000
  H   H312      1.0  0.20132  0.25379  0.20490  1.0000
  C   C405      1.0  0.21196  0.25473  0.27740  1.0000
  C   C406      1.0  0.24977  0.23315  0.27145  1.0000
  S   S52       1.0  0.32571  0.30532  0.19996  1.0000
  H   H313      1.0  0.30875  0.42881  0.02038  1.0000
  C   C407      1.0  0.26066  0.28467  0.47244  1.0000
  C   C408      1.0  0.21968  0.24264  0.37291  1.0000
  H   H314      1.0  0.27302  0.27395  0.06149  1.0000
  C   C409      1.0  0.15620  0.28117  0.00717  1.0000
  Fe  Fe27      1.0  0.12675  0.23333  0.12517  1.0000
  H   H315      1.0  0.31399  0.30034  0.45541  1.0000
  H   H316      1.0  0.17977  0.25091  0.25635  1.0000
  P   P14       1.0  0.20747  0.24913  0.01762  1.0000
  H   H317      1.0  0.21241  0.25706  0.49356  1.0000
  H   H318      1.0  0.06193  0.25005  0.45555  1.0000
  C   C410      1.0  0.20778  0.23429  0.04320  1.0000
  H   H319      1.0  0.32819  0.32897  0.47080  1.0000
  C   C411      1.0  0.21250  0.23426  0.22900  1.0000
  H   H320      1.0  0.17098  0.23129  0.04150  1.0000
  H   H321      1.0  0.29977  0.24502  0.49176  1.0000
  C   C412      1.0  0.07349  0.25093  0.49765  1.0000
  C   C413      1.0  0.27359  0.23347  0.26669  1.0000
  C   C414      1.0  0.06440  0.24379  0.47457  1.0000
  H   H322      1.0  0.26530  0.22951  0.49231  1.0000
  H   H323      1.0  0.07804  0.26273  0.49663  1.0000
  Fe  Fe28      1.0  0.30818  0.32037  0.61114  1.0000
  H   H324      1.0  0.32532  0.30426  0.76373  1.0000
  Fe  Fe29      1.0  0.28152  0.29052  0.61247  1.0000
  S   S53       1.0  0.31482  0.27721  0.61055  1.0000
  S   S54       1.0  0.25387  0.27248  0.61452  1.0000
  C   C415      1.0  0.27015  0.26443  0.76425  1.0000
  C   C416      1.0  0.22333  0.23363  0.97115  1.0000
  H   H325      1.0  0.99728  0.24020  0.56896  1.0000
  C   C417      1.0  0.28075  0.23127  0.70339  1.0000
  S   S55       1.0  0.29455  0.30581  0.64610  1.0000
  S   S56       1.0  0.29233  0.30589  0.57760  1.0000
  H   H326      1.0  0.21214  0.23753  0.84384  1.0000
  S   S57       1.0  0.14492  0.26513  0.62061  1.0000
  C   C418      1.0  0.28809  0.25951  0.52494  1.0000
  S   S58       1.0  0.04171  0.23202  0.59097  1.0000
  C   C419      1.0  0.25071  0.25414  0.54412  1.0000
  H   H327      1.0  0.27255  0.29488  0.80714  1.0000
  H   H328      1.0  0.30247  0.23786  0.88436  1.0000
  C   C420      1.0  0.19571  0.22921  0.77842  1.0000
  C   C421      1.0  0.19859  0.25584  0.50836  1.0000
  C   C422      1.0  0.22351  0.27089  0.61669  1.0000
  C   C423      1.0  0.20850  0.28349  0.61690  1.0000
  C   C424      1.0  0.18454  0.28151  0.61824  1.0000
  C   C425      1.0  0.17528  0.26695  0.61932  1.0000
  C   C426      1.0  0.19033  0.25435  0.61932  1.0000
  C   C427      1.0  0.21427  0.25633  0.61807  1.0000
  H   H329      1.0  0.21530  0.29475  0.61591  1.0000
  H   H330      1.0  0.17306  0.29133  0.61830  1.0000
  H   H331      1.0  0.18354  0.24308  0.62019  1.0000
  H   H332      1.0  0.22570  0.24650  0.61813  1.0000
  C   C428      1.0  0.28441  0.24657  0.66216  1.0000
  H   H333      1.0  0.00777  0.23271  0.71894  1.0000
  H   H334      1.0  0.27066  0.31672  0.71263  1.0000
  C   C429      1.0  0.29609  0.25738  0.67729  1.0000
  C   C430      1.0  0.24872  0.24182  0.52602  1.0000
  P   P15       1.0  0.19442  0.24528  0.72887  1.0000
  H   H335      1.0  0.27852  0.33827  0.56129  1.0000
  C   C431      1.0  0.20398  0.23949  0.98522  1.0000
  S   S59       1.0  0.30392  0.34640  0.61082  1.0000
  H   H336      1.0  0.32537  0.30358  0.98018  1.0000
  H   H337      1.0  0.32033  0.25750  0.79878  1.0000
  C   C432      1.0  0.15560  0.25546  0.70005  1.0000
  C   C433      1.0  0.21345  0.25291  0.80922  1.0000
  C   C434      1.0  0.30183  0.33510  0.97221  1.0000
  H   H338      1.0  0.24801  0.28404  0.77065  1.0000
  H   H339      1.0  0.25122  0.34512  0.52403  1.0000
  H   H340      1.0  0.12587  0.26276  0.67688  1.0000
  H   H341      1.0  0.18350  0.27763  0.73333  1.0000
  H   H342      1.0  0.26397  0.23765  0.79966  1.0000
  C   C435      1.0  0.13205  0.25660  0.69484  1.0000
  H   H343      1.0  0.18098  0.23367  0.56182  1.0000
  C   C436      1.0  0.20900  0.25491  0.78105  1.0000
  H   H344      1.0  0.23596  0.29738  0.68335  1.0000
  H   H345      1.0  0.18137  0.26981  0.98144  1.0000
  C   C437      1.0  0.29891  0.33197  0.71199  1.0000
  C   C438      1.0  0.28605  0.24752  0.50640  1.0000
  C   C439      1.0  0.19998  0.24307  0.76542  1.0000
  H   H346      1.0  0.11255  0.23511  0.74771  1.0000
  H   H347      1.0  0.14982  0.25278  0.56274  1.0000
  C   C440      1.0  0.19898  0.24375  0.52720  1.0000
  C   C441      1.0  0.20827  0.26178  0.71534  1.0000
  H   H348      1.0  0.30848  0.28144  0.82103  1.0000
  C   C442      1.0  0.20893  0.28911  0.70950  1.0000
  C   C443      1.0  0.22845  0.28753  0.69277  1.0000
  C   C444      1.0  0.23798  0.27316  0.68751  1.0000
  C   C445      1.0  0.22794  0.26030  0.69864  1.0000
  C   C446      1.0  0.28490  0.34223  0.54159  1.0000
  C   C447      1.0  0.12455  0.24115  0.73488  1.0000
  C   C448      1.0  0.27038  0.26288  0.54363  1.0000
  H   H349      1.0  0.16729  0.26067  0.68564  1.0000
  H   H350      1.0  0.28128  0.24837  0.64033  1.0000
  C   C449      1.0  0.32905  0.23506  0.76011  1.0000
  H   H351      1.0  0.22047  0.26203  0.82120  1.0000
  C   C450      1.0  0.19888  0.27629  0.72079  1.0000
  C   C451      1.0  0.31569  0.37650  0.60861  1.0000
  H   H352      1.0  0.30881  0.35312  0.76180  1.0000
  C   C452      1.0  0.32402  0.36141  0.61045  1.0000
  H   H353      1.0  0.21265  0.26567  0.77168  1.0000
  C   C453      1.0  0.32426  0.34646  0.76609  1.0000
  C   C454      1.0  0.30794  0.34522  0.70059  1.0000
  H   H354      1.0  0.32007  0.34095  0.55432  1.0000
  H   H355      1.0  0.23530  0.24928  0.69369  1.0000
  H   H356      1.0  0.29525  0.33534  0.95134  1.0000
  C   C455      1.0  0.24191  0.26600  0.99261  1.0000
  H   H357      1.0  0.20129  0.30023  0.71322  1.0000
  H   H358      1.0  0.26970  0.32854  0.99036  1.0000
  H   H359      1.0  0.23722  0.25688  0.55896  1.0000
  H   H360      1.0  0.30910  0.26377  0.71680  1.0000
  C   C456      1.0  0.30851  0.34375  0.53753  1.0000
  H   H361      1.0  0.32390  0.40031  0.60767  1.0000
  S   S60       1.0  0.10925  0.23376  0.58284  1.0000
  C   C457      1.0  0.29509  0.35324  0.68071  1.0000
  H   H362      1.0  0.31374  0.34126  0.80770  1.0000
  S   S61       1.0  0.09324  0.23960  0.64615  1.0000
  C   C458      1.0  0.20877  0.23913  0.82201  1.0000
  H   H363      1.0  0.31798  0.30059  0.50663  1.0000
  H   H364      1.0  0.29739  0.37869  0.60703  1.0000
  H   H365      1.0  0.09834  0.24988  0.70766  1.0000
  C   C459      1.0  0.29277  0.24200  0.71864  1.0000
  C   C460      1.0  0.30001  0.25522  0.70544  1.0000
  C   C461      1.0  0.31687  0.34919  0.51232  1.0000
  C   C462      1.0  0.28745  0.33124  0.99415  1.0000
  C   C463      1.0  0.27732  0.32703  0.70399  1.0000
  C   C464      1.0  0.26466  0.33515  0.68426  1.0000
  C   C465      1.0  0.27358  0.34821  0.67261  1.0000
  C   C466      1.0  0.16295  0.26547  0.52843  1.0000
  C   C467      1.0  0.18198  0.23650  0.97514  1.0000
  C   C468      1.0  0.27657  0.23358  0.67526  1.0000
  H   H366      1.0  0.25927  0.25980  0.74845  1.0000
  C   C469      1.0  0.18058  0.26662  0.50891  1.0000
  C   C470      1.0  0.32694  0.33973  0.79205  1.0000
  H   H367      1.0  0.27201  0.27217  0.55805  1.0000
  H   H368      1.0  0.25279  0.27199  0.67405  1.0000
  H   H369      1.0  0.26930  0.27827  0.97334  1.0000
  C   C471      1.0  0.16383  0.24728  0.72305  1.0000
  H   H370      1.0  0.30170  0.36316  0.67076  1.0000
  H   H371      1.0  0.08262  0.24862  0.54044  1.0000
  C   C472      1.0  0.32471  0.33865  0.97720  1.0000
  C   C473      1.0  0.11653  0.24942  0.71220  1.0000
  H   H372      1.0  0.23321  0.26420  0.97325  1.0000
  H   H373      1.0  0.24818  0.33115  0.67752  1.0000
  H   H374      1.0  0.26418  0.35425  0.65660  1.0000
  H   H375      1.0  0.14880  0.28768  0.99033  1.0000
  H   H376      1.0  0.15367  0.23317  0.75754  1.0000
  Fe  Fe30      1.0  0.12563  0.24288  0.62116  1.0000
  P   P16       1.0  0.22320  0.23057  0.52729  1.0000
  C   C474      1.0  0.29066  0.25684  0.77185  1.0000
  C   C475      1.0  0.30438  0.26303  0.79251  1.0000
  C   C476      1.0  0.29770  0.27665  0.80525  1.0000
  C   C477      1.0  0.27744  0.28424  0.79738  1.0000
  C   C478      1.0  0.26366  0.27813  0.77687  1.0000
  H   H377      1.0  0.30213  0.26750  0.66724  1.0000
  C   C479      1.0  0.26643  0.23870  0.50687  1.0000
  H   H378      1.0  0.25043  0.22999  0.57907  1.0000
  C   C480      1.0  0.26950  0.34619  0.52063  1.0000
  H   H379      1.0  0.30344  0.26617  0.52498  1.0000
  C   C481      1.0  0.14807  0.24005  0.74031  1.0000
  C   C482      1.0  0.07632  0.24292  0.52230  1.0000
  Fe  Fe31      1.0  0.32830  0.29314  0.64206  1.0000
  C   C483      1.0  0.18112  0.24265  0.54665  1.0000
  C   C484      1.0  0.16325  0.25350  0.54725  1.0000
  H   H380      1.0  0.16672  0.24008  0.98649  1.0000
  H   H381      1.0  0.32314  0.30078  0.71272  1.0000
  H   H382      1.0  0.30858  0.32532  0.72686  1.0000
  C   C485      1.0  0.26224  0.27412  0.99257  1.0000
  P   P17       1.0  0.29884  0.23930  0.75493  1.0000
  Fe  Fe32      1.0  0.32628  0.29325  0.57798  1.0000
  H   H383      1.0  0.14918  0.27393  0.52932  1.0000
  H   H384      1.0  0.24040  0.23500  0.97935  1.0000
  H   H385      1.0  0.18006  0.23064  0.67756  1.0000
  H   H386      1.0  0.26341  0.22977  0.89745  1.0000
  H   H387      1.0  0.28866  0.22985  0.95709  1.0000
  Fe  Fe33      1.0  0.26132  0.67607  0.37492  1.0000
  S   S62       1.0  0.28029  0.69708  0.36634  1.0000
  S   S63       1.0  0.22295  0.67772  0.38545  1.0000
  Fe  Fe34      1.0  0.30768  0.68703  0.39407  1.0000
  C   C486      1.0  0.24414  0.70335  0.02463  1.0000
  C   C487      1.0  0.27077  0.71639  0.16989  1.0000
  H   H388      1.0  0.08963  0.72393  0.30021  1.0000
  H   H389      1.0  0.31928  0.70852  0.19536  1.0000
  H   H390      1.0  0.13418  0.72466  0.48191  1.0000
  S   S64       1.0  0.28788  0.66631  0.40458  1.0000
  S   S65       1.0  0.27670  0.66314  0.33872  1.0000
  C   C488      1.0  0.28497  0.60580  0.30944  1.0000
  H   H391      1.0  0.23083  0.65320  0.42245  1.0000
  C   C489      1.0  0.30851  0.58834  0.37034  1.0000
  H   H392      1.0  0.27111  0.60159  0.32203  1.0000
  H   H393      1.0  0.31450  0.60634  0.42843  1.0000
  H   H394      1.0  0.30978  0.52710  0.26444  1.0000
  C   C490      1.0  0.25337  0.64788  0.45638  1.0000
  C   C491      1.0  0.25915  0.65109  0.48382  1.0000
  H   H395      1.0  0.21775  0.67822  0.49707  1.0000
  C   C492      1.0  0.23528  0.71764  0.49396  1.0000
  C   C493      1.0  0.19900  0.69082  0.38395  1.0000
  C   C494      1.0  0.20013  0.70609  0.37561  1.0000
  C   C495      1.0  0.26988  0.69907  0.47095  1.0000
  C   C496      1.0  0.15852  0.70974  0.38318  1.0000
  C   C497      1.0  0.15776  0.69456  0.39130  1.0000
  C   C498      1.0  0.17766  0.68530  0.39189  1.0000
  C   C499      1.0  0.23283  0.71180  0.29732  1.0000
  H   H396      1.0  0.16454  0.72808  0.02395  1.0000
  H   H397      1.0  0.14149  0.68983  0.39719  1.0000
  H   H398      1.0  0.17637  0.67361  0.39825  1.0000
  H   H399      1.0  0.23000  0.69572  0.02244  1.0000
  H   H400      1.0  0.29133  0.61035  0.37422  1.0000
  H   H401      1.0  0.29308  0.58215  0.37443  1.0000
  H   H402      1.0  0.23380  0.70405  0.21905  1.0000
  C   C500      1.0  0.30297  0.63457  0.47504  1.0000
  H   H403      1.0  0.24627  0.69548  0.43756  1.0000
  H   H404      1.0  0.19897  0.72266  0.21746  1.0000
  C   C501      1.0  0.32123  0.61669  0.27786  1.0000
  H   H405      1.0  0.31568  0.61089  0.17637  1.0000
  H   H406      1.0  0.17739  0.70649  0.25485  1.0000
  C   C502      1.0  0.23164  0.71028  0.46880  1.0000
  S   S66       1.0  0.13171  0.72011  0.38267  1.0000
  C   C503      1.0  0.25720  0.70288  0.04878  1.0000
  C   C504      1.0  0.32250  0.56206  0.23981  1.0000
  S   S67       1.0  0.32665  0.67603  0.35821  1.0000
  C   C505      1.0  0.30744  0.60438  0.37021  1.0000
  C   C506      1.0  0.24586  0.71130  0.20874  1.0000
  C   C507      1.0  0.28200  0.72186  0.02999  1.0000
  C   C508      1.0  0.19907  0.72271  0.27483  1.0000
  H   H407      1.0  0.24962  0.69683  0.17307  1.0000
  C   C509      1.0  0.28752  0.62138  0.30630  1.0000
  H   H408      1.0  0.28582  0.61397  0.46370  1.0000
  H   H409      1.0  0.24814  0.71300  0.30959  1.0000
  H   H410      1.0  0.27570  0.62925  0.31649  1.0000
  H   H411      1.0  0.23771  0.68766  0.29389  1.0000
  C   C510      1.0  0.32165  0.64376  0.46902  1.0000
  H   H412      1.0  0.20839  0.67275  0.44812  1.0000
  C   C511      1.0  0.30562  0.62682  0.29049  1.0000
  H   H413      1.0  0.27788  0.71320  0.14993  1.0000
  Fe  Fe35      1.0  0.30532  0.65540  0.36723  1.0000
  H   H414      1.0  0.29037  0.70249  0.23135  1.0000
  H   H415      1.0  0.21641  0.71047  0.36912  1.0000
  C   C512      1.0  0.24895  0.70101  0.45729  1.0000
  C   C513      1.0  0.17993  0.71558  0.37543  1.0000
  C   C514      1.0  0.23505  0.65562  0.44376  1.0000
  S   S68       1.0  0.29366  0.69431  0.28837  1.0000
  C   C515      1.0  0.21907  0.72447  0.29050  1.0000
  H   H416      1.0  0.30916  0.60191  0.22394  1.0000
  H   H417      1.0  0.28339  0.69207  0.46169  1.0000
  C   C516      1.0  0.32846  0.56062  0.28920  1.0000
  H   H418      1.0  0.24578  0.72755  0.24160  1.0000
  H   H419      1.0  0.20215  0.68431  0.26674  1.0000
  C   C517      1.0  0.31520  0.69756  0.26310  1.0000
  C   C518      1.0  0.30841  0.70182  0.23631  1.0000
  C   C519      1.0  0.30045  0.62104  0.46018  1.0000
  H   H420      1.0  0.16237  0.71966  0.31117  1.0000
  C   C520      1.0  0.25290  0.72456  0.22164  1.0000
  H   H421      1.0  0.12327  0.71308  0.32503  1.0000
  C   C521      1.0  0.17185  0.72594  0.00366  1.0000
  Fe  Fe36      1.0  0.29719  0.68407  0.33152  1.0000
  C   C522      1.0  0.31498  0.53880  0.26446  1.0000
  H   H422      1.0  0.25311  0.69503  0.06514  1.0000
  C   C523      1.0  0.12580  0.72052  0.30754  1.0000
  C   C524      1.0  0.27619  0.71210  0.05140  1.0000
  C   C525      1.0  0.19302  0.70813  0.26640  1.0000
  C   C526      1.0  0.20694  0.69554  0.27313  1.0000
  C   C527      1.0  0.22688  0.69739  0.28852  1.0000
  H   H423      1.0  0.20484  0.71953  0.01945  1.0000
  C   C528      1.0  0.31661  0.61668  0.44009  1.0000
  C   C529      1.0  0.10683  0.72663  0.29354  1.0000
  H   H424      1.0  0.30772  0.63893  0.28839  1.0000
  C   C530      1.0  0.25482  0.70721  0.18290  1.0000
  C   C531      1.0  0.22232  0.66660  0.45834  1.0000
  H   H425      1.0  0.28637  0.72469  0.31623  1.0000
  H   H426      1.0  0.28687  0.71135  0.06968  1.0000
  H   H427      1.0  0.21559  0.71201  0.45784  1.0000
  H   H428      1.0  0.29863  0.58365  0.30060  1.0000
  C   C532      1.0  0.30078  0.59562  0.29726  1.0000
  H   H429      1.0  0.26296  0.63948  0.44449  1.0000
  C   C533      1.0  0.26889  0.72246  0.00586  1.0000
  C   C534      1.0  0.32128  0.54565  0.28918  1.0000
  C   C535      1.0  0.14800  0.72428  0.29950  1.0000
  C   C536      1.0  0.31912  0.60099  0.28140  1.0000
  S   S69       1.0  0.32006  0.70357  0.42688  1.0000
  C   C537      1.0  0.27360  0.70645  0.49605  1.0000
  H   H430      1.0  0.32085  0.53935  0.30840  1.0000
  H   H431      1.0  0.18082  0.72725  0.36884  1.0000
  C   C538      1.0  0.32476  0.70522  0.21584  1.0000
  C   C539      1.0  0.31552  0.54701  0.23980  1.0000
  H   H432      1.0  0.27976  0.72324  0.40729  1.0000
  H   H433      1.0  0.28843  0.72598  0.26568  1.0000
  C   C540      1.0  0.24594  0.66190  0.49863  1.0000
  H   H434      1.0  0.31066  0.54166  0.22064  1.0000
  H   H435      1.0  0.32291  0.56815  0.22046  1.0000
  C   C541      1.0  0.32621  0.60084  0.21499  1.0000
  C   C542      1.0  0.22769  0.66971  0.48583  1.0000
  C   C543      1.0  0.32981  0.60589  0.18799  1.0000
  H   H436      1.0  0.31837  0.67359  0.02195  1.0000
  H   H437      1.0  0.32383  0.65438  0.47959  1.0000
  C   C544      1.0  0.32348  0.68386  0.01172  1.0000
  C   C545      1.0  0.32714  0.61265  0.36478  1.0000
  S   S70       1.0  0.32715  0.63301  0.36449  1.0000
  S   S71       1.0  0.32937  0.55986  0.36538  1.0000
  C   C546      1.0  0.32924  0.58022  0.36505  1.0000
  H   H438      1.0  0.29722  0.72856  0.03182  1.0000
  P   P18       1.0  0.28181  0.64032  0.50068  1.0000
  C   C547      1.0  0.24983  0.71319  0.00298  1.0000
  C   C548      1.0  0.32918  0.56894  0.26456  1.0000
  H   H439      1.0  0.32951  0.72192  0.47419  1.0000
  Fe  Fe37      1.0  0.27594  0.67243  0.86545  1.0000
  S   S72       1.0  0.29622  0.69351  0.86489  1.0000
  S   S73       1.0  0.23698  0.67386  0.85998  1.0000
  C   C549      1.0  0.30349  0.64547  0.55117  1.0000
  C   C550      1.0  0.24970  0.66838  0.67610  1.0000
  C   C551      1.0  0.24806  0.72395  0.94509  1.0000
  C   C552      1.0  0.31059  0.67606  0.54036  1.0000
  C   C553      1.0  0.30742  0.59927  0.77515  1.0000
  H   H440      1.0  0.01347  0.71961  0.91297  1.0000
  S   S74       1.0  0.29425  0.66257  0.90272  1.0000
  S   S75       1.0  0.29900  0.66009  0.83449  1.0000
  C   C554      1.0  0.25188  0.59760  0.54054  1.0000
  C   C555      1.0  0.28216  0.70529  0.61286  1.0000
  C   C556      1.0  0.05201  0.72325  0.96826  1.0000
  H   H441      1.0  0.24941  0.68161  0.80010  1.0000
  H   H442      1.0  0.31565  0.67558  0.97078  1.0000
  C   C557      1.0  0.25343  0.69412  0.76214  1.0000
  H   H443      1.0  0.27092  0.68996  0.75897  1.0000
  H   H444      1.0  0.20906  0.69008  0.80714  1.0000
  C   C558      1.0  0.16788  0.72577  0.95401  1.0000
  H   H445      1.0  0.25543  0.69185  0.54420  1.0000
  C   C559      1.0  0.21983  0.69060  0.86523  1.0000
  C   C560      1.0  0.22950  0.70448  0.87167  1.0000
  C   C561      1.0  0.21537  0.71754  0.87508  1.0000
  H   H446      1.0  0.31370  0.68788  0.53619  1.0000
  C   C562      1.0  0.18166  0.70309  0.86568  1.0000
  C   C563      1.0  0.19582  0.68999  0.86237  1.0000
  H   H447      1.0  0.24786  0.70517  0.87412  1.0000
  H   H448      1.0  0.30116  0.63365  0.55576  1.0000
  H   H449      1.0  0.16324  0.70242  0.86354  1.0000
  H   H450      1.0  0.18813  0.67931  0.85747  1.0000
  H   H451      1.0  0.28772  0.63277  0.80176  1.0000
  H   H452      1.0  0.30631  0.61174  0.84746  1.0000
  H   H453      1.0  0.28232  0.68183  0.62457  1.0000
  H   H454      1.0  0.22834  0.68668  0.69163  1.0000
  C   C564      1.0  0.26786  0.71109  0.56699  1.0000
  H   H455      1.0  0.21915  0.60943  0.53839  1.0000
  H   H456      1.0  0.31812  0.48318  0.60362  1.0000
  H   H457      1.0  0.21070  0.66811  0.91564  1.0000
  C   C565      1.0  0.29548  0.65187  0.52634  1.0000
  H   H458      1.0  0.28995  0.70903  0.63190  1.0000
  H   H459      1.0  0.31101  0.72158  0.55308  1.0000
  C   C566      1.0  0.24306  0.70421  0.74320  1.0000
  C   C567      1.0  0.24076  0.71906  0.66165  1.0000
  H   H460      1.0  0.23483  0.63235  0.51740  1.0000
  H   H461      1.0  0.24815  0.70879  0.65293  1.0000
  H   H462      1.0  0.19805  0.71974  0.93075  1.0000
  C   C568      1.0  0.27782  0.68999  0.60874  1.0000
  H   H463      1.0  0.26461  0.67336  0.58092  1.0000
  P   P19       1.0  0.26141  0.72492  0.54064  1.0000
  C   C569      1.0  0.20784  0.70371  0.77027  1.0000
  H   H464      1.0  0.30154  0.72334  0.84003  1.0000
  H   H465      1.0  0.32881  0.63851  0.79814  1.0000
  H   H466      1.0  0.27395  0.60762  0.78788  1.0000
  Fe  Fe38      1.0  0.31904  0.65184  0.87173  1.0000
  C   C570      1.0  0.29905  0.66729  0.52114  1.0000
  C   C571      1.0  0.26296  0.69575  0.56320  1.0000
  H   H467      1.0  0.28367  0.71582  0.76462  1.0000
  H   H468      1.0  0.24484  0.58751  0.54964  1.0000
  C   C572      1.0  0.26438  0.69163  0.69535  1.0000
  H   H469      1.0  0.30146  0.58817  0.76951  1.0000
  H   H470      1.0  0.30808  0.66748  0.67592  1.0000
  C   C573      1.0  0.31887  0.66954  0.56471  1.0000
  C   C574      1.0  0.22050  0.68720  0.94020  1.0000
  H   H471      1.0  0.30160  0.69255  0.69685  1.0000
  C   C575      1.0  0.24248  0.72209  0.69004  1.0000
  H   H472      1.0  0.21108  0.71596  0.73251  1.0000
  C   C576      1.0  0.27691  0.71583  0.59223  1.0000
  C   C577      1.0  0.27214  0.66289  0.67183  1.0000
  C   C578      1.0  0.24128  0.68924  0.78531  1.0000
  C   C579      1.0  0.22279  0.67232  0.93057  1.0000
  H   H473      1.0  0.27520  0.65174  0.66304  1.0000
  H   H474      1.0  0.19003  0.70713  0.77326  1.0000
  C   C580      1.0  0.26800  0.71857  0.93151  1.0000
  C   C581      1.0  0.26794  0.68524  0.58407  1.0000
  C   C582      1.0  0.29068  0.67175  0.67915  1.0000
  C   C583      1.0  0.29194  0.61020  0.78552  1.0000
  H   H475      1.0  0.99910  0.71610  0.84253  1.0000
  H   H476      1.0  0.20642  0.69413  0.93254  1.0000
  C   C584      1.0  0.27540  0.59824  0.53499  1.0000
  H   H477      1.0  0.24314  0.65165  0.93115  1.0000
  H   H478      1.0  0.16610  0.72791  0.81775  1.0000
  P   P20       1.0  0.25873  0.70948  0.71249  1.0000
  C   C585      1.0  0.28530  0.71870  0.72012  1.0000
  H   H479      1.0  0.02163  0.71871  0.99198  1.0000
  C   C586      1.0  0.03160  0.72731  0.98191  1.0000
  H   H480      1.0  0.05777  0.71150  0.96743  1.0000
  C   C587      1.0  0.24582  0.68267  0.68790  1.0000
  C   C588      1.0  0.21851  0.69404  0.78936  1.0000
  C   C589      1.0  0.28689  0.68607  0.69090  1.0000
  C   C590      1.0  0.32042  0.60429  0.85341  1.0000
  H   H481      1.0  0.23530  0.66147  0.67071  1.0000
  C   C591      1.0  0.29973  0.62438  0.79340  1.0000
  H   H482      1.0  0.26793  0.71085  0.81976  1.0000
  C   C592      1.0  0.15836  0.72823  0.98018  1.0000
  H   H483      1.0  0.21363  0.71658  0.54917  1.0000
  C   C593      1.0  0.25525  0.68360  0.96694  1.0000
  C   C594      1.0  0.24113  0.66306  0.93922  1.0000
  Fe  Fe39      1.0  0.32048  0.68081  0.83651  1.0000
  C   C595      1.0  0.28446  0.61122  0.52306  1.0000
  H   H484      1.0  0.28659  0.58862  0.53980  1.0000
  C   C596      1.0  0.23661  0.69296  0.95869  1.0000
  H   H485      1.0  0.27187  0.66161  0.96367  1.0000
  C   C597      1.0  0.32042  0.58879  0.84605  1.0000
  C   C598      1.0  0.20453  0.71850  0.97472  1.0000
  C   C599      1.0  0.22000  0.70878  0.74723  1.0000
  H   H486      1.0  0.30632  0.58452  0.83416  1.0000
  C   C600      1.0  0.27002  0.62368  0.51654  1.0000
  Fe  Fe40      1.0  0.31596  0.68325  0.90030  1.0000
  C   C601      1.0  0.24641  0.62297  0.52227  1.0000
  C   C602      1.0  0.23742  0.60997  0.53421  1.0000
  H   H487      1.0  0.26854  0.68782  0.98024  1.0000
  H   H488      1.0  0.31579  0.48574  0.55270  1.0000
  P   P21       1.0  0.23433  0.71236  0.97074  1.0000
  C   C603      1.0  0.25732  0.66868  0.95747  1.0000
  H   H489      1.0  0.32848  0.67628  0.57909  1.0000
  H   H490      1.0  0.30272  0.61154  0.51882  1.0000
  H   H491      1.0  0.32176  0.64930  0.58912  1.0000
  H   H492      1.0  0.24965  0.66427  0.52004  1.0000
  H   H493      1.0  0.29417  0.72321  0.90147  1.0000
  C   C604      1.0  0.32826  0.69823  0.96930  1.0000
  H   H494      1.0  0.27540  0.70749  0.93618  1.0000
  C   C605      1.0  0.31516  0.65430  0.57024  1.0000
  C   C606      1.0  0.19089  0.72112  0.95128  1.0000
  C   C607      1.0  0.19138  0.71694  0.87215  1.0000
  H   H495      1.0  0.29013  0.70508  0.50600  1.0000
  C   C608      1.0  0.32308  0.62757  0.79139  1.0000
  H   H496      1.0  0.32520  0.66794  0.76849  1.0000
  H   H497      1.0  0.29353  0.67243  0.50190  1.0000
  C   C609      1.0  0.32799  0.49168  0.59305  1.0000
  C   C610      1.0  0.29320  0.72013  0.74734  1.0000
  C   C611      1.0  0.32185  0.68497  0.98271  1.0000
  H   H498      1.0  0.29269  0.72371  0.67721  1.0000
  C   C612      1.0  0.26879  0.72310  0.81959  1.0000
  C   C613      1.0  0.29839  0.72458  0.69839  1.0000
  C   C614      1.0  0.25622  0.71566  0.50796  1.0000
  S   S76       1.0  0.32695  0.70034  0.93287  1.0000
  C   C615      1.0  0.32660  0.49319  0.56440  1.0000
  H   H499      1.0  0.22309  0.72818  0.88014  1.0000
  H   H500      1.0  0.32014  0.72790  0.77366  1.0000
  H   H501      1.0  0.23738  0.72605  0.79741  1.0000
  H   H502      1.0  0.22873  0.72717  0.62213  1.0000
  C   C616      1.0  0.27875  0.72751  0.91173  1.0000
  C   C617      1.0  0.31388  0.72723  0.75266  1.0000
  H   H503      1.0  0.28028  0.72768  0.59581  1.0000
  C   C618      1.0  0.21543  0.72811  0.55623  1.0000
  H   H504      1.0  0.22191  0.72510  0.50189  1.0000
  H   H505      1.0  0.15759  0.72771  0.93567  1.0000
  C   C619      1.0  0.19482  0.72108  0.00098  1.0000
  Fe  Fe41      1.0  0.18806  0.79284  0.12196  1.0000
  S   S77       1.0  0.15440  0.78108  0.12262  1.0000
  S   S78       1.0  0.21541  0.77367  0.12192  1.0000
  Fe  Fe42      1.0  0.16222  0.82393  0.12102  1.0000
  S   S79       1.0  0.12741  0.81353  0.12088  1.0000
  S   S80       1.0  0.16754  0.84973  0.12185  1.0000
  Fe  Fe43      1.0  0.14205  0.79804  0.15374  1.0000
  S   S81       1.0  0.11949  0.78849  0.18777  1.0000
  Fe  Fe44      1.0  0.14264  0.79716  0.08969  1.0000
  S   S82       1.0  0.12232  0.78515  0.05643  1.0000
  S   S83       1.0  0.17634  0.80901  0.15575  1.0000
  S   S84       1.0  0.17675  0.80837  0.08732  1.0000
  C   C620      1.0  0.06292  0.78008  0.04155  1.0000
  S   S85       1.0  0.13658  0.76471  0.38349  1.0000
  Fe  Fe45      1.0  0.06942  0.76232  0.37626  1.0000
  S   S86       1.0  0.08855  0.78424  0.37865  1.0000
  S   S87       1.0  0.03013  0.76681  0.37117  1.0000
  Fe  Fe46      1.0  0.11431  0.77390  0.34925  1.0000
  S   S88       1.0  0.13344  0.78838  0.31810  1.0000
  Fe  Fe47      1.0  0.10938  0.77360  0.41277  1.0000
  S   S89       1.0  0.11851  0.78990  0.44753  1.0000
  S   S90       1.0  0.09437  0.75259  0.34427  1.0000
  S   S91       1.0  0.08907  0.75224  0.41245  1.0000
  Fe  Fe48      1.0  0.09860  0.93439  0.13593  1.0000
  S   S92       1.0  0.12525  0.95268  0.13330  1.0000
  S   S93       1.0  0.09976  0.90860  0.12664  1.0000
  Fe  Fe49      1.0  0.06062  0.95758  0.15207  1.0000
  S   S94       1.0  0.02439  0.96498  0.16311  1.0000
  Fe  Fe50      1.0  0.09820  0.96692  0.11078  1.0000
  C   C621      1.0  0.02477  0.88842  0.14002  1.0000
  Fe  Fe51      1.0  0.10898  0.96157  0.17316  1.0000
  H   H506      1.0  0.02322  0.93325  0.14731  1.0000
  S   S95       1.0  0.07247  0.94833  0.11142  1.0000
  S   S96       1.0  0.08420  0.94256  0.17698  1.0000
  H   H507      1.0  0.18350  0.75409  0.15239  1.0000
  H   H508      1.0  0.02102  0.76566  0.43017  1.0000
  H   H509      1.0  0.01608  0.94696  0.08837  1.0000
  C   C622      1.0  0.20725  0.76233  0.03911  1.0000
  C   C623      1.0  0.18242  0.74457  0.07626  1.0000
  C   C624      1.0  0.21616  0.78061  0.40696  1.0000
  C   C625      1.0  0.23435  0.79975  0.04514  1.0000
  H   H510      1.0  0.24786  0.79309  0.05471  1.0000
  C   C626      1.0  0.28072  0.73498  0.30577  1.0000
  H   H511      1.0  0.05088  0.76092  0.01944  1.0000
  C   C627      1.0  0.31616  0.76054  0.19427  1.0000
  C   C628      1.0  0.29994  0.75937  0.01463  1.0000
  H   H512      1.0  0.04564  0.96957  0.30081  1.0000
  C   C629      1.0  0.09194  0.94176  0.04462  1.0000
  C   C630      1.0  0.05099  0.77315  0.02021  1.0000
  C   C631      1.0  0.04590  0.96032  0.25970  1.0000
  C   C632      1.0  0.14811  0.86579  0.12473  1.0000
  C   C633      1.0  0.15687  0.88012  0.13102  1.0000
  C   C634      1.0  0.14244  0.89327  0.13216  1.0000
  C   C635      1.0  0.11895  0.89236  0.12664  1.0000
  C   C636      1.0  0.11013  0.87802  0.12059  1.0000
  C   C637      1.0  0.12451  0.86483  0.11984  1.0000
  H   H513      1.0  0.17505  0.88109  0.13481  1.0000
  H   H514      1.0  0.14962  0.90414  0.13685  1.0000
  H   H515      1.0  0.09205  0.87711  0.11618  1.0000
  H   H516      1.0  0.11745  0.85398  0.11479  1.0000
  C   C638      1.0  0.12572  0.78622  0.02009  1.0000
  H   H517      1.0  0.27088  0.74661  0.34319  1.0000
  H   H518      1.0  0.10405  0.87389  0.43072  1.0000
  C   C639      1.0  0.12805  0.78544  0.48138  1.0000
  C   C640      1.0  0.00207  0.75881  0.37323  1.0000
  H   H519      1.0  0.08860  0.87257  0.47842  1.0000
  C   C641      1.0  0.12316  0.84628  0.48604  1.0000
  C   C642      1.0  0.03093  0.89084  0.03116  1.0000
  H   H520      1.0  0.16490  0.77166  0.18608  1.0000
  H   H521      1.0  0.14582  0.80628  0.02000  1.0000
  C   C643      1.0  0.12457  0.78803  0.22380  1.0000
  C   C644      1.0  0.10960  0.77992  0.24079  1.0000
  C   C645      1.0  0.11248  0.77955  0.26963  1.0000
  C   C646      1.0  0.13032  0.78741  0.28178  1.0000
  C   C647      1.0  0.14556  0.79532  0.26476  1.0000
  C   C648      1.0  0.14272  0.79564  0.23587  1.0000
  H   H522      1.0  0.09552  0.77399  0.23160  1.0000
  H   H523      1.0  0.10063  0.77346  0.28250  1.0000
  H   H524      1.0  0.15942  0.80142  0.27402  1.0000
  H   H525      1.0  0.15433  0.80194  0.22303  1.0000
  C   C649      1.0  0.29418  0.76700  0.11698  1.0000
  C   C650      1.0  0.28421  0.78168  0.11610  1.0000
  C   C651      1.0  0.26017  0.78401  0.11773  1.0000
  C   C652      1.0  0.24582  0.77164  0.12026  1.0000
  C   C653      1.0  0.25579  0.75696  0.12120  1.0000
  C   C654      1.0  0.27980  0.75464  0.11954  1.0000
  H   H526      1.0  0.29517  0.79132  0.11403  1.0000
  H   H527      1.0  0.25276  0.79535  0.11695  1.0000
  H   H528      1.0  0.24484  0.74731  0.12310  1.0000
  H   H529      1.0  0.10797  0.94743  0.04130  1.0000
  C   C655      1.0  0.28838  0.76200  0.03955  1.0000
  H   H530      1.0  0.02485  0.88166  0.15868  1.0000
  C   C656      1.0  0.08243  0.81926  0.16327  1.0000
  C   C657      1.0  0.07259  0.82733  0.14134  1.0000
  C   C658      1.0  0.07269  0.84313  0.14133  1.0000
  C   C659      1.0  0.08240  0.85088  0.16339  1.0000
  C   C660      1.0  0.09223  0.84286  0.18561  1.0000
  C   C661      1.0  0.09257  0.82696  0.18508  1.0000
  P   P22       1.0  0.10436  0.85274  0.21461  1.0000
  C   C662      1.0  0.09982  0.84124  0.24501  1.0000
  C   C663      1.0  0.13472  0.85539  0.20975  1.0000
  C   C664      1.0  0.14546  0.86739  0.22321  1.0000
  C   C665      1.0  0.16896  0.86958  0.21967  1.0000
  C   C666      1.0  0.18199  0.85965  0.20310  1.0000
  C   C667      1.0  0.17155  0.84748  0.19030  1.0000
  C   C668      1.0  0.14796  0.84536  0.19341  1.0000
  C   C669      1.0  0.11811  0.83750  0.26278  1.0000
  C   C670      1.0  0.11502  0.82729  0.28449  1.0000
  C   C671      1.0  0.09375  0.82071  0.28862  1.0000
  C   C672      1.0  0.07539  0.82449  0.27128  1.0000
  C   C673      1.0  0.07838  0.83471  0.24956  1.0000
  C   C674      1.0  0.09050  0.87125  0.21744  1.0000
  C   C675      1.0  0.09738  0.88297  0.19984  1.0000
  C   C676      1.0  0.08673  0.89729  0.20139  1.0000
  C   C677      1.0  0.06913  0.90008  0.22053  1.0000
  C   C678      1.0  0.06221  0.88853  0.23821  1.0000
  C   C679      1.0  0.07286  0.87415  0.23672  1.0000
  H   H531      1.0  0.08287  0.80698  0.16302  1.0000
  H   H532      1.0  0.06542  0.82128  0.12408  1.0000
  H   H533      1.0  0.06557  0.84942  0.12405  1.0000
  H   H534      1.0  0.08233  0.86310  0.16277  1.0000
  H   H535      1.0  0.10069  0.82042  0.20145  1.0000
  H   H536      1.0  0.13566  0.87514  0.23628  1.0000
  H   H537      1.0  0.17703  0.87907  0.22951  1.0000
  H   H538      1.0  0.20012  0.86147  0.19985  1.0000
  H   H539      1.0  0.18166  0.83998  0.17708  1.0000
  H   H540      1.0  0.14017  0.83604  0.18274  1.0000
  H   H541      1.0  0.13498  0.84203  0.25954  1.0000
  H   H542      1.0  0.12931  0.82402  0.29764  1.0000
  H   H543      1.0  0.09170  0.81242  0.30492  1.0000
  H   H544      1.0  0.05902  0.81917  0.27429  1.0000
  H   H545      1.0  0.06419  0.83714  0.23576  1.0000
  H   H546      1.0  0.11091  0.88103  0.18468  1.0000
  H   H547      1.0  0.09218  0.90623  0.18763  1.0000
  H   H548      1.0  0.06094  0.91123  0.22165  1.0000
  H   H549      1.0  0.04862  0.89074  0.25312  1.0000
  H   H550      1.0  0.06730  0.86541  0.25066  1.0000
  H   H551      1.0  0.01321  0.73640  0.38533  1.0000
  C   C680      1.0  0.00835  0.89479  0.09550  1.0000
  H   H552      1.0  0.24278  0.81962  0.06842  1.0000
  H   H553      1.0  0.02320  0.97891  0.48571  1.0000
  C   C681      1.0  0.14874  0.73142  0.47627  1.0000
  C   C682      1.0  0.08890  0.89672  0.48476  1.0000
  C   C683      1.0  0.10627  0.89821  0.43101  1.0000
  C   C684      1.0  0.10263  0.91152  0.44628  1.0000
  H   H554      1.0  0.07033  0.82088  0.47752  1.0000
  H   H555      1.0  0.07205  0.77324  0.05675  1.0000
  H   H556      1.0  0.13853  0.85276  0.48816  1.0000
  C   C685      1.0  0.10064  0.82943  0.45822  1.0000
  H   H557      1.0  0.21148  0.83558  0.04834  1.0000
  C   C686      1.0  0.05322  0.80472  0.02255  1.0000
  C   C687      1.0  0.23968  0.77889  0.48283  1.0000
  C   C688      1.0  0.10122  0.88418  0.44258  1.0000
  H   H558      1.0  0.11846  0.76210  0.48065  1.0000
  H   H559      1.0  0.04594  0.91220  0.48552  1.0000
  C   C689      1.0  0.20426  0.73972  0.06744  1.0000
  H   H560      1.0  0.12237  0.96972  0.43894  1.0000
  C   C690      1.0  0.26844  0.73632  0.44249  1.0000
  H   H561      1.0  0.28899  0.78281  0.22543  1.0000
  C   C691      1.0  0.21740  0.77323  0.48127  1.0000
  H   H562      1.0  0.16572  0.77846  0.44254  1.0000
  C   C692      1.0  0.16962  0.74540  0.44170  1.0000
  C   C693      1.0  0.22927  0.74352  0.41155  1.0000
  H   H563      1.0  0.23312  0.74423  0.04157  1.0000
  C   C694      1.0  0.18279  0.75104  0.17407  1.0000
  H   H564      1.0  0.09851  0.82288  0.43948  1.0000
  H   H565      1.0  0.26189  0.77201  0.26848  1.0000
  C   C695      1.0  0.99802  0.96464  0.26124  1.0000
  H   H566      1.0  0.02429  0.96852  0.00161  1.0000
  C   C696      1.0  0.27571  0.74916  0.26306  1.0000
  C   C697      1.0  0.09216  0.92686  0.05424  1.0000
  H   H567      1.0  0.22184  0.79551  0.37252  1.0000
  C   C698      1.0  0.18564  0.74964  0.46162  1.0000
  H   H568      1.0  0.23437  0.75421  0.19856  1.0000
  H   H569      1.0  0.05465  0.81691  0.02313  1.0000
  C   C699      1.0  0.09253  0.88344  0.46946  1.0000
  H   H570      1.0  0.12485  0.94697  0.46848  1.0000
  C   C700      1.0  0.16499  0.73520  0.49605  1.0000
  H   H571      1.0  0.29749  0.76072  0.05894  1.0000
  C   C701      1.0  0.06542  0.96284  0.44489  1.0000
  C   C702      1.0  0.10813  0.95126  0.46209  1.0000
  C   C703      1.0  0.08798  0.94437  0.47122  1.0000
  C   C704      1.0  0.19148  0.73337  0.21106  1.0000
  C   C705      1.0  0.20503  0.76503  0.27414  1.0000
  H   H572      1.0  0.15409  0.79759  0.40794  1.0000
  C   C706      1.0  0.21966  0.79346  0.02552  1.0000
  C   C707      1.0  0.27205  0.74732  0.32090  1.0000
  C   C708      1.0  0.17804  0.78192  0.42712  1.0000
  C   C709      1.0  0.00703  0.97315  0.48488  1.0000
  H   H573      1.0  0.17296  0.73793  0.09102  1.0000
  H   H574      1.0  0.21400  0.74596  0.39948  1.0000
  C   C710      1.0  0.03283  0.95710  0.23644  1.0000
  C   C711      1.0  0.20956  0.79161  0.38760  1.0000
  H   H575      1.0  0.17763  0.77437  0.34543  1.0000
  C   C712      1.0  0.18570  0.77163  0.32579  1.0000
  P   P23       1.0  0.02397  0.91757  0.06097  1.0000
  H   H576      1.0  0.03881  0.78188  0.46535  1.0000
  H   H577      1.0  0.16398  0.76522  0.23553  1.0000
  C   C713      1.0  0.17955  0.75852  0.31178  1.0000
  H   H578      1.0  0.18182  0.80603  0.37262  1.0000
  H   H579      1.0  0.10580  0.76636  0.01308  1.0000
  C   C714      1.0  0.26632  0.73062  0.41577  1.0000
  H   H580      1.0  0.10678  0.92224  0.43694  1.0000
  C   C715      1.0  0.21080  0.77827  0.28800  1.0000
  C   C716      1.0  0.23159  0.74965  0.43814  1.0000
  H   H581      1.0  0.09532  0.74164  0.26115  1.0000
  H   H582      1.0  0.13959  0.80807  0.48879  1.0000
  C   C717      1.0  0.17242  0.76098  0.19306  1.0000
  H   H583      1.0  0.04121  0.95307  0.21769  1.0000
  C   C718      1.0  0.08554  0.96983  0.43649  1.0000
  H   H584      1.0  0.22248  0.78609  0.27850  1.0000
  C   C719      1.0  0.23154  0.81492  0.05306  1.0000
  H   H585      1.0  0.15574  0.76177  0.07270  1.0000
  H   H586      1.0  0.25211  0.77658  0.46660  1.0000
  H   H587      1.0  0.26755  0.80515  0.20737  1.0000
  C   C720      1.0  0.23888  0.79233  0.19352  1.0000
  C   C721      1.0  0.22958  0.77798  0.19134  1.0000
  H   H588      1.0  0.22959  0.80209  0.18522  1.0000
  H   H589      1.0  0.25242  0.74926  0.47485  1.0000
  C   C722      1.0  0.03526  0.96637  0.28330  1.0000
  C   C723      1.0  0.28210  0.73579  0.27700  1.0000
  H   H590      1.0  0.07115  0.96107  0.03282  1.0000
  C   C724      1.0  0.13224  0.74030  0.26329  1.0000
  C   C725      1.0  0.01240  0.91160  0.00645  1.0000
  C   C726      1.0  0.11972  0.83852  0.46128  1.0000
  H   H591      1.0  0.05329  0.90185  0.15260  1.0000
  C   C727      1.0  0.04073  0.89980  0.13669  1.0000
  C   C728      1.0  0.01051  0.77074  0.44641  1.0000
  H   H592      1.0  0.20483  0.79211  0.32406  1.0000
  C   C729      1.0  0.12571  0.77104  0.49285  1.0000
  C   C730      1.0  0.17147  0.79288  0.40768  1.0000
  C   C731      1.0  0.00001  0.94342  0.07958  1.0000
  H   H593      1.0  0.18335  0.77441  0.49980  1.0000
  H   H594      1.0  0.07212  0.90808  0.06682  1.0000
  C   C732      1.0  0.11005  0.73660  0.27156  1.0000
  C   C733      1.0  0.04049  0.90872  0.11285  1.0000
  P   P24       1.0  0.20894  0.76177  0.45227  1.0000
  C   C734      1.0  0.24175  0.76524  0.20104  1.0000
  C   C735      1.0  0.09385  0.91087  0.47329  1.0000
  C   C736      1.0  0.00901  0.95942  0.23705  1.0000
  C   C737      1.0  0.19244  0.73728  0.18309  1.0000
  H   H595      1.0  0.10834  0.92098  0.05843  1.0000
  C   C738      1.0  0.26503  0.76056  0.30722  1.0000
  C   C739      1.0  0.13757  0.79692  0.49753  1.0000
  Fe  Fe52      1.0  0.11544  0.74403  0.38056  1.0000
  C   C740      1.0  0.26026  0.79402  0.20591  1.0000
  H   H596      1.0  0.25637  0.76782  0.05924  1.0000
  S   S97       1.0  0.12858  0.97020  0.21069  1.0000
  C   C741      1.0  0.02462  0.90609  0.09181  1.0000
  C   C742      1.0  0.20100  0.78162  0.31373  1.0000
  C   C743      1.0  0.07151  0.91963  0.05928  1.0000
  C   C744      1.0  0.20156  0.80252  0.01486  1.0000
  C   C745      1.0  0.27240  0.78133  0.21593  1.0000
  H   H597      1.0  0.17119  0.74910  0.42049  1.0000
  C   C746      1.0  0.19888  0.81770  0.02272  1.0000
  C   C747      1.0  0.05041  0.92738  0.05533  1.0000
  H   H598      1.0  0.03908  0.88627  0.04952  1.0000
  P   P25       1.0  0.27928  0.75043  0.22592  1.0000
  C   C748      1.0  0.27802  0.72956  0.18287  1.0000
  H   H599      1.0  0.28716  0.74328  0.12001  1.0000
  H   H600      1.0  0.07433  0.80106  0.05856  1.0000
  H   H601      1.0  0.06438  0.95854  0.25914  1.0000
  H   H602      1.0  0.11306  0.89880  0.41016  1.0000
  H   H603      1.0  0.04892  0.96742  0.43828  1.0000
  C   C749      1.0  0.10686  0.96403  0.44506  1.0000
  C   C750      1.0  0.18522  0.76705  0.04793  1.0000
  C   C751      1.0  0.00582  0.93773  0.14856  1.0000
  C   C752      1.0  0.26334  0.76681  0.21330  1.0000
  C   C753      1.0  0.21392  0.82392  0.04173  1.0000
  H   H604      1.0  0.03781  0.87057  0.00748  1.0000
  C   C754      1.0  0.18883  0.75530  0.28558  1.0000
  H   H605      1.0  0.21275  0.76263  0.25418  1.0000
  H   H606      1.0  0.22404  0.73551  0.29762  1.0000
  C   C755      1.0  0.32632  0.74424  0.23276  1.0000
  H   H607      1.0  0.05261  0.91773  0.11114  1.0000
  H   H608      1.0  0.23367  0.77622  0.40675  1.0000
  C   C756      1.0  0.25310  0.76802  0.01459  1.0000
  C   C757      1.0  0.26704  0.76155  0.27846  1.0000
  H   H609      1.0  0.30356  0.76598  0.18093  1.0000
  C   C758      1.0  0.17279  0.75808  0.06614  1.0000
  C   C759      1.0  0.15146  0.73406  0.27704  1.0000
  C   C760      1.0  0.99880  0.92976  0.06493  1.0000
  H   H610      1.0  0.17749  0.77760  0.04071  1.0000
  C   C761      1.0  0.30943  0.75220  0.21755  1.0000
  C   C762      1.0  0.07107  0.94943  0.03990  1.0000
  H   H611      1.0  0.05085  0.94487  0.46829  1.0000
  C   C763      1.0  0.06422  0.79582  0.04260  1.0000
  C   C764      1.0  0.18349  0.74416  0.48873  1.0000
  C   C765      1.0  0.00847  0.88598  0.11951  1.0000
  C   C766      1.0  0.25096  0.74557  0.45380  1.0000
  C   C767      1.0  0.21649  0.74842  0.04856  1.0000
  H   H612      1.0  0.21318  0.77673  0.18131  1.0000
  H   H613      1.0  0.13845  0.73356  0.43388  1.0000
  H   H614      1.0  0.00599  0.92321  0.00564  1.0000
  C   C768      1.0  0.18714  0.79765  0.38780  1.0000
  H   H615      1.0  0.21179  0.72927  0.07531  1.0000
  C   C769      1.0  0.20028  0.77549  0.42656  1.0000
  C   C770      1.0  0.05031  0.94224  0.04497  1.0000
  C   C771      1.0  0.06662  0.95011  0.46207  1.0000
  H   H616      1.0  0.13228  0.83907  0.44476  1.0000
  H   H617      1.0  0.20071  0.72968  0.16833  1.0000
  S   S98       1.0  0.32454  0.76467  0.11406  1.0000
  P   P26       1.0  0.22293  0.77380  0.01498  1.0000
  C   C772      1.0  0.18109  0.74330  0.23032  1.0000
  H   H618      1.0  0.25828  0.77013  0.31895  1.0000
  H   H619      1.0  0.18477  0.82454  0.01458  1.0000
  C   C773      1.0  0.00694  0.78650  0.48713  1.0000
  C   C774      1.0  0.17182  0.75724  0.22108  1.0000
  H   H620      1.0  0.29059  0.73643  0.17255  1.0000
  H   H621      1.0  0.16702  0.75124  0.32114  1.0000
  H   H622      1.0  0.03436  0.94835  0.04099  1.0000
  P   P27       1.0  0.18036  0.73873  0.26678  1.0000
  C   C775      1.0  0.02146  0.90561  0.03105  1.0000
  C   C776      1.0  0.99857  0.74371  0.38064  1.0000
  C   C777      1.0  0.00177  0.95284  0.15607  1.0000
  C   C778      1.0  0.26507  0.76617  0.03959  1.0000
  C   C779      1.0  0.08475  0.82829  0.47974  1.0000
  C   C780      1.0  0.15112  0.73647  0.44914  1.0000
  C   C781      1.0  0.26938  0.73362  0.20902  1.0000
  H   H623      1.0  0.31797  0.75602  0.01476  1.0000
  C   C782      1.0  0.00595  0.95841  0.49523  1.0000
  H   H624      1.0  0.12741  0.97014  0.03326  1.0000
  H   H625      1.0  0.13408  0.74814  0.24640  1.0000
  C   C783      1.0  0.02051  0.77992  0.46625  1.0000
  H   H626      1.0  0.32185  0.73696  0.24971  1.0000
  P   P28       1.0  0.08959  0.92793  0.49352  1.0000
  C   C784      1.0  0.13771  0.79785  0.00742  1.0000
  C   C785      1.0  0.11511  0.77540  0.00346  1.0000
  C   C786      1.0  0.24665  0.73411  0.40038  1.0000
  H   H627      1.0  0.28344  0.73318  0.45460  1.0000
  C   C787      1.0  0.01142  0.96866  0.28401  1.0000
  S   S99       1.0  0.08450  0.97694  0.15061  1.0000
  C   C788      1.0  0.03040  0.88195  0.00729  1.0000
  H   H628      1.0  0.04881  0.97907  0.08932  1.0000
  H   H629      1.0  0.99933  0.95729  0.21847  1.0000
  H   H630      1.0  0.00352  0.97370  0.30220  1.0000
  H   H631      1.0  0.08098  0.97880  0.22389  1.0000
  H   H632      1.0  0.24481  0.72936  0.37991  1.0000
  C   C789      1.0  0.20112  0.77763  0.50144  1.0000
  Fe  Fe53      1.0  0.21344  0.80186  0.61519  1.0000
  S   S100      1.0  0.19320  0.78186  0.62754  1.0000
  S   S101      1.0  0.24995  0.79742  0.59885  1.0000
  Fe  Fe54      1.0  0.17202  0.82413  0.62527  1.0000
  S   S102      1.0  0.14955  0.80475  0.63796  1.0000
  S   S103      1.0  0.15103  0.84660  0.62751  1.0000
  Fe  Fe55      1.0  0.17983  0.79629  0.66248  1.0000
  S   S104      1.0  0.18315  0.78748  0.70653  1.0000
  Fe  Fe56      1.0  0.16511  0.79229  0.60150  1.0000
  S   S105      1.0  0.14691  0.77632  0.57223  1.0000
  S   S106      1.0  0.20178  0.81610  0.65171  1.0000
  S   S107      1.0  0.18581  0.81186  0.58733  1.0000
  C   C790      1.0  0.19669  0.88227  0.69519  1.0000
  S   S108      1.0  0.14079  0.76713  0.86060  1.0000
  Fe  Fe57      1.0  0.08409  0.74718  0.87859  1.0000
  S   S109      1.0  0.08553  0.77183  0.86828  1.0000
  H   H633      1.0  0.19425  0.84656  0.57045  1.0000
  Fe  Fe58      1.0  0.10976  0.76427  0.83434  1.0000
  S   S110      1.0  0.10266  0.77249  0.79067  1.0000
  Fe  Fe59      1.0  0.11662  0.77205  0.89586  1.0000
  S   S111      1.0  0.12743  0.79059  0.92540  1.0000
  C   C791      1.0  0.01071  0.96617  0.69361  1.0000
  H   H634      1.0  0.18357  0.75668  0.58560  1.0000
  Fe  Fe60      1.0  0.12530  0.93660  0.62764  1.0000
  S   S112      1.0  0.12957  0.96198  0.62241  1.0000
  S   S113      1.0  0.15473  0.91905  0.62169  1.0000
  Fe  Fe61      1.0  0.07479  0.94043  0.63986  1.0000
  S   S114      1.0  0.04382  0.92637  0.64903  1.0000
  Fe  Fe62      1.0  0.09674  0.96173  0.59772  1.0000
  H   H635      1.0  0.00825  0.74539  0.99336  1.0000
  Fe  Fe63      1.0  0.10729  0.96459  0.66094  1.0000
  H   H636      1.0  0.15071  0.90830  0.55622  1.0000
  S   S115      1.0  0.09421  0.93631  0.60050  1.0000
  S   S116      1.0  0.10565  0.93935  0.66756  1.0000
  C   C792      1.0  0.06076  0.93601  0.53746  1.0000
  C   C793      1.0  0.01800  0.93510  0.63813  1.0000
  C   C794      1.0  0.01843  0.94845  0.62276  1.0000
  C   C795      1.0  0.18206  0.85353  0.55894  1.0000
  C   C796      1.0  0.14389  0.89064  0.80862  1.0000
  H   H637      1.0  0.16296  0.73143  0.51716  1.0000
  H   H638      1.0  0.13573  0.93787  0.75282  1.0000
  C   C797      1.0  0.17389  0.73389  0.80070  1.0000
  C   C798      1.0  0.16038  0.89258  0.71276  1.0000
  H   H639      1.0  0.29696  0.75837  0.97039  1.0000
  C   C799      1.0  0.15029  0.87177  0.53038  1.0000
  C   C800      1.0  0.01913  0.74002  0.89004  1.0000
  H   H640      1.0  0.16266  0.93380  0.57045  1.0000
  C   C801      1.0  0.26480  0.76501  0.98965  1.0000
  H   H641      1.0  0.03388  0.75957  0.71794  1.0000
  C   C802      1.0  0.32256  0.75652  0.52831  1.0000
  C   C803      1.0  0.15269  0.86670  0.62507  1.0000
  C   C804      1.0  0.17326  0.87407  0.61985  1.0000
  C   C805      1.0  0.17356  0.89005  0.61877  1.0000
  C   C806      1.0  0.15334  0.89890  0.62270  1.0000
  C   C807      1.0  0.13275  0.89153  0.62743  1.0000
  C   C808      1.0  0.13250  0.87557  0.62892  1.0000
  H   H642      1.0  0.18897  0.86746  0.61700  1.0000
  H   H643      1.0  0.18961  0.89561  0.61508  1.0000
  H   H644      1.0  0.11701  0.89812  0.63018  1.0000
  H   H645      1.0  0.11653  0.87007  0.63327  1.0000
  C   C809      1.0  0.14091  0.77994  0.53691  1.0000
  H   H646      1.0  0.12935  0.75731  0.52953  1.0000
  C   C810      1.0  0.28878  0.74589  0.83107  1.0000
  C   C811      1.0  0.12750  0.78822  0.96176  1.0000
  C   C812      1.0  0.18808  0.77335  0.92950  1.0000
  C   C813      1.0  0.14425  0.79413  0.52503  1.0000
  C   C814      1.0  0.02878  0.76115  0.73931  1.0000
  H   H647      1.0  0.10757  0.76806  0.96196  1.0000
  H   H648      1.0  0.14728  0.80814  0.96871  1.0000
  H   H649      1.0  0.15151  0.80306  0.53723  1.0000
  C   C815      1.0  0.16018  0.78435  0.72977  1.0000
  C   C816      1.0  0.16507  0.78196  0.75786  1.0000
  C   C817      1.0  0.14766  0.77823  0.77667  1.0000
  C   C818      1.0  0.12503  0.77716  0.76766  1.0000
  C   C819      1.0  0.11996  0.77995  0.73973  1.0000
  C   C820      1.0  0.13748  0.78348  0.72080  1.0000
  H   H650      1.0  0.18241  0.78284  0.76524  1.0000
  H   H651      1.0  0.15175  0.77621  0.79812  1.0000
  H   H652      1.0  0.10245  0.77924  0.73265  1.0000
  H   H653      1.0  0.13348  0.78532  0.69926  1.0000
  C   C821      1.0  0.29756  0.75633  0.61976  1.0000
  C   C822      1.0  0.27647  0.75854  0.63370  1.0000
  C   C823      1.0  0.26157  0.77086  0.62725  1.0000
  C   C824      1.0  0.26764  0.78125  0.60683  1.0000
  C   C825      1.0  0.28855  0.77890  0.59255  1.0000
  C   C826      1.0  0.30341  0.76650  0.59891  1.0000
  H   H654      1.0  0.27177  0.75077  0.64992  1.0000
  H   H655      1.0  0.24563  0.77252  0.63851  1.0000
  H   H656      1.0  0.29345  0.78685  0.57674  1.0000
  C   C827      1.0  0.18402  0.89400  0.70800  1.0000
  S   S117      1.0  0.07494  0.96567  0.63575  1.0000
  H   H657      1.0  0.04158  0.93458  0.71187  1.0000
  S   S118      1.0  0.11401  0.74784  0.90865  1.0000
  C   C828      1.0  0.13191  0.76836  0.52057  1.0000
  H   H658      1.0  0.08139  0.80273  0.91457  1.0000
  C   C829      1.0  0.14888  0.93261  0.55570  1.0000
  C   C830      1.0  0.09916  0.84328  0.59351  1.0000
  C   C831      1.0  0.17317  0.87607  0.53230  1.0000
  C   C832      1.0  0.15851  0.90025  0.82270  1.0000
  C   C833      1.0  0.16211  0.73565  0.77582  1.0000
  H   H659      1.0  0.07311  0.95268  0.70915  1.0000
  C   C834      1.0  0.19630  0.73589  0.56730  1.0000
  C   C835      1.0  0.00582  0.75948  0.74721  1.0000
  C   C836      1.0  0.09877  0.81693  0.60731  1.0000
  H   H660      1.0  0.08923  0.83559  0.63393  1.0000
  H   H661      1.0  0.25609  0.76577  0.97009  1.0000
  H   H662      1.0  0.01839  0.76104  0.86755  1.0000
  C   C837      1.0  0.16467  0.91437  0.78053  1.0000
  H   H663      1.0  0.17367  0.94391  0.66173  1.0000
  S   S119      1.0  0.04958  0.73619  0.88909  1.0000
  H   H664      1.0  0.01724  0.79349  0.87545  1.0000
  C   C838      1.0  0.28765  0.73012  0.83121  1.0000
  C   C839      1.0  0.99924  0.76142  0.77496  1.0000
  H   H665      1.0  0.00677  0.92659  0.55671  1.0000
  C   C840      1.0  0.04049  0.93571  0.55293  1.0000
  C   C841      1.0  0.09489  0.83224  0.61344  1.0000
  C   C842      1.0  0.02241  0.92677  0.54447  1.0000
  H   H666      1.0  0.04893  0.96563  0.81162  1.0000
  C   C843      1.0  0.23931  0.73852  0.93889  1.0000
  C   C844      1.0  0.20713  0.78230  0.93397  1.0000
  H   H667      1.0  0.21191  0.75104  0.64103  1.0000
  H   H668      1.0  0.16193  0.89846  0.84445  1.0000
  H   H669      1.0  0.03457  0.95335  0.61731  1.0000
  H   H670      1.0  0.25528  0.75514  0.56689  1.0000
  C   C845      1.0  0.10713  0.81264  0.58131  1.0000
  C   C846      1.0  0.06625  0.89435  0.56389  1.0000
  C   C847      1.0  0.22032  0.74295  0.65467  1.0000
  H   H671      1.0  0.01037  0.91148  0.51344  1.0000
  H   H672      1.0  0.09486  0.96618  0.73976  1.0000
  C   C848      1.0  0.06452  0.79784  0.91526  1.0000
  H   H673      1.0  0.00497  0.77931  0.91622  1.0000
  H   H674      1.0  0.05163  0.76972  0.80169  1.0000
  H   H675      1.0  0.09589  0.80840  0.62293  1.0000
  S   S120      1.0  0.17463  0.73378  0.87787  1.0000
  H   H676      1.0  0.20385  0.73920  0.82385  1.0000
  P   P29       1.0  0.02702  0.77320  0.97022  1.0000
  C   C849      1.0  0.11611  0.77632  0.97445  1.0000
  H   H677      1.0  0.03329  0.80487  0.98538  1.0000
  C   C850      1.0  0.00297  0.97106  0.76921  1.0000
  Fe  Fe64      1.0  0.13749  0.74264  0.87242  1.0000
  C   C851      1.0  0.04979  0.79942  0.89271  1.0000
  C   C852      1.0  0.08805  0.83609  0.50448  1.0000
  H   H678      1.0  0.17915  0.77377  0.90989  1.0000
  C   C853      1.0  0.24992  0.74734  0.91882  1.0000
  C   C854      1.0  0.17999  0.76416  0.95064  1.0000
  H   H679      1.0  0.27782  0.74865  0.88967  1.0000
  H   H680      1.0  0.11830  0.82013  0.54154  1.0000
  C   C855      1.0  0.03611  0.78302  0.93941  1.0000
  C   C856      1.0  0.02562  0.96792  0.77735  1.0000
  C   C857      1.0  0.22996  0.79144  0.52600  1.0000
  C   C858      1.0  0.22207  0.74614  0.68282  1.0000
  C   C859      1.0  0.02153  0.78451  0.91649  1.0000
  H   H681      1.0  0.01114  0.76702  0.81594  1.0000
  H   H682      1.0  0.16261  0.74535  0.73504  1.0000
  C   C860      1.0  0.02840  0.79264  0.89323  1.0000
  H   H683      1.0  0.09656  0.85507  0.59893  1.0000
  C   C861      1.0  0.11301  0.92966  0.51769  1.0000
  H   H684      1.0  0.21300  0.78970  0.91773  1.0000
  H   H685      1.0  0.00192  0.94301  0.70146  1.0000
  H   H686      1.0  0.16218  0.96656  0.68950  1.0000
  C   C862      1.0  0.10353  0.88164  0.56467  1.0000
  H   H687      1.0  0.13819  0.87891  0.51915  1.0000
  C   C863      1.0  0.02451  0.91826  0.52019  1.0000
  H   H688      1.0  0.24268  0.75839  0.91363  1.0000
  C   C864      1.0  0.99795  0.95537  0.61383  1.0000
  P   P30       1.0  0.11329  0.85323  0.54142  1.0000
  H   H689      1.0  0.03964  0.88266  0.54262  1.0000
  C   C865      1.0  0.09508  0.86966  0.54886  1.0000
  H   H690      1.0  0.07604  0.83453  0.52131  1.0000
  C   C866      1.0  0.05564  0.95654  0.70544  1.0000
  C   C867      1.0  0.17204  0.74358  0.75406  1.0000
  C   C868      1.0  0.11952  0.94401  0.52672  1.0000
  H   H691      1.0  0.09592  0.90309  0.58420  1.0000
  H   H692      1.0  0.15416  0.83890  0.56724  1.0000
  C   C869      1.0  0.12440  0.91674  0.52843  1.0000
  H   H693      1.0  0.08069  0.95676  0.94772  1.0000
  H   H694      1.0  0.21495  0.75674  0.69088  1.0000
  C   C870      1.0  0.25129  0.73181  0.80724  1.0000
  C   C871      1.0  0.11153  0.82366  0.56141  1.0000
  C   C872      1.0  0.01585  0.76537  0.79445  1.0000
  H   H695      1.0  0.01865  0.97035  0.84692  1.0000
  H   H696      1.0  0.23479  0.79839  0.54335  1.0000
  C   C873      1.0  0.01184  0.90267  0.98261  1.0000
  H   H697      1.0  0.08044  0.73113  0.94424  1.0000
  C   C874      1.0  0.27106  0.75465  0.81928  1.0000
  C   C875      1.0  0.25212  0.74769  0.80731  1.0000
  H   H698      1.0  0.11950  0.90552  0.52256  1.0000
  P   P31       1.0  0.23121  0.75907  0.78855  1.0000
  C   C876      1.0  0.22381  0.77575  0.80888  1.0000
  C   C877      1.0  0.24422  0.76501  0.75637  1.0000
  C   C878      1.0  0.23433  0.77703  0.74122  1.0000
  C   C879      1.0  0.24400  0.78152  0.71614  1.0000
  C   C880      1.0  0.26389  0.77422  0.70615  1.0000
  C   C881      1.0  0.27419  0.76248  0.72135  1.0000
  C   C882      1.0  0.26446  0.75789  0.74637  1.0000
  C   C883      1.0  0.20466  0.77607  0.82672  1.0000
  C   C884      1.0  0.19890  0.78912  0.84180  1.0000
  C   C885      1.0  0.21220  0.80198  0.83935  1.0000
  C   C886      1.0  0.23136  0.80177  0.82189  1.0000
  C   C887      1.0  0.23718  0.78873  0.80675  1.0000
  C   C888      1.0  0.20520  0.74874  0.78258  1.0000
  C   C889      1.0  0.19540  0.74029  0.80402  1.0000
  H   H699      1.0  0.05530  0.80551  0.87453  1.0000
  C   C890      1.0  0.30772  0.73259  0.54388  1.0000
  C   C891      1.0  0.02855  0.97655  0.69182  1.0000
  C   C892      1.0  0.19349  0.75008  0.75738  1.0000
  C   C893      1.0  0.24597  0.78782  0.50531  1.0000
  C   C894      1.0  0.05715  0.74946  0.95540  1.0000
  H   H700      1.0  0.11060  0.80078  0.57675  1.0000
  H   H701      1.0  0.27247  0.76683  0.81889  1.0000
  C   C895      1.0  0.20751  0.78641  0.52397  1.0000
  H   H702      1.0  0.21900  0.78290  0.74858  1.0000
  H   H703      1.0  0.23585  0.79059  0.70432  1.0000
  H   H704      1.0  0.27132  0.77769  0.68665  1.0000
  H   H705      1.0  0.28967  0.75692  0.71356  1.0000
  H   H706      1.0  0.27266  0.74871  0.75762  1.0000
  H   H707      1.0  0.19383  0.76641  0.82903  1.0000
  H   H708      1.0  0.18388  0.78930  0.85514  1.0000
  H   H709      1.0  0.20750  0.81214  0.85082  1.0000
  H   H710      1.0  0.24157  0.81179  0.81983  1.0000
  H   H711      1.0  0.25200  0.78886  0.79318  1.0000
  H   H712      1.0  0.02100  0.95317  0.50460  1.0000
  H   H713      1.0  0.20668  0.87041  0.54861  1.0000
  H   H714      1.0  0.99851  0.96561  0.60160  1.0000
  H   H715      1.0  0.26524  0.75529  0.51719  1.0000
  H   H716      1.0  0.20012  0.75679  0.74064  1.0000
  C   C896      1.0  0.16895  0.91207  0.80863  1.0000
  P   P32       1.0  0.14421  0.90754  0.73008  1.0000
  C   C897      1.0  0.15155  0.92614  0.71802  1.0000
  C   C898      1.0  0.14470  0.93900  0.73333  1.0000
  C   C899      1.0  0.14895  0.95350  0.72326  1.0000
  C   C900      1.0  0.15957  0.95529  0.69760  1.0000
  C   C901      1.0  0.16607  0.94256  0.68203  1.0000
  C   C902      1.0  0.16198  0.92804  0.69212  1.0000
  C   C903      1.0  0.13950  0.89295  0.78054  1.0000
  C   C904      1.0  0.11412  0.90632  0.72214  1.0000
  C   C905      1.0  0.10750  0.90369  0.69482  1.0000
  C   C906      1.0  0.08428  0.90330  0.68788  1.0000
  C   C907      1.0  0.06748  0.90571  0.70816  1.0000
  C   C908      1.0  0.07390  0.90864  0.73539  1.0000
  C   C909      1.0  0.09718  0.90906  0.74237  1.0000
  S   S121      1.0  0.10753  0.73940  0.84348  1.0000
  H   H717      1.0  0.14354  0.96343  0.73499  1.0000
  H   H718      1.0  0.99912  0.97181  0.74747  1.0000
  C   C910      1.0  0.01544  0.95114  0.70117  1.0000
  H   H719      1.0  0.16632  0.91839  0.67919  1.0000
  H   H720      1.0  0.12840  0.88528  0.76977  1.0000
  H   H721      1.0  0.12038  0.90230  0.67880  1.0000
  H   H722      1.0  0.07928  0.90154  0.66660  1.0000
  H   H723      1.0  0.04950  0.90565  0.70248  1.0000
  H   H724      1.0  0.06085  0.91079  0.75099  1.0000
  H   H725      1.0  0.10186  0.91175  0.76336  1.0000
  H   H726      1.0  0.07436  0.94318  0.54431  1.0000
  C   C911      1.0  0.05786  0.78954  0.93837  1.0000
  H   H727      1.0  0.14061  0.73209  0.98221  1.0000
  C   C912      1.0  0.28549  0.73721  0.53586  1.0000
  H   H728      1.0  0.19579  0.74704  0.50442  1.0000
  C   C913      1.0  0.26963  0.74184  0.90523  1.0000
  H   H729      1.0  0.15441  0.85680  0.68756  1.0000
  C   C914      1.0  0.08923  0.89397  0.57188  1.0000
  C   C915      1.0  0.02394  0.74244  0.98234  1.0000
  C   C916      1.0  0.32690  0.73290  0.73088  1.0000
  H   H730      1.0  0.00480  0.90734  0.96369  1.0000
  H   H731      1.0  0.03889  0.94250  0.57148  1.0000
  C   C917      1.0  0.14993  0.87891  0.70605  1.0000
  C   C918      1.0  0.14304  0.85845  0.54326  1.0000
  H   H732      1.0  0.22419  0.74306  0.94931  1.0000
  C   C919      1.0  0.06326  0.92728  0.51340  1.0000
  C   C920      1.0  0.05102  0.97158  0.69800  1.0000
  C   C921      1.0  0.16267  0.86718  0.69343  1.0000
  H   H733      1.0  0.30355  0.75129  0.83986  1.0000
  H   H734      1.0  0.21479  0.88356  0.69087  1.0000
  H   H735      1.0  0.13608  0.88133  0.81942  1.0000
  C   C922      1.0  0.14953  0.90500  0.76644  1.0000
  H   H736      1.0  0.23220  0.78954  0.96319  1.0000
  C   C923      1.0  0.05757  0.88243  0.54845  1.0000
  H   H737      1.0  0.19262  0.90422  0.71390  1.0000
  H   H738      1.0  0.13193  0.87724  0.71035  1.0000
  C   C924      1.0  0.15920  0.84923  0.55713  1.0000
  C   C925      1.0  0.07192  0.87013  0.54091  1.0000
  H   H739      1.0  0.02059  0.88097  0.96451  1.0000
  H   H740      1.0  0.19563  0.85987  0.67748  1.0000
  H   H741      1.0  0.18052  0.91941  0.81947  1.0000
  C   C926      1.0  0.21966  0.75756  0.57627  1.0000
  C   C927      1.0  0.18598  0.86890  0.68778  1.0000
  C   C928      1.0  0.13845  0.79890  0.97837  1.0000
  H   H742      1.0  0.17337  0.92336  0.76987  1.0000
  H   H743      1.0  0.14219  0.95659  0.55259  1.0000
  C   C929      1.0  0.18902  0.86699  0.54671  1.0000
  C   C930      1.0  0.03876  0.76695  0.78650  1.0000
  C   C931      1.0  0.21803  0.78208  0.95966  1.0000
  C   C932      1.0  0.10745  0.83907  0.56728  1.0000
  H   H744      1.0  0.29789  0.77212  0.51050  1.0000
  C   C933      1.0  0.28811  0.76075  0.98970  1.0000
  H   H745      1.0  0.05514  0.90380  0.57010  1.0000
  C   C934      1.0  0.19104  0.76373  0.97623  1.0000
  C   C935      1.0  0.14222  0.91824  0.54743  1.0000
  H   H746      1.0  0.31960  0.76503  0.58813  1.0000
  H   H747      1.0  0.06308  0.76600  0.75296  1.0000
  C   C936      1.0  0.03786  0.94635  0.70709  1.0000
  H   H748      1.0  0.16471  0.75769  0.94729  1.0000
  H   H749      1.0  0.23471  0.73847  0.72207  1.0000
  C   C937      1.0  0.09831  0.97745  0.74689  1.0000
  H   H750      1.0  0.18408  0.75675  0.99238  1.0000
  S   S122      1.0  0.08281  0.97405  0.55891  1.0000
  H   H751      1.0  0.04918  0.94908  0.97903  1.0000
  H   H752      1.0  0.11055  0.95411  0.51954  1.0000
  C   C938      1.0  0.21025  0.77266  0.98095  1.0000
  H   H753      1.0  0.06983  0.78819  0.95531  1.0000
  H   H754      1.0  0.06719  0.75780  0.94473  1.0000
  H   H755      1.0  0.12102  0.88135  0.57213  1.0000
  C   C939      1.0  0.00539  0.72940  0.90329  1.0000
  C   C940      1.0  0.04524  0.76481  0.75896  1.0000
  H   H756      1.0  0.22145  0.76896  0.58411  1.0000
  C   C941      1.0  0.03787  0.97201  0.98787  1.0000
  C   C942      1.0  0.32607  0.74233  0.54048  1.0000
  C   C943      1.0  0.19838  0.75066  0.57703  1.0000
  H   H757      1.0  0.17859  0.88651  0.52286  1.0000
  C   C944      1.0  0.31917  0.73155  0.70378  1.0000
  C   C945      1.0  0.03640  0.75358  0.96852  1.0000
  C   C946      1.0  0.23886  0.74975  0.56569  1.0000
  C   C947      1.0  0.05184  0.96096  0.97502  1.0000
  C   C948      1.0  0.13742  0.94547  0.54553  1.0000
  C   C949      1.0  0.06956  0.96525  0.95737  1.0000
  C   C950      1.0  0.10741  0.84506  0.50797  1.0000
  C   C951      1.0  0.30064  0.76103  0.51960  1.0000
  S   S123      1.0  0.31588  0.74086  0.62981  1.0000
  C   C952      1.0  0.00811  0.75270  0.87779  1.0000
  H   H758      1.0  0.19494  0.78942  0.53976  1.0000
  H   H759      1.0  0.08736  0.97300  0.78875  1.0000
  C   C953      1.0  0.28221  0.75140  0.52323  1.0000
  C   C954      1.0  0.04479  0.91861  0.50455  1.0000
  C   C955      1.0  0.03127  0.96766  0.80533  1.0000
  C   C956      1.0  0.23325  0.73580  0.70039  1.0000
  C   C957      1.0  0.02077  0.88783  0.98306  1.0000
  H   H760      1.0  0.13703  0.97773  0.98523  1.0000
  C   C958      1.0  0.23672  0.73519  0.55446  1.0000
  H   H761      1.0  0.26317  0.79212  0.50667  1.0000
  C   C959      1.0  0.04019  0.78199  0.99969  1.0000
  C   C960      1.0  0.01420  0.97031  0.82520  1.0000
  H   H762      1.0  0.14507  0.73116  0.77363  1.0000
  H   H763      1.0  0.03896  0.96593  0.76199  1.0000
  H   H764      1.0  0.27421  0.72976  0.98925  1.0000
  H   H765      1.0  0.17982  0.73051  0.56850  1.0000
  H   H766      1.0  0.06478  0.86090  0.52939  1.0000
  C   C961      1.0  0.04119  0.79785  0.00121  1.0000
  C   C962      1.0  0.06488  0.73434  0.95530  1.0000
  H   H767      1.0  0.08240  0.89599  0.50564  1.0000
  H   H768      1.0  0.00377  0.73858  0.81382  1.0000
  H   H769      1.0  0.32935  0.73586  0.68685  1.0000
  H   H770      1.0  0.18926  0.79790  0.00067  1.0000
  C   C963      1.0  0.22973  0.72945  0.64407  1.0000
  H   H771      1.0  0.01476  0.79355  0.50256  1.0000
  H   H772      1.0  0.56209  0.19209  0.40321  1.0000
  H   H773      1.0  0.33544  0.14382  0.03511  1.0000
  C   C964      1.0  0.42110  0.21976  0.40656  1.0000
  H   H774      1.0  0.57657  0.21500  0.27218  1.0000
  C   C965      1.0  0.66154  0.22455  0.47156  1.0000
  P   P33       1.0  0.63651  0.18299  0.45075  1.0000
  C   C966      1.0  0.61349  0.20502  0.38143  1.0000
  H   H775      1.0  0.65409  0.17453  0.39486  1.0000
  H   H776      1.0  0.39517  0.20279  0.40680  1.0000
  C   C967      1.0  0.58043  0.19386  0.40285  1.0000
  C   C968      1.0  0.59660  0.15501  0.49689  1.0000
  H   H777      1.0  0.62088  0.21192  0.36540  1.0000
  H   H778      1.0  0.61496  0.15369  0.45840  1.0000
  H   H779      1.0  0.40191  0.22771  0.48196  1.0000
  H   H780      1.0  0.38325  0.20795  0.45501  1.0000
  H   H781      1.0  0.65645  0.19840  0.35039  1.0000
  C   C969      1.0  0.40381  0.21134  0.41872  1.0000
  H   H782      1.0  0.61288  0.19703  0.27111  1.0000
  H   H783      1.0  0.46022  0.22719  0.36250  1.0000
  C   C970      1.0  0.66122  0.16674  0.40987  1.0000
  C   C971      1.0  0.62751  0.19909  0.40231  1.0000
  C   C972      1.0  0.59447  0.18772  0.42361  1.0000
  C   C973      1.0  0.62817  0.20375  0.27093  1.0000
  C   C974      1.0  0.63450  0.21162  0.29460  1.0000
  C   C975      1.0  0.39706  0.21429  0.44593  1.0000
  H   H784      1.0  0.63416  0.21657  0.44681  1.0000
  C   C976      1.0  0.61818  0.19033  0.42353  1.0000
  C   C977      1.0  0.64177  0.20436  0.24714  1.0000
  H   H785      1.0  0.57894  0.20748  0.36599  1.0000
  C   C978      1.0  0.65439  0.22016  0.29453  1.0000
  S   S124      1.0  0.34588  0.20770  0.39008  1.0000
  C   C979      1.0  0.61906  0.17546  0.47815  1.0000
  H   H786      1.0  0.64562  0.20155  0.40219  1.0000
  C   C980      1.0  0.58993  0.20251  0.38177  1.0000
  H   H787      1.0  0.58661  0.18115  0.43976  1.0000
  C   C981      1.0  0.56737  0.22578  0.27136  1.0000
  H   H788      1.0  0.50093  0.21830  0.36513  1.0000
  H   H789      1.0  0.56281  0.22721  0.31541  1.0000
  H   H790      1.0  0.42581  0.21777  0.38519  1.0000
  C   C982      1.0  0.64844  0.21320  0.45982  1.0000
  H   H791      1.0  0.59029  0.14361  0.49530  1.0000
  C   C983      1.0  0.65367  0.19785  0.46522  1.0000
  C   C984      1.0  0.65569  0.16800  0.43809  1.0000
  H   H792      1.0  0.63698  0.19816  0.22884  1.0000
  C   C985      1.0  0.40769  0.22561  0.46110  1.0000
  H   H793      1.0  0.62413  0.21099  0.31314  1.0000
  C   C986      1.0  0.61070  0.16073  0.47611  1.0000
  H   H794      1.0  0.56838  0.22718  0.22699  1.0000
  H   H795      1.0  0.66147  0.15805  0.47849  1.0000
  H   H796      1.0  0.65918  0.22600  0.31323  1.0000
  H   H797      1.0  0.47462  0.22718  0.45054  1.0000
  C   C987      1.0  0.66175  0.21280  0.24704  1.0000
  H   H798      1.0  0.33123  0.17906  0.40755  1.0000
  C   C988      1.0  0.61249  0.18455  0.50076  1.0000
  H   H799      1.0  0.57770  0.21891  0.80984  1.0000
  C   C989      1.0  0.65362  0.21832  0.93957  1.0000
  S   S125      1.0  0.64784  0.21597  0.85769  1.0000
  C   C990      1.0  0.63021  0.22116  0.93544  1.0000
  C   C991      1.0  0.60603  0.21897  0.78105  1.0000
  H   H800      1.0  0.62213  0.21704  0.91687  1.0000
  C   C992      1.0  0.33631  0.22777  0.78443  1.0000
  C   C993      1.0  0.59838  0.17880  0.52150  1.0000
  H   H801      1.0  0.36506  0.21874  0.80751  1.0000
  H   H802      1.0  0.63166  0.22186  0.74954  1.0000
  C   C994      1.0  0.59051  0.16402  0.51963  1.0000
  H   H803      1.0  0.61645  0.21102  0.79299  1.0000
  C   C995      1.0  0.35958  0.22427  0.78860  1.0000
  C   C996      1.0  0.37582  0.22813  0.76872  1.0000
  H   H804      1.0  0.59345  0.18584  0.53899  1.0000
  H   H805      1.0  0.57955  0.15959  0.53570  1.0000
  C   C997      1.0  0.58420  0.22339  0.79056  1.0000
  H   H806      1.0  0.39386  0.22561  0.77230  1.0000
  H   H807      1.0  0.66334  0.21218  0.92383  1.0000
  C   C998      1.0  0.61461  0.22515  0.75665  1.0000
  S   S126      1.0  0.34091  0.22111  0.85843  1.0000
  H   H808      1.0  0.53549  0.22810  0.73373  1.0000
  H   H809      1.0  0.49434  0.22403  0.74265  1.0000
  H   H810      1.0  0.33638  0.19898  0.91754  1.0000
  H   H811      1.0  0.61814  0.19611  0.50240  1.0000
  Fe  Fe65      1.0  0.59377  0.45145  0.10604  1.0000
  S   S127      1.0  0.58843  0.42672  0.11590  1.0000
  C   C999      1.0  0.48588  0.26608  0.23848  1.0000
  Fe  Fe66      1.0  0.60092  0.45915  0.16819  1.0000
  S   S128      1.0  0.59666  0.43505  0.18167  1.0000
  C   C1000     1.0  0.53068  0.30452  0.20977  1.0000
  Fe  Fe67      1.0  0.61830  0.42814  0.14467  1.0000
  S   S129      1.0  0.64661  0.40949  0.14875  1.0000
  Fe  Fe68      1.0  0.56736  0.43518  0.15177  1.0000
  S   S130      1.0  0.53363  0.42567  0.16537  1.0000
  S   S131      1.0  0.62522  0.45257  0.13312  1.0000
  Fe  Fe69      1.0  0.37392  0.42714  0.10808  1.0000
  S   S132      1.0  0.35121  0.44827  0.10467  1.0000
  C   C1001     1.0  0.42516  0.23415  0.44909  1.0000
  Fe  Fe70      1.0  0.41677  0.44533  0.09564  1.0000
  S   S133      1.0  0.45410  0.44483  0.08311  1.0000
  Fe  Fe71      1.0  0.37807  0.46003  0.13010  1.0000
  S   S134      1.0  0.33485  0.31317  0.12126  1.0000
  Fe  Fe72      1.0  0.37231  0.45423  0.06681  1.0000
  C   C1002     1.0  0.65873  0.46212  0.26596  1.0000
  S   S135      1.0  0.39972  0.43876  0.13534  1.0000
  S   S136      1.0  0.39296  0.43235  0.06884  1.0000
  S   S137      1.0  0.64569  0.29681  0.10908  1.0000
  C   C1003     1.0  0.37110  0.33799  0.06713  1.0000
  C   C1004     1.0  0.60513  0.30996  0.15880  1.0000
  Fe  Fe73      1.0  0.61090  0.26618  0.33898  1.0000
  S   S138      1.0  0.60658  0.24104  0.33672  1.0000
  S   S139      1.0  0.61738  0.28279  0.30380  1.0000
  Fe  Fe74      1.0  0.60933  0.26621  0.40306  1.0000
  S   S140      1.0  0.60470  0.24110  0.40501  1.0000
  S   S141      1.0  0.61163  0.28295  0.43867  1.0000
  C   C1005     1.0  0.35174  0.32652  0.43696  1.0000
  Fe  Fe75      1.0  0.57924  0.24488  0.37003  1.0000
  H   H812      1.0  0.39778  0.38784  0.05269  1.0000
  S   S142      1.0  0.63770  0.26454  0.37192  1.0000
  S   S143      1.0  0.58251  0.27007  0.37024  1.0000
  C   C1006     1.0  0.59842  0.36460  0.20631  1.0000
  Fe  Fe76      1.0  0.40039  0.25101  0.36407  1.0000
  S   S144      1.0  0.37651  0.27002  0.34956  1.0000
  S   S145      1.0  0.43872  0.25797  0.36294  1.0000
  C   C1007     1.0  0.38104  0.31692  0.03701  1.0000
  H   H813      1.0  0.65771  0.44990  0.26616  1.0000
  Fe  Fe77      1.0  0.35750  0.25217  0.32654  1.0000
  H   H814      1.0  0.50637  0.27845  0.44010  1.0000
  Fe  Fe78      1.0  0.35398  0.26432  0.38590  1.0000
  C   C1008     1.0  0.35096  0.37337  0.12592  1.0000
  H   H815      1.0  0.45472  0.26182  0.21617  1.0000
  S   S146      1.0  0.37833  0.24638  0.40179  1.0000
  C   C1009     1.0  0.43161  0.23117  0.42158  1.0000
  C   C1010     1.0  0.40416  0.28986  0.47840  1.0000
  H   H816      1.0  0.39959  0.29746  0.49524  1.0000
  H   H817      1.0  0.57356  0.46412  0.00481  1.0000
  H   H818      1.0  0.38453  0.30249  0.44834  1.0000
  C   C1011     1.0  0.38553  0.34186  0.43863  1.0000
  H   H819      1.0  0.61153  0.46915  0.37078  1.0000
  H   H820      1.0  0.53901  0.30708  0.36388  1.0000
  H   H821      1.0  0.59261  0.38568  0.07724  1.0000
  H   H822      1.0  0.45363  0.46761  0.26358  1.0000
  C   C1012     1.0  0.38359  0.38362  0.04075  1.0000
  H   H823      1.0  0.35322  0.33454  0.23432  1.0000
  C   C1013     1.0  0.46348  0.26089  0.23578  1.0000
  C   C1014     1.0  0.35145  0.27053  0.46245  1.0000
  S   S147      1.0  0.58592  0.45826  0.06087  1.0000
  H   H824      1.0  0.41940  0.26254  0.41807  1.0000
  P   P34       1.0  0.43876  0.24911  0.46821  1.0000
  C   C1015     1.0  0.46792  0.25084  0.36398  1.0000
  H   H825      1.0  0.49362  0.28557  0.30762  1.0000
  C   C1016     1.0  0.50929  0.25614  0.36601  1.0000
  C   C1017     1.0  0.51496  0.24062  0.36637  1.0000
  C   C1018     1.0  0.47702  0.26570  0.45271  1.0000
  H   H826      1.0  0.45685  0.45461  0.02690  1.0000
  C   C1019     1.0  0.37073  0.26032  0.15181  1.0000
  H   H827      1.0  0.40641  0.26269  0.20673  1.0000
  H   H828      1.0  0.39738  0.36090  0.03891  1.0000
  C   C1020     1.0  0.43362  0.44797  0.25618  1.0000
  H   H829      1.0  0.62537  0.30375  0.48065  1.0000
  C   C1021     1.0  0.62569  0.27995  0.47074  1.0000
  C   C1022     1.0  0.33563  0.29307  0.01849  1.0000
  S   S148      1.0  0.34479  0.25061  0.28239  1.0000
  C   C1023     1.0  0.40148  0.28296  0.43022  1.0000
  C   C1024     1.0  0.53690  0.47071  0.21896  1.0000
  C   C1025     1.0  0.33745  0.28135  0.44928  1.0000
  C   C1026     1.0  0.63917  0.28709  0.22423  1.0000
  C   C1027     1.0  0.63270  0.27361  0.21170  1.0000
  C   C1028     1.0  0.53668  0.28320  0.24086  1.0000
  C   C1029     1.0  0.45715  0.46184  0.46569  1.0000
  C   C1030     1.0  0.62394  0.27857  0.26872  1.0000
  C   C1031     1.0  0.61824  0.26483  0.25646  1.0000
  C   C1032     1.0  0.62228  0.26248  0.22799  1.0000
  C   C1033     1.0  0.61011  0.31915  0.18137  1.0000
  C   C1034     1.0  0.35608  0.39707  0.48773  1.0000
  H   H830      1.0  0.61010  0.25622  0.26868  1.0000
  C   C1035     1.0  0.58877  0.40573  0.05163  1.0000
  C   C1036     1.0  0.38845  0.30847  0.05982  1.0000
  C   C1037     1.0  0.33061  0.27499  0.21339  1.0000
  H   H831      1.0  0.36369  0.37215  0.14199  1.0000
  H   H832      1.0  0.59319  0.30932  0.11684  1.0000
  C   C1038     1.0  0.62975  0.38301  0.12509  1.0000
  C   C1039     1.0  0.63121  0.36738  0.11864  1.0000
  H   H833      1.0  0.61455  0.38965  0.11991  1.0000
  H   H834      1.0  0.61711  0.36219  0.10812  1.0000
  C   C1040     1.0  0.51129  0.43113  0.14299  1.0000
  C   C1041     1.0  0.51637  0.43610  0.11635  1.0000
  C   C1042     1.0  0.49857  0.43974  0.09799  1.0000
  C   C1043     1.0  0.47561  0.43928  0.10660  1.0000
  C   C1044     1.0  0.47045  0.43464  0.13350  1.0000
  C   C1045     1.0  0.48831  0.43037  0.15158  1.0000
  H   H835      1.0  0.53406  0.43684  0.10970  1.0000
  H   H836      1.0  0.50264  0.44323  0.07716  1.0000
  H   H837      1.0  0.45276  0.43421  0.14025  1.0000
  H   H838      1.0  0.48433  0.42660  0.17226  1.0000
  H   H839      1.0  0.43962  0.46599  0.38965  1.0000
  C   C1046     1.0  0.45239  0.25437  0.25834  1.0000
  H   H840      1.0  0.36159  0.25205  0.13985  1.0000
  H   H841      1.0  0.37591  0.45880  0.21282  1.0000
  C   C1047     1.0  0.40421  0.46769  0.33424  1.0000
  C   C1048     1.0  0.43535  0.28930  0.27994  1.0000
  C   C1049     1.0  0.61737  0.32837  0.28623  1.0000
  C   C1050     1.0  0.49719  0.26495  0.26398  1.0000
  H   H842      1.0  0.38690  0.34449  0.15771  1.0000
  C   C1051     1.0  0.59630  0.31640  0.13463  1.0000
  H   H843      1.0  0.59579  0.45957  0.24306  1.0000
  C   C1052     1.0  0.64781  0.38995  0.13878  1.0000
  S   S149      1.0  0.39723  0.46744  0.09175  1.0000
  H   H844      1.0  0.37548  0.31065  0.23808  1.0000
  S   S150      1.0  0.57010  0.45960  0.14021  1.0000
  C   C1053     1.0  0.55250  0.41962  0.05757  1.0000
  S   S151      1.0  0.35015  0.27977  0.06741  1.0000
  C   C1054     1.0  0.57689  0.36667  0.21913  1.0000
  C   C1055     1.0  0.49936  0.26729  0.44254  1.0000
  C   C1056     1.0  0.38744  0.31481  0.08622  1.0000
  C   C1057     1.0  0.58140  0.39494  0.07084  1.0000
  H   H845      1.0  0.43497  0.25046  0.25636  1.0000
  H   H846      1.0  0.60875  0.29787  0.15976  1.0000
  C   C1058     1.0  0.33794  0.28094  0.26960  1.0000
  Fe  Fe79      1.0  0.63212  0.23946  0.37170  1.0000
  H   H847      1.0  0.54199  0.25180  0.31410  1.0000
  C   C1059     1.0  0.54351  0.25376  0.26948  1.0000
  C   C1060     1.0  0.36532  0.39342  0.03388  1.0000
  C   C1061     1.0  0.64600  0.44597  0.04455  1.0000
  S   S152      1.0  0.38241  0.23346  0.33875  1.0000
  H   H848      1.0  0.52972  0.25573  0.42666  1.0000
  H   H849      1.0  0.52112  0.43815  0.31549  1.0000
  C   C1062     1.0  0.36914  0.27560  0.14459  1.0000
  C   C1063     1.0  0.35421  0.38134  0.48568  1.0000
  H   H850      1.0  0.33191  0.47531  0.47790  1.0000
  C   C1064     1.0  0.34607  0.37269  0.01173  1.0000
  S   S153      1.0  0.33579  0.28219  0.41278  1.0000
  H   H851      1.0  0.48124  0.32247  0.17932  1.0000
  H   H852      1.0  0.44622  0.30048  0.24311  1.0000
  H   H853      1.0  0.58878  0.46480  0.29288  1.0000
  H   H854      1.0  0.56677  0.31353  0.26644  1.0000
  C   C1065     1.0  0.56352  0.46684  0.43448  1.0000
  C   C1066     1.0  0.49367  0.46248  0.36011  1.0000
  C   C1067     1.0  0.50192  0.45638  0.33509  1.0000
  C   C1068     1.0  0.51447  0.44267  0.33484  1.0000
  C   C1069     1.0  0.51848  0.43483  0.35948  1.0000
  C   C1070     1.0  0.50978  0.44063  0.38437  1.0000
  C   C1071     1.0  0.49733  0.45438  0.38471  1.0000
  C   C1072     1.0  0.36066  0.27097  0.01409  1.0000
  H   H855      1.0  0.55404  0.38814  0.09790  1.0000
  C   C1073     1.0  0.37878  0.32958  0.08985  1.0000
  H   H856      1.0  0.64739  0.29568  0.21205  1.0000
  C   C1074     1.0  0.33861  0.26598  0.26015  1.0000
  H   H857      1.0  0.47707  0.27724  0.14731  1.0000
  H   H858      1.0  0.39246  0.30804  0.10393  1.0000
  C   C1075     1.0  0.55128  0.45370  0.43940  1.0000
  C   C1076     1.0  0.50358  0.24009  0.43807  1.0000
  H   H859      1.0  0.35592  0.37609  0.46560  1.0000
  C   C1077     1.0  0.34664  0.38798  0.01925  1.0000
  H   H860      1.0  0.52281  0.26429  0.36702  1.0000
  H   H861      1.0  0.41311  0.47611  0.29414  1.0000
  C   C1078     1.0  0.65417  0.47009  0.24161  1.0000
  H   H862      1.0  0.50009  0.47064  0.10670  1.0000
  H   H863      1.0  0.39402  0.29675  0.05716  1.0000
  C   C1079     1.0  0.53697  0.45279  0.46261  1.0000
  C   C1080     1.0  0.43410  0.46832  0.36875  1.0000
  H   H864      1.0  0.46702  0.27576  0.45815  1.0000
  C   C1081     1.0  0.41781  0.27690  0.48334  1.0000
  H   H865      1.0  0.51965  0.31344  0.20152  1.0000
  H   H866      1.0  0.45522  0.24776  0.30108  1.0000
  C   C1082     1.0  0.44514  0.46555  0.22040  1.0000
  C   C1083     1.0  0.64473  0.35004  0.20745  1.0000
  C   C1084     1.0  0.44502  0.46100  0.24816  1.0000
  H   H867      1.0  0.38110  0.31154  0.01697  1.0000
  H   H868      1.0  0.55969  0.31038  0.18447  1.0000
  H   H869      1.0  0.35960  0.40375  0.46951  1.0000
  H   H870      1.0  0.58567  0.29070  0.20504  1.0000
  C   C1085     1.0  0.62229  0.33681  0.26261  1.0000
  C   C1086     1.0  0.38040  0.28641  0.16021  1.0000
  C   C1087     1.0  0.39379  0.28197  0.18299  1.0000
  C   C1088     1.0  0.39585  0.26650  0.18966  1.0000
  P   P35       1.0  0.40992  0.29583  0.20176  1.0000
  C   C1089     1.0  0.41313  0.29024  0.23752  1.0000
  C   C1090     1.0  0.43799  0.29741  0.18615  1.0000
  H   H871      1.0  0.63809  0.34296  0.26190  1.0000
  C   C1091     1.0  0.44784  0.28532  0.17102  1.0000
  C   C1092     1.0  0.48172  0.29994  0.16217  1.0000
  C   C1093     1.0  0.34962  0.47869  0.47835  1.0000
  C   C1094     1.0  0.45034  0.31075  0.18933  1.0000
  C   C1095     1.0  0.39595  0.28199  0.25065  1.0000
  C   C1096     1.0  0.39870  0.27714  0.27792  1.0000
  C   C1097     1.0  0.41839  0.28078  0.29259  1.0000
  H   H872      1.0  0.37415  0.46470  0.26306  1.0000
  C   C1098     1.0  0.43279  0.29400  0.25249  1.0000
  C   C1099     1.0  0.39455  0.31386  0.20009  1.0000
  C   C1100     1.0  0.39744  0.32349  0.17727  1.0000
  C   C1101     1.0  0.38482  0.33714  0.17541  1.0000
  C   C1102     1.0  0.48133  0.23844  0.44844  1.0000
  C   C1103     1.0  0.54792  0.24669  0.29491  1.0000
  C   C1104     1.0  0.37874  0.31807  0.22082  1.0000
  S   S154      1.0  0.63602  0.27057  0.17561  1.0000
  H   H873      1.0  0.64668  0.45640  0.03284  1.0000
  C   C1105     1.0  0.55045  0.24643  0.24497  1.0000
  H   H874      1.0  0.37842  0.29817  0.15443  1.0000
  H   H875      1.0  0.46639  0.47723  0.07777  1.0000
  H   H876      1.0  0.54639  0.25136  0.22506  1.0000
  C   C1106     1.0  0.44146  0.47750  0.32250  1.0000
  C   C1107     1.0  0.59738  0.32001  0.28756  1.0000
  C   C1108     1.0  0.38405  0.25577  0.17439  1.0000
  H   H877      1.0  0.44312  0.32019  0.20106  1.0000
  H   H878      1.0  0.38043  0.27921  0.23977  1.0000
  H   H879      1.0  0.38551  0.27052  0.28765  1.0000
  H   H880      1.0  0.42053  0.27693  0.31373  1.0000
  H   H881      1.0  0.35906  0.27907  0.12686  1.0000
  H   H882      1.0  0.43529  0.45932  0.17880  1.0000
  H   H883      1.0  0.40903  0.32031  0.16061  1.0000
  H   H884      1.0  0.64056  0.40962  0.08863  1.0000
  H   H885      1.0  0.35042  0.43798  0.16766  1.0000
  C   C1109     1.0  0.38322  0.36837  0.03300  1.0000
  C   C1110     1.0  0.59654  0.47152  0.03631  1.0000
  H   H886      1.0  0.61744  0.31402  0.19970  1.0000
  H   H887      1.0  0.45220  0.46197  0.44416  1.0000
  H   H888      1.0  0.62695  0.47496  0.41729  1.0000
  H   H889      1.0  0.57257  0.29750  0.33686  1.0000
  C   C1111     1.0  0.57339  0.39199  0.19993  1.0000
  H   H890      1.0  0.62371  0.37501  0.18015  1.0000
  C   C1112     1.0  0.52239  0.29477  0.23008  1.0000
  C   C1113     1.0  0.53643  0.30026  0.34560  1.0000
  H   H891      1.0  0.41538  0.43639  0.19323  1.0000
  C   C1114     1.0  0.51424  0.29678  0.33730  1.0000
  C   C1115     1.0  0.48030  0.46265  0.47296  1.0000
  C   C1116     1.0  0.59247  0.33205  0.13301  1.0000
  H   H892      1.0  0.37704  0.33431  0.11039  1.0000
  H   H893      1.0  0.38518  0.24391  0.18006  1.0000
  C   C1117     1.0  0.53455  0.46512  0.48080  1.0000
  H   H894      1.0  0.50495  0.29636  0.23758  1.0000
  C   C1118     1.0  0.64244  0.41955  0.07582  1.0000
  H   H895      1.0  0.60182  0.39904  0.17482  1.0000
  C   C1119     1.0  0.55331  0.30288  0.20030  1.0000
  H   H896      1.0  0.54781  0.38194  0.22572  1.0000
  C   C1120     1.0  0.59523  0.47111  0.25052  1.0000
  H   H897      1.0  0.37848  0.32594  0.40614  1.0000
  C   C1121     1.0  0.51097  0.28784  0.31387  1.0000
  H   H898      1.0  0.58653  0.33711  0.11389  1.0000
  C   C1122     1.0  0.60629  0.33489  0.17993  1.0000
  C   C1123     1.0  0.46376  0.25287  0.28355  1.0000
  C   C1124     1.0  0.60725  0.37640  0.19039  1.0000
  C   C1125     1.0  0.59133  0.47413  0.27884  1.0000
  H   H899      1.0  0.49076  0.46268  0.17952  1.0000
  H   H900      1.0  0.43319  0.44469  0.27772  1.0000
  H   H901      1.0  0.54172  0.42953  0.05340  1.0000
  C   C1126     1.0  0.41173  0.46482  0.36111  1.0000
  H   H902      1.0  0.49293  0.46353  0.45671  1.0000
  C   C1127     1.0  0.65069  0.35840  0.12571  1.0000
  C   C1128     1.0  0.59751  0.34129  0.15552  1.0000
  H   H903      1.0  0.59400  0.31320  0.30562  1.0000
  H   H904      1.0  0.36336  0.34911  0.07065  1.0000
  C   C1129     1.0  0.44030  0.46089  0.48619  1.0000
  H   H905      1.0  0.49436  0.27067  0.22056  1.0000
  H   H906      1.0  0.62518  0.43504  0.01468  1.0000
  H   H907      1.0  0.39489  0.28518  0.40969  1.0000
  C   C1130     1.0  0.33350  0.33798  0.00415  1.0000
  H   H908      1.0  0.59517  0.35341  0.15343  1.0000
  C   C1131     1.0  0.58688  0.47191  0.00971  1.0000
  C   C1132     1.0  0.37286  0.33190  0.04038  1.0000
  C   C1133     1.0  0.58211  0.32019  0.26543  1.0000
  H   H909      1.0  0.62940  0.28267  0.04041  1.0000
  C   C1134     1.0  0.55974  0.28215  0.23221  1.0000
  C   C1135     1.0  0.55534  0.29485  0.33039  1.0000
  H   H910      1.0  0.52793  0.44244  0.46657  1.0000
  C   C1136     1.0  0.56790  0.29180  0.21175  1.0000
  H   H911      1.0  0.33147  0.45585  0.20052  1.0000
  H   H912      1.0  0.48192  0.27317  0.36523  1.0000
  C   C1137     1.0  0.33374  0.29288  0.25091  1.0000
  C   C1138     1.0  0.52998  0.28200  0.29897  1.0000
  C   C1139     1.0  0.63114  0.38630  0.04297  1.0000
  H   H913      1.0  0.61719  0.25201  0.21850  1.0000
  C   C1140     1.0  0.59482  0.39002  0.18724  1.0000
  C   C1141     1.0  0.43475  0.45644  0.20052  1.0000
  C   C1142     1.0  0.48617  0.25792  0.28625  1.0000
  H   H914      1.0  0.57503  0.32865  0.22475  1.0000
  H   H915      1.0  0.49850  0.30095  0.15267  1.0000
  C   C1143     1.0  0.35659  0.34426  0.47481  1.0000
  C   C1144     1.0  0.36905  0.34119  0.19609  1.0000
  C   C1145     1.0  0.33680  0.36107  0.11966  1.0000
  C   C1146     1.0  0.63257  0.42027  0.04951  1.0000
  H   H916      1.0  0.62929  0.32802  0.30334  1.0000
  C   C1147     1.0  0.60714  0.33697  0.24014  1.0000
  C   C1148     1.0  0.55218  0.28566  0.30732  1.0000
  H   H917      1.0  0.42631  0.30908  0.00559  1.0000
  H   H918      1.0  0.38668  0.46539  0.32844  1.0000
  S   S155      1.0  0.65120  0.33856  0.11764  1.0000
  S   S156      1.0  0.36610  0.40273  0.12196  1.0000
  H   H919      1.0  0.56958  0.35779  0.23143  1.0000
  Fe  Fe80      1.0  0.35830  0.23052  0.37491  1.0000
  C   C1149     1.0  0.36334  0.47464  0.50124  1.0000
  P   P36       1.0  0.61705  0.40442  0.03624  1.0000
  H   H920      1.0  0.62818  0.25574  0.46747  1.0000
  H   H921      1.0  0.66266  0.43093  0.10614  1.0000
  C   C1150     1.0  0.35383  0.27078  0.49130  1.0000
  H   H922      1.0  0.57163  0.27401  0.24141  1.0000
  C   C1151     1.0  0.65365  0.36266  0.22097  1.0000
  H   H923      1.0  0.41794  0.46252  0.01162  1.0000
  C   C1152     1.0  0.41506  0.26997  0.43514  1.0000
  H   H924      1.0  0.64928  0.46411  0.22306  1.0000
  H   H925      1.0  0.56710  0.28141  0.29600  1.0000
  P   P37       1.0  0.52639  0.27102  0.26796  1.0000
  H   H926      1.0  0.49051  0.45860  0.40413  1.0000
  C   C1153     1.0  0.33473  0.26305  0.23207  1.0000
  C   C1154     1.0  0.34840  0.28136  0.03095  1.0000
  C   C1155     1.0  0.33195  0.38868  0.09128  1.0000
  C   C1156     1.0  0.42354  0.44333  0.20858  1.0000
  C   C1157     1.0  0.61946  0.37290  0.03763  1.0000
  H   H927      1.0  0.34086  0.28330  0.29120  1.0000
  C   C1158     1.0  0.55952  0.39632  0.08274  1.0000
  H   H928      1.0  0.65351  0.33026  0.18265  1.0000
  C   C1159     1.0  0.42277  0.43918  0.23639  1.0000
  C   C1160     1.0  0.48995  0.47810  0.21439  1.0000
  C   C1161     1.0  0.50256  0.47542  0.08632  1.0000
  S   S157      1.0  0.33290  0.24819  0.36138  1.0000
  P   P38       1.0  0.36292  0.34270  0.01090  1.0000
  H   H929      1.0  0.41387  0.42909  0.24254  1.0000
  H   H930      1.0  0.45059  0.29208  0.29139  1.0000
  C   C1162     1.0  0.63520  0.27950  0.01992  1.0000
  C   C1163     1.0  0.50053  0.46786  0.19584  1.0000
  H   H931      1.0  0.58017  0.42717  0.03206  1.0000
  C   C1164     1.0  0.39578  0.29278  0.45192  1.0000
  H   H932      1.0  0.55326  0.44415  0.42551  1.0000
  S   S158      1.0  0.35739  0.46078  0.02426  1.0000
  C   C1165     1.0  0.36605  0.33168  0.21878  1.0000
  C   C1166     1.0  0.54501  0.40858  0.07595  1.0000
  C   C1167     1.0  0.36433  0.36273  0.01866  1.0000
  C   C1168     1.0  0.37269  0.47381  0.24821  1.0000
  H   H933      1.0  0.52822  0.42421  0.35923  1.0000
  H   H934      1.0  0.53209  0.45658  0.18340  1.0000
  H   H935      1.0  0.49956  0.30096  0.34911  1.0000
  C   C1169     1.0  0.46771  0.25126  0.45537  1.0000
  H   H936      1.0  0.52825  0.40978  0.08567  1.0000
  C   C1170     1.0  0.37777  0.34833  0.46346  1.0000
  H   H937      1.0  0.49489  0.25633  0.30580  1.0000
  H   H938      1.0  0.37057  0.26186  0.02354  1.0000
  C   C1171     1.0  0.48599  0.26116  0.36498  1.0000
  P   P39       1.0  0.61423  0.34674  0.20856  1.0000
  H   H939      1.0  0.51263  0.43445  0.40342  1.0000
  C   C1172     1.0  0.51259  0.25450  0.43512  1.0000
  S   S159      1.0  0.54402  0.23340  0.36901  1.0000
  H   H940      1.0  0.49881  0.46227  0.31579  1.0000
  C   C1173     1.0  0.47204  0.31203  0.17722  1.0000
  H   H941      1.0  0.57491  0.46755  0.41678  1.0000
  C   C1174     1.0  0.63219  0.26546  0.47991  1.0000
  C   C1175     1.0  0.57433  0.41825  0.04555  1.0000
  C   C1176     1.0  0.52395  0.46432  0.19800  1.0000
  H   H942      1.0  0.36101  0.26223  0.45041  1.0000
  C   C1177     1.0  0.58690  0.32870  0.24184  1.0000
  C   C1178     1.0  0.63441  0.28965  0.25242  1.0000
  H   H943      1.0  0.66026  0.34700  0.05787  1.0000
  H   H944      1.0  0.63891  0.30031  0.26167  1.0000
  C   C1179     1.0  0.46964  0.28658  0.15915  1.0000
  C   C1180     1.0  0.62995  0.35879  0.04293  1.0000
  H   H945      1.0  0.40005  0.46016  0.37617  1.0000
  C   C1181     1.0  0.65662  0.44490  0.07028  1.0000
  C   C1182     1.0  0.37242  0.33106  0.42527  1.0000
  H   H946      1.0  0.56370  0.40256  0.19725  1.0000
  C   C1183     1.0  0.42265  0.26654  0.46190  1.0000
  C   C1184     1.0  0.44889  0.47520  0.34978  1.0000
  C   C1185     1.0  0.34391  0.33299  0.46174  1.0000
  C   C1186     1.0  0.37368  0.47040  0.21963  1.0000
  H   H947      1.0  0.43871  0.27492  0.16817  1.0000
  H   H948      1.0  0.64237  0.37062  0.23177  1.0000
  H   H949      1.0  0.35881  0.35156  0.19427  1.0000
  H   H950      1.0  0.55510  0.46802  0.22023  1.0000
  C   C1187     1.0  0.56445  0.38034  0.21593  1.0000
  C   C1188     1.0  0.63051  0.29250  0.48744  1.0000
  H   H951      1.0  0.63146  0.47775  0.32912  1.0000
  H   H952      1.0  0.38831  0.35646  0.47389  1.0000
  C   C1189     1.0  0.41916  0.47384  0.31488  1.0000
  H   H953      1.0  0.60212  0.37338  0.02969  1.0000
  H   H954      1.0  0.36543  0.40516  0.04043  1.0000
  C   C1190     1.0  0.49692  0.23032  0.36504  1.0000
  H   H955      1.0  0.40182  0.34512  0.42986  1.0000
  C   C1191     1.0  0.63388  0.43375  0.03424  1.0000
  H   H956      1.0  0.42242  0.45993  0.48054  1.0000
  C   C1192     1.0  0.62750  0.47507  0.37276  1.0000
  H   H957      1.0  0.33862  0.35056  0.13099  1.0000
  H   H958      1.0  0.51376  0.23023  0.43176  1.0000
  C   C1193     1.0  0.34851  0.38733  0.11199  1.0000
  C   C1194     1.0  0.63610  0.47839  0.39887  1.0000
  H   H959      1.0  0.65766  0.23633  0.46691  1.0000
  C   C1195     1.0  0.56146  0.47901  0.45277  1.0000
  C   C1196     1.0  0.54700  0.47821  0.47578  1.0000
  C   C1197     1.0  0.47367  0.23534  0.36370  1.0000
  H   H960      1.0  0.34196  0.31777  0.42701  1.0000
  C   C1198     1.0  0.56272  0.23264  0.24595  1.0000
  C   C1199     1.0  0.65984  0.33991  0.19371  1.0000
  C   C1200     1.0  0.55974  0.23272  0.29576  1.0000
  C   C1201     1.0  0.65400  0.38529  0.05211  1.0000
  C   C1202     1.0  0.65848  0.27616  0.01517  1.0000
  H   H961      1.0  0.52922  0.46484  0.00385  1.0000
  H   H962      1.0  0.44443  0.23788  0.41148  1.0000
  H   H963      1.0  0.53953  0.47398  0.08836  1.0000
  Fe  Fe81      1.0  0.65884  0.28414  0.14646  1.0000
  C   C1203     1.0  0.33185  0.43851  0.16928  1.0000
  H   H964      1.0  0.33336  0.30444  0.25826  1.0000
  H   H965      1.0  0.62072  0.34847  0.03949  1.0000
  C   C1204     1.0  0.65233  0.35793  0.05308  1.0000
  H   H966      1.0  0.33518  0.25150  0.22465  1.0000
  H   H967      1.0  0.33236  0.39556  0.01432  1.0000
  C   C1205     1.0  0.52473  0.47737  0.07607  1.0000
  C   C1206     1.0  0.48673  0.46256  0.50091  1.0000
  C   C1207     1.0  0.45281  0.45474  0.00507  1.0000
  C   C1208     1.0  0.65487  0.43167  0.08588  1.0000
  H   H968      1.0  0.60134  0.28102  0.00203  1.0000
  S   S160      1.0  0.37046  0.47838  0.16343  1.0000
  H   H969      1.0  0.33038  0.23736  0.43135  1.0000
  H   H970      1.0  0.36512  0.26257  0.50118  1.0000
  Fe  Fe82      1.0  0.59636  0.45993  0.60632  1.0000
  S   S161      1.0  0.59194  0.43455  0.60610  1.0000
  C   C1209     1.0  0.35447  0.38630  0.61125  1.0000
  Fe  Fe83      1.0  0.59870  0.46114  0.67116  1.0000
  S   S162      1.0  0.59448  0.43592  0.67496  1.0000
  C   C1210     1.0  0.37635  0.31876  0.55438  1.0000
  Fe  Fe84      1.0  0.61909  0.43347  0.63901  1.0000
  S   S163      1.0  0.64738  0.41479  0.64051  1.0000
  Fe  Fe85      1.0  0.56786  0.43836  0.64179  1.0000
  S   S164      1.0  0.53465  0.42592  0.64617  1.0000
  S   S165      1.0  0.62547  0.45888  0.63717  1.0000
  Fe  Fe86      1.0  0.37541  0.42753  0.60754  1.0000
  S   S166      1.0  0.34729  0.44572  0.60576  1.0000
  S   S167      1.0  0.37439  0.40142  0.61306  1.0000
  Fe  Fe87      1.0  0.41264  0.45115  0.59978  1.0000
  S   S168      1.0  0.44849  0.45926  0.59233  1.0000
  Fe  Fe88      1.0  0.37001  0.45944  0.63397  1.0000
  C   C1211     1.0  0.45400  0.40964  0.86950  1.0000
  Fe  Fe89      1.0  0.36728  0.45552  0.56970  1.0000
  C   C1212     1.0  0.54039  0.46315  0.93502  1.0000
  S   S169      1.0  0.39698  0.44089  0.63761  1.0000
  S   S170      1.0  0.39379  0.43660  0.56994  1.0000
  S   S171      1.0  0.64440  0.30042  0.61425  1.0000
  H   H971      1.0  0.56253  0.45389  0.74144  1.0000
  H   H972      1.0  0.52742  0.30393  0.91643  1.0000
  Fe  Fe90      1.0  0.62782  0.27125  0.84164  1.0000
  S   S172      1.0  0.61294  0.24985  0.82596  1.0000
  H   H973      1.0  0.65562  0.26787  0.94614  1.0000
  Fe  Fe91      1.0  0.61258  0.26448  0.90105  1.0000
  S   S173      1.0  0.59673  0.24248  0.88857  1.0000
  S   S174      1.0  0.60582  0.27287  0.94494  1.0000
  Fe  Fe92      1.0  0.62919  0.23893  0.86322  1.0000
  Fe  Fe93      1.0  0.58192  0.25552  0.85269  1.0000
  S   S175      1.0  0.54599  0.25477  0.83306  1.0000
  S   S176      1.0  0.64581  0.26015  0.87791  1.0000
  S   S177      1.0  0.59612  0.27771  0.86622  1.0000
  C   C1213     1.0  0.59526  0.26211  0.65953  1.0000
  Fe  Fe94      1.0  0.40530  0.25854  0.87210  1.0000
  S   S178      1.0  0.38872  0.28189  0.87344  1.0000
  S   S179      1.0  0.44357  0.25533  0.88335  1.0000
  C   C1214     1.0  0.61777  0.47800  0.52489  1.0000
  C   C1215     1.0  0.42990  0.30235  0.98731  1.0000
  Fe  Fe95      1.0  0.36651  0.27409  0.83846  1.0000
  H   H974      1.0  0.50609  0.31683  0.96486  1.0000
  Fe  Fe96      1.0  0.36239  0.27207  0.90189  1.0000
  C   C1216     1.0  0.57247  0.37939  0.68924  1.0000
  S   S180      1.0  0.38479  0.25137  0.83498  1.0000
  S   S181      1.0  0.37993  0.24910  0.90290  1.0000
  H   H975      1.0  0.47316  0.35544  0.90092  1.0000
  C   C1217     1.0  0.43889  0.23834  0.56157  1.0000
  H   H976      1.0  0.60141  0.26749  0.70192  1.0000
  C   C1218     1.0  0.45921  0.23990  0.51789  1.0000
  C   C1219     1.0  0.57378  0.30067  0.74283  1.0000
  H   H977      1.0  0.36967  0.26422  0.97231  1.0000
  C   C1220     1.0  0.58316  0.30158  0.76924  1.0000
  C   C1221     1.0  0.57007  0.25504  0.69737  1.0000
  H   H978      1.0  0.40410  0.35643  0.98648  1.0000
  H   H979      1.0  0.61062  0.26760  0.65229  1.0000
  C   C1222     1.0  0.36580  0.27621  0.75629  1.0000
  C   C1223     1.0  0.43429  0.46792  0.78756  1.0000
  H   H980      1.0  0.37509  0.30658  0.55619  1.0000
  C   C1224     1.0  0.64712  0.23415  0.67471  1.0000
  H   H981      1.0  0.54971  0.24285  0.63549  1.0000
  C   C1225     1.0  0.58586  0.28853  0.78526  1.0000
  C   C1226     1.0  0.36575  0.45226  0.91013  1.0000
  C   C1227     1.0  0.47179  0.25505  0.86856  1.0000
  C   C1228     1.0  0.49085  0.25479  0.88637  1.0000
  C   C1229     1.0  0.51359  0.25484  0.87604  1.0000
  C   C1230     1.0  0.51767  0.25480  0.84755  1.0000
  C   C1231     1.0  0.49863  0.25476  0.82967  1.0000
  C   C1232     1.0  0.47586  0.25499  0.84003  1.0000
  H   H982      1.0  0.48795  0.25449  0.90839  1.0000
  H   H983      1.0  0.52793  0.25476  0.89014  1.0000
  C   C1233     1.0  0.64915  0.27622  0.52159  1.0000
  H   H984      1.0  0.60886  0.29608  0.69509  1.0000
  C   C1234     1.0  0.64986  0.27105  0.96662  1.0000
  C   C1235     1.0  0.62656  0.27422  0.97144  1.0000
  C   C1236     1.0  0.61967  0.38044  0.69911  1.0000
  H   H985      1.0  0.40547  0.32440  0.64258  1.0000
  H   H986      1.0  0.52416  0.27606  0.74703  1.0000
  C   C1237     1.0  0.64394  0.26362  0.50516  1.0000
  C   C1238     1.0  0.39214  0.32969  0.65521  1.0000
  C   C1239     1.0  0.64509  0.36341  0.62023  1.0000
  C   C1240     1.0  0.64998  0.28060  0.71908  1.0000
  C   C1241     1.0  0.37959  0.47081  0.74861  1.0000
  H   H987      1.0  0.47402  0.46317  0.54292  1.0000
  C   C1242     1.0  0.64733  0.28483  0.77695  1.0000
  C   C1243     1.0  0.63962  0.27151  0.76499  1.0000
  H   H988      1.0  0.41539  0.43207  0.79480  1.0000
  H   H989      1.0  0.37371  0.33290  0.73585  1.0000
  H   H990      1.0  0.34066  0.40111  0.66420  1.0000
  C   C1244     1.0  0.33073  0.38883  0.60892  1.0000
  H   H991      1.0  0.46421  0.32859  0.89435  1.0000
  C   C1245     1.0  0.36282  0.37119  0.61297  1.0000
  C   C1246     1.0  0.45092  0.42281  0.85383  1.0000
  H   H992      1.0  0.38108  0.36902  0.61488  1.0000
  C   C1247     1.0  0.64584  0.39502  0.63257  1.0000
  C   C1248     1.0  0.62559  0.38841  0.62360  1.0000
  C   C1249     1.0  0.62525  0.37275  0.61753  1.0000
  H   H993      1.0  0.61019  0.39538  0.62126  1.0000
  H   H994      1.0  0.60948  0.36787  0.61050  1.0000
  C   C1250     1.0  0.51073  0.43505  0.63080  1.0000
  C   C1251     1.0  0.48884  0.42904  0.63414  1.0000
  C   C1252     1.0  0.46947  0.43638  0.62257  1.0000
  C   C1253     1.0  0.47204  0.44971  0.60749  1.0000
  C   C1254     1.0  0.49391  0.45569  0.60410  1.0000
  C   C1255     1.0  0.51321  0.44839  0.61571  1.0000
  H   H995      1.0  0.56061  0.28611  0.71154  1.0000
  C   C1256     1.0  0.39356  0.34488  0.66285  1.0000
  H   H996      1.0  0.49592  0.46598  0.59240  1.0000
  H   H997      1.0  0.53002  0.45295  0.61254  1.0000
  H   H998      1.0  0.37653  0.26662  0.71718  1.0000
  C   C1257     1.0  0.42483  0.44144  0.78644  1.0000
  P   P40       1.0  0.62346  0.35000  0.71533  1.0000
  H   H999      1.0  0.37841  0.45683  0.71180  1.0000
  C   C1258     1.0  0.50477  0.45481  0.75359  1.0000
  H   H1000     1.0  0.54747  0.45546  0.91959  1.0000
  C   C1259     1.0  0.43085  0.45925  0.99641  1.0000
  H   H1001     1.0  0.61875  0.46250  0.74786  1.0000
  H   H1002     1.0  0.56079  0.28754  0.92875  1.0000
  H   H1003     1.0  0.34177  0.46340  0.88253  1.0000
  H   H1004     1.0  0.35095  0.32047  0.52258  1.0000
  H   H1005     1.0  0.50447  0.47641  0.86727  1.0000
  S   S182      1.0  0.34263  0.30840  0.60926  1.0000
  H   H1006     1.0  0.48227  0.27167  0.95384  1.0000
  H   H1007     1.0  0.34188  0.32126  0.68666  1.0000
  C   C1260     1.0  0.34106  0.34419  0.74547  1.0000
  H   H1008     1.0  0.40263  0.24997  0.51074  1.0000
  H   H1009     1.0  0.37778  0.26936  0.76824  1.0000
  C   C1261     1.0  0.58077  0.25520  0.64072  1.0000
  H   H1010     1.0  0.51586  0.25556  0.96588  1.0000
  H   H1011     1.0  0.58487  0.25538  0.61886  1.0000
  C   C1262     1.0  0.43435  0.46938  0.69623  1.0000
  H   H1012     1.0  0.57142  0.31083  0.73055  1.0000
  P   P41       1.0  0.46670  0.44949  0.71981  1.0000
  C   C1263     1.0  0.46120  0.43124  0.70468  1.0000
  H   H1013     1.0  0.50814  0.41856  0.57136  1.0000
  C   C1264     1.0  0.48612  0.24764  0.74930  1.0000
  S   S183      1.0  0.34792  0.28725  0.93643  1.0000
  H   H1014     1.0  0.63920  0.32346  0.80332  1.0000
  H   H1015     1.0  0.63049  0.23014  0.68101  1.0000
  H   H1016     1.0  0.45361  0.39998  0.91036  1.0000
  C   C1265     1.0  0.47629  0.41882  0.70911  1.0000
  C   C1266     1.0  0.47184  0.40474  0.69735  1.0000
  C   C1267     1.0  0.45219  0.40290  0.68138  1.0000
  C   C1268     1.0  0.43690  0.41511  0.67729  1.0000
  C   C1269     1.0  0.44134  0.42922  0.68891  1.0000
  H   H1017     1.0  0.57746  0.40253  0.94603  1.0000
  H   H1018     1.0  0.43889  0.23595  0.58351  1.0000
  H   H1019     1.0  0.44394  0.42417  0.93355  1.0000
  H   H1020     1.0  0.49304  0.43953  0.54323  1.0000
  C   C1270     1.0  0.60142  0.23581  0.74184  1.0000
  C   C1271     1.0  0.34982  0.37266  0.50935  1.0000
  H   H1021     1.0  0.43961  0.42828  0.75337  1.0000
  C   C1272     1.0  0.36879  0.23535  0.74445  1.0000
  H   H1022     1.0  0.63804  0.38108  0.70180  1.0000
  C   C1273     1.0  0.59366  0.34757  0.79221  1.0000
  C   C1274     1.0  0.45725  0.46398  0.69557  1.0000
  H   H1023     1.0  0.49164  0.41999  0.72133  1.0000
  H   H1024     1.0  0.48386  0.39532  0.70021  1.0000
  H   H1025     1.0  0.44890  0.39206  0.67188  1.0000
  H   H1026     1.0  0.42173  0.41369  0.66472  1.0000
  H   H1027     1.0  0.42934  0.43856  0.68537  1.0000
  C   C1275     1.0  0.33517  0.29406  0.72474  1.0000
  Fe  Fe97      1.0  0.35815  0.24371  0.86588  1.0000
  C   C1276     1.0  0.44553  0.43658  0.86688  1.0000
  C   C1277     1.0  0.50389  0.34041  0.95429  1.0000
  S   S184      1.0  0.64538  0.28800  0.81308  1.0000
  C   C1278     1.0  0.54349  0.42254  0.56131  1.0000
  C   C1279     1.0  0.40976  0.32932  0.93704  1.0000
  H   H1028     1.0  0.59945  0.23228  0.95111  1.0000
  C   C1280     1.0  0.52421  0.23774  0.73820  1.0000
  C   C1281     1.0  0.56098  0.24817  0.65011  1.0000
  H   H1029     1.0  0.64912  0.25240  0.51197  1.0000
  C   C1282     1.0  0.37359  0.32124  0.66412  1.0000
  C   C1283     1.0  0.38110  0.33774  0.98163  1.0000
  C   C1284     1.0  0.53854  0.45851  0.96252  1.0000
  C   C1285     1.0  0.35744  0.34328  0.68799  1.0000
  C   C1286     1.0  0.61745  0.22965  0.95474  1.0000
  H   H1030     1.0  0.45642  0.47557  0.75517  1.0000
  C   C1287     1.0  0.60769  0.39327  0.68938  1.0000
  C   C1288     1.0  0.39311  0.34218  0.56896  1.0000
  C   C1289     1.0  0.47463  0.46686  0.88644  1.0000
  H   H1031     1.0  0.41134  0.45752  0.81635  1.0000
  C   C1290     1.0  0.39137  0.32650  0.57138  1.0000
  H   H1032     1.0  0.46813  0.24579  0.75360  1.0000
  H   H1033     1.0  0.61689  0.40351  0.68489  1.0000
  H   H1034     1.0  0.55461  0.23781  0.78431  1.0000
  H   H1035     1.0  0.36241  0.31764  0.97102  1.0000
  H   H1036     1.0  0.57508  0.40260  0.67600  1.0000
  C   C1291     1.0  0.43887  0.24472  0.50472  1.0000
  H   H1037     1.0  0.57514  0.35620  0.70237  1.0000
  H   H1038     1.0  0.64603  0.30046  0.52512  1.0000
  C   C1292     1.0  0.36065  0.33516  0.75135  1.0000
  C   C1293     1.0  0.45302  0.46994  0.89851  1.0000
  H   H1039     1.0  0.56245  0.45133  0.52161  1.0000
  C   C1294     1.0  0.62787  0.33145  0.79265  1.0000
  C   C1295     1.0  0.35327  0.40426  0.51328  1.0000
  C   C1296     1.0  0.53013  0.46861  0.98264  1.0000
  H   H1040     1.0  0.48659  0.44716  0.99244  1.0000
  C   C1297     1.0  0.34777  0.35884  0.61249  1.0000
  C   C1298     1.0  0.59449  0.40331  0.98538  1.0000
  H   H1041     1.0  0.40796  0.35145  0.65602  1.0000
  C   C1299     1.0  0.37672  0.32472  0.96600  1.0000
  H   H1042     1.0  0.48123  0.45536  0.88438  1.0000
  H   H1043     1.0  0.40162  0.32031  0.58641  1.0000
  C   C1300     1.0  0.34631  0.33062  0.79758  1.0000
  C   C1301     1.0  0.33632  0.29590  0.75363  1.0000
  S   S185      1.0  0.65007  0.27741  0.68299  1.0000
  C   C1302     1.0  0.46955  0.46248  0.52129  1.0000
  H   H1044     1.0  0.41246  0.47305  0.86868  1.0000
  C   C1303     1.0  0.37975  0.35014  0.54963  1.0000
  H   H1045     1.0  0.40284  0.24446  0.56054  1.0000
  H   H1046     1.0  0.47514  0.23865  0.50646  1.0000
  H   H1047     1.0  0.53827  0.46861  0.56535  1.0000
  H   H1048     1.0  0.48318  0.27174  0.75545  1.0000
  C   C1304     1.0  0.55562  0.24807  0.67832  1.0000
  C   C1305     1.0  0.54428  0.45281  0.73770  1.0000
  H   H1049     1.0  0.51498  0.34375  0.97100  1.0000
  H   H1050     1.0  0.62054  0.31688  0.72483  1.0000
  H   H1051     1.0  0.55430  0.37896  0.68480  1.0000
  H   H1052     1.0  0.65708  0.36452  0.75049  1.0000
  P   P42       1.0  0.56327  0.25524  0.73387  1.0000
  H   H1053     1.0  0.37775  0.32085  0.78138  1.0000
  C   C1306     1.0  0.39089  0.32059  0.94375  1.0000
  C   C1307     1.0  0.57083  0.27340  0.74792  1.0000
  H   H1054     1.0  0.50785  0.44334  0.68652  1.0000
  C   C1308     1.0  0.64220  0.29067  0.51270  1.0000
  C   C1309     1.0  0.34765  0.28415  0.97264  1.0000
  S   S186      1.0  0.33890  0.26596  0.86700  1.0000
  C   C1310     1.0  0.34607  0.38006  0.53471  1.0000
  C   C1311     1.0  0.36507  0.27469  0.72735  1.0000
  C   C1312     1.0  0.65699  0.29587  0.75982  1.0000
  H   H1055     1.0  0.45263  0.43170  0.62514  1.0000
  H   H1056     1.0  0.57902  0.40085  0.99680  1.0000
  H   H1057     1.0  0.34070  0.24448  0.72118  1.0000
  S   S187      1.0  0.35118  0.46389  0.52882  1.0000
  S   S188      1.0  0.35040  0.28150  0.67500  1.0000
  C   C1313     1.0  0.48387  0.29174  0.84200  1.0000
  C   C1314     1.0  0.46139  0.29368  0.83255  1.0000
  C   C1315     1.0  0.44383  0.29777  0.85102  1.0000
  C   C1316     1.0  0.44870  0.29981  0.87901  1.0000
  C   C1317     1.0  0.47119  0.29753  0.88885  1.0000
  C   C1318     1.0  0.48877  0.29362  0.86999  1.0000
  P   P43       1.0  0.47779  0.30099  0.92478  1.0000
  C   C1319     1.0  0.48467  0.32067  0.92895  1.0000
  C   C1320     1.0  0.45351  0.29686  0.94676  1.0000
  C   C1321     1.0  0.44889  0.30548  0.97065  1.0000
  C   C1322     1.0  0.34201  0.28168  0.50740  1.0000
  H   H1058     1.0  0.62818  0.46931  0.53487  1.0000
  C   C1323     1.0  0.41997  0.28193  0.95670  1.0000
  C   C1324     1.0  0.43906  0.28494  0.94019  1.0000
  C   C1325     1.0  0.49891  0.32514  0.95065  1.0000
  H   H1059     1.0  0.37191  0.47651  0.85615  1.0000
  H   H1060     1.0  0.45979  0.31463  0.97651  1.0000
  C   C1326     1.0  0.48031  0.34699  0.91485  1.0000
  C   C1327     1.0  0.47532  0.33172  0.91114  1.0000
  C   C1328     1.0  0.50227  0.28920  0.93463  1.0000
  C   C1329     1.0  0.52461  0.29354  0.92763  1.0000
  C   C1330     1.0  0.54357  0.28429  0.93448  1.0000
  C   C1331     1.0  0.54042  0.27066  0.94839  1.0000
  H   H1061     1.0  0.34467  0.46620  0.96749  1.0000
  C   C1332     1.0  0.49926  0.27549  0.94870  1.0000
  H   H1062     1.0  0.49746  0.28824  0.82783  1.0000
  H   H1063     1.0  0.45749  0.29172  0.81103  1.0000
  H   H1064     1.0  0.42634  0.29907  0.84370  1.0000
  H   H1065     1.0  0.43479  0.30292  0.89292  1.0000
  H   H1066     1.0  0.50624  0.29163  0.87672  1.0000
  H   H1067     1.0  0.38138  0.23843  0.72907  1.0000
  C   C1333     1.0  0.45918  0.23672  0.54619  1.0000
  C   C1334     1.0  0.42266  0.45572  0.79873  1.0000
  H   H1068     1.0  0.40870  0.27284  0.95113  1.0000
  H   H1069     1.0  0.44250  0.27796  0.92225  1.0000
  C   C1335     1.0  0.62807  0.23510  0.97841  1.0000
  C   C1336     1.0  0.36409  0.34248  0.53301  1.0000
  C   C1337     1.0  0.49461  0.26228  0.75035  1.0000
  H   H1070     1.0  0.46148  0.25505  0.82601  1.0000
  S   S189      1.0  0.64353  0.34372  0.61166  1.0000
  S   S190      1.0  0.38713  0.47046  0.59765  1.0000
  H   H1071     1.0  0.34587  0.40137  0.55649  1.0000
  C   C1338     1.0  0.34989  0.28365  0.71142  1.0000
  C   C1339     1.0  0.40592  0.45816  0.90341  1.0000
  C   C1340     1.0  0.57949  0.27452  0.77479  1.0000
  H   H1072     1.0  0.49285  0.45721  0.77026  1.0000
  H   H1073     1.0  0.42916  0.34891  0.94746  1.0000
  H   H1074     1.0  0.63261  0.26277  0.77781  1.0000
  C   C1341     1.0  0.58997  0.26203  0.68771  1.0000
  C   C1342     1.0  0.41858  0.24310  0.54864  1.0000
  H   H1075     1.0  0.63564  0.25891  0.72739  1.0000
  C   C1343     1.0  0.61480  0.33438  0.69393  1.0000
  H   H1076     1.0  0.47732  0.44725  0.94262  1.0000
  C   C1344     1.0  0.51135  0.43749  0.54365  1.0000
  C   C1345     1.0  0.61758  0.34544  0.75104  1.0000
  C   C1346     1.0  0.49703  0.45075  0.72722  1.0000
  P   P44       1.0  0.43581  0.45503  0.91209  1.0000
  P   P45       1.0  0.34704  0.35234  0.50730  1.0000
  C   C1347     1.0  0.41854  0.24622  0.52035  1.0000
  H   H1077     1.0  0.40058  0.28826  0.99303  1.0000
  C   C1348     1.0  0.56771  0.28663  0.73213  1.0000
  C   C1349     1.0  0.47184  0.46903  0.67447  1.0000
  C   C1350     1.0  0.60143  0.31034  0.66012  1.0000
  C   C1351     1.0  0.60817  0.33704  0.66650  1.0000
  H   H1078     1.0  0.40478  0.34821  0.58208  1.0000
  C   C1352     1.0  0.35966  0.46173  0.88809  1.0000
  H   H1079     1.0  0.57702  0.42960  0.54851  1.0000
  H   H1080     1.0  0.42252  0.46548  0.71180  1.0000
  H   H1081     1.0  0.55007  0.41344  0.57430  1.0000
  C   C1353     1.0  0.36316  0.32837  0.77728  1.0000
  C   C1354     1.0  0.44195  0.45471  0.94862  1.0000
  H   H1082     1.0  0.59680  0.30103  0.64688  1.0000
  C   C1355     1.0  0.58415  0.39274  0.68429  1.0000
  C   C1356     1.0  0.37663  0.46919  0.87333  1.0000
  H   H1083     1.0  0.37272  0.30937  0.65873  1.0000
  C   C1357     1.0  0.57965  0.24053  0.75155  1.0000
  H   H1084     1.0  0.44285  0.44668  0.85448  1.0000
  H   H1085     1.0  0.35483  0.41645  0.51495  1.0000
  H   H1086     1.0  0.54900  0.44601  0.69532  1.0000
  C   C1358     1.0  0.52653  0.44688  0.52942  1.0000
  C   C1359     1.0  0.60848  0.33750  0.80612  1.0000
  H   H1087     1.0  0.48932  0.46489  0.67256  1.0000
  C   C1360     1.0  0.48799  0.47876  0.87700  1.0000
  C   C1361     1.0  0.43848  0.43938  0.76280  1.0000
  C   C1362     1.0  0.61339  0.40710  0.94131  1.0000
  C   C1363     1.0  0.51986  0.42541  0.55959  1.0000
  C   C1364     1.0  0.44998  0.45167  0.75122  1.0000
  C   C1365     1.0  0.40016  0.34643  0.97477  1.0000
  H   H1088     1.0  0.65153  0.40963  0.99391  1.0000
  C   C1366     1.0  0.44785  0.46594  0.76388  1.0000
  C   C1367     1.0  0.46951  0.45047  0.98561  1.0000
  H   H1089     1.0  0.42079  0.32600  0.91991  1.0000
  H   H1090     1.0  0.59722  0.32722  0.62827  1.0000
  C   C1368     1.0  0.60150  0.32507  0.64971  1.0000
  C   C1369     1.0  0.60827  0.30756  0.68725  1.0000
  C   C1370     1.0  0.65024  0.23957  0.64792  1.0000
  C   C1371     1.0  0.33823  0.37959  0.68486  1.0000
  P   P46       1.0  0.33598  0.35147  0.71102  1.0000
  C   C1372     1.0  0.44353  0.43729  0.89575  1.0000
  C   C1373     1.0  0.33710  0.37197  0.71028  1.0000
  C   C1374     1.0  0.60805  0.36697  0.70424  1.0000
  H   H1091     1.0  0.58137  0.26462  0.78775  1.0000
  C   C1375     1.0  0.61530  0.40553  0.99914  1.0000
  C   C1376     1.0  0.51327  0.44720  0.70659  1.0000
  C   C1377     1.0  0.63252  0.33550  0.76534  1.0000
  C   C1378     1.0  0.36014  0.27227  0.98504  1.0000
  C   C1379     1.0  0.61501  0.31948  0.70410  1.0000
  P   P47       1.0  0.51650  0.46358  0.51104  1.0000
  S   S191      1.0  0.35436  0.29084  0.80536  1.0000
  C   C1380     1.0  0.37649  0.35160  0.67954  1.0000
  H   H1092     1.0  0.37838  0.36324  0.68587  1.0000
  C   C1381     1.0  0.35175  0.28705  0.76954  1.0000
  C   C1382     1.0  0.33704  0.38050  0.73479  1.0000
  C   C1383     1.0  0.44625  0.42399  0.91135  1.0000
  H   H1093     1.0  0.54017  0.24263  0.68508  1.0000
  C   C1384     1.0  0.41444  0.34220  0.95258  1.0000
  C   C1385     1.0  0.36265  0.32669  0.53538  1.0000
  H   H1094     1.0  0.58832  0.31237  0.77736  1.0000
  C   C1386     1.0  0.52830  0.45563  0.75882  1.0000
  C   C1387     1.0  0.46414  0.45047  0.95748  1.0000
  C   C1388     1.0  0.49461  0.35133  0.93640  1.0000
  H   H1095     1.0  0.60877  0.34830  0.65768  1.0000
  C   C1389     1.0  0.55866  0.43168  0.54694  1.0000
  C   C1390     1.0  0.65146  0.23213  0.98281  1.0000
  H   H1096     1.0  0.58649  0.35934  0.75442  1.0000
  H   H1097     1.0  0.60492  0.33430  0.82730  1.0000
  H   H1098     1.0  0.54415  0.44719  0.96845  1.0000
  H   H1099     1.0  0.45255  0.42236  0.83154  1.0000
  C   C1391     1.0  0.64120  0.26937  0.73631  1.0000
  C   C1392     1.0  0.34817  0.39576  0.53671  1.0000
  C   C1393     1.0  0.38881  0.45036  0.91762  1.0000
  C   C1394     1.0  0.58434  0.36655  0.69919  1.0000
  H   H1100     1.0  0.39321  0.44289  0.93462  1.0000
  H   H1101     1.0  0.40863  0.46361  0.96211  1.0000
  H   H1102     1.0  0.50156  0.25461  0.80765  1.0000
  H   H1103     1.0  0.48688  0.41868  0.64565  1.0000
  C   C1395     1.0  0.51829  0.26626  0.95550  1.0000
  C   C1396     1.0  0.39968  0.46732  0.88077  1.0000
  H   H1104     1.0  0.60840  0.24049  0.72313  1.0000
  C   C1397     1.0  0.35613  0.32804  0.68009  1.0000
  C   C1398     1.0  0.63523  0.40817  0.98366  1.0000
  H   H1105     1.0  0.59311  0.28922  0.80577  1.0000
  C   C1399     1.0  0.37516  0.46799  0.72038  1.0000
  C   C1400     1.0  0.57112  0.23417  0.77599  1.0000
  H   H1106     1.0  0.35454  0.34736  0.61406  1.0000
  C   C1401     1.0  0.55028  0.44392  0.53139  1.0000
  C   C1402     1.0  0.42551  0.45951  0.96827  1.0000
  H   H1107     1.0  0.38617  0.46170  0.76138  1.0000
  C   C1403     1.0  0.59356  0.40417  0.95656  1.0000
  C   C1404     1.0  0.65398  0.35250  0.71176  1.0000
  C   C1405     1.0  0.53298  0.25239  0.73964  1.0000
  C   C1406     1.0  0.53671  0.44847  0.71167  1.0000
  H   H1108     1.0  0.64762  0.33070  0.75517  1.0000
  H   H1109     1.0  0.63607  0.23984  0.63352  1.0000
  C   C1407     1.0  0.45159  0.41022  0.89823  1.0000
  C   C1408     1.0  0.51794  0.26467  0.74556  1.0000
  H   H1110     1.0  0.57866  0.35228  0.80270  1.0000
  H   H1111     1.0  0.38726  0.31047  0.93196  1.0000
  H   H1112     1.0  0.45803  0.39896  0.85935  1.0000
  S   S192      1.0  0.57012  0.46348  0.64024  1.0000
  H   H1113     1.0  0.43342  0.46082  0.52999  1.0000
  C   C1409     1.0  0.61297  0.47326  0.75641  1.0000
  H   H1114     1.0  0.56827  0.47461  0.80078  1.0000
  H   H1115     1.0  0.62717  0.46876  0.79680  1.0000
  S   S193      1.0  0.34696  0.28179  0.54342  1.0000
  C   C1410     1.0  0.53345  0.47783  0.92754  1.0000
  C   C1411     1.0  0.63423  0.40905  0.95486  1.0000
  C   C1412     1.0  0.44648  0.46135  0.51399  1.0000
  C   C1413     1.0  0.59815  0.35153  0.76475  1.0000
  H   H1116     1.0  0.49855  0.36315  0.93922  1.0000
  H   H1117     1.0  0.61267  0.40781  0.91899  1.0000
  H   H1118     1.0  0.35255  0.44658  0.92170  1.0000
  H   H1119     1.0  0.34024  0.41597  0.70755  1.0000
  H   H1120     1.0  0.55521  0.26346  0.95336  1.0000
  C   C1414     1.0  0.41539  0.29062  0.98027  1.0000
  H   H1121     1.0  0.53419  0.45846  0.77926  1.0000
  C   C1415     1.0  0.33947  0.39536  0.68394  1.0000
  H   H1122     1.0  0.61830  0.24203  0.99298  1.0000
  H   H1123     1.0  0.38186  0.36222  0.54785  1.0000
  C   C1416     1.0  0.50090  0.23539  0.74316  1.0000
  H   H1124     1.0  0.39690  0.47631  0.51888  1.0000
  C   C1417     1.0  0.53011  0.47907  0.55843  1.0000
  H   H1125     1.0  0.53034  0.47768  0.68349  1.0000
  H   H1126     1.0  0.34173  0.37368  0.55304  1.0000
  H   H1127     1.0  0.33852  0.37331  0.66568  1.0000
  C   C1418     1.0  0.61934  0.27852  0.99814  1.0000
  C   C1419     1.0  0.65818  0.29383  0.73094  1.0000
  H   H1128     1.0  0.43204  0.47904  0.79678  1.0000
  H   H1129     1.0  0.65675  0.34209  0.67133  1.0000
  S   S194      1.0  0.58797  0.47649  0.57056  1.0000
  H   H1130     1.0  0.42426  0.27500  0.50397  1.0000
  H   H1131     1.0  0.34803  0.32491  0.81732  1.0000
  C   C1420     1.0  0.46360  0.47912  0.65439  1.0000
  H   H1132     1.0  0.47493  0.23305  0.55624  1.0000
  C   C1421     1.0  0.61776  0.47687  0.78421  1.0000
  C   C1422     1.0  0.34552  0.23880  0.74010  1.0000
  S   S195      1.0  0.35873  0.47643  0.66805  1.0000
  C   C1423     1.0  0.35778  0.47418  0.97247  1.0000
  C   C1424     1.0  0.36717  0.47416  0.99926  1.0000
  H   H1133     1.0  0.66220  0.23016  0.71417  1.0000
  C   C1425     1.0  0.33933  0.40373  0.70838  1.0000
  H   H1134     1.0  0.64965  0.41125  0.94306  1.0000
  C   C1426     1.0  0.33524  0.29442  0.98954  1.0000
  H   H1135     1.0  0.33548  0.34185  0.96001  1.0000
  C   C1427     1.0  0.33808  0.39631  0.73379  1.0000
  H   H1136     1.0  0.33639  0.37508  0.75474  1.0000
  H   H1137     1.0  0.33798  0.40283  0.75273  1.0000
  H   H1138     1.0  0.65924  0.23675  0.00105  1.0000
  H   H1139     1.0  0.33115  0.36868  0.00103  1.0000
  H   H1140     1.0  0.66353  0.30604  0.76895  1.0000
  C   C1428     1.0  0.65548  0.48585  0.24123  1.0000
  H   H1141     1.0  0.59451  0.70402  0.47627  1.0000
  S   S196      1.0  0.61786  0.68840  0.43196  1.0000
  S   S197      1.0  0.64054  0.71166  0.11382  1.0000
  Fe  Fe98      1.0  0.57356  0.71274  0.10165  1.0000
  S   S198      1.0  0.59554  0.69132  0.10401  1.0000
  S   S199      1.0  0.53520  0.70678  0.09578  1.0000
  Fe  Fe99      1.0  0.61319  0.70157  0.14042  1.0000
  S   S200      1.0  0.62130  0.68498  0.17563  1.0000
  Fe  Fe100     1.0  0.62120  0.70294  0.07724  1.0000
  S   S201      1.0  0.64313  0.68970  0.04589  1.0000
  H   H1142     1.0  0.62191  0.48130  0.06247  1.0000
  Fe  Fe101     1.0  0.36338  0.71658  0.15281  1.0000
  C   C1429     1.0  0.43038  0.49769  0.24818  1.0000
  Fe  Fe102     1.0  0.35103  0.71073  0.09238  1.0000
  C   C1430     1.0  0.34134  0.55284  0.48932  1.0000
  C   C1431     1.0  0.48663  0.48550  0.04380  1.0000
  C   C1432     1.0  0.59963  0.64208  0.47132  1.0000
  S   S202      1.0  0.38265  0.70504  0.11781  1.0000
  C   C1433     1.0  0.54959  0.63253  0.44509  1.0000
  Fe  Fe103     1.0  0.60002  0.54345  0.37866  1.0000
  S   S203      1.0  0.61972  0.52089  0.37719  1.0000
  S   S204      1.0  0.59016  0.72239  0.13978  1.0000
  Fe  Fe104     1.0  0.55664  0.52836  0.39862  1.0000
  S   S205      1.0  0.57253  0.50505  0.39791  1.0000
  S   S206      1.0  0.52122  0.53200  0.41678  1.0000
  Fe  Fe105     1.0  0.60256  0.51565  0.41829  1.0000
  S   S207      1.0  0.62111  0.50255  0.45314  1.0000
  Fe  Fe106     1.0  0.58821  0.51142  0.35700  1.0000
  S   S208      1.0  0.58646  0.49196  0.32534  1.0000
  S   S209      1.0  0.58574  0.53885  0.42116  1.0000
  S   S210      1.0  0.56945  0.53399  0.35625  1.0000
  Fe  Fe107     1.0  0.35726  0.54109  0.35825  1.0000
  S   S211      1.0  0.34993  0.51603  0.36406  1.0000
  H   H1143     1.0  0.35198  0.52160  0.44975  1.0000
  Fe  Fe108     1.0  0.40726  0.53412  0.34568  1.0000
  S   S212      1.0  0.40414  0.50915  0.35095  1.0000
  S   S213      1.0  0.44067  0.54410  0.33200  1.0000
  Fe  Fe109     1.0  0.37191  0.51180  0.32566  1.0000
  S   S214      1.0  0.36728  0.49227  0.29427  1.0000
  Fe  Fe110     1.0  0.38273  0.51467  0.38874  1.0000
  S   S215      1.0  0.39376  0.50266  0.42920  1.0000
  S   S216      1.0  0.37648  0.53676  0.31816  1.0000
  S   S217      1.0  0.38864  0.53982  0.38510  1.0000
  C   C1434     1.0  0.45837  0.50023  0.43353  1.0000
  H   H1144     1.0  0.49494  0.49134  0.25160  1.0000
  C   C1435     1.0  0.36962  0.48883  0.25777  1.0000
  C   C1436     1.0  0.42326  0.51006  0.26436  1.0000
  C   C1437     1.0  0.36833  0.49697  0.20955  1.0000
  C   C1438     1.0  0.36782  0.50042  0.23812  1.0000
  C   C1439     1.0  0.57572  0.58501  0.48115  1.0000
  C   C1440     1.0  0.65605  0.48672  0.40131  1.0000
  C   C1441     1.0  0.38148  0.49148  0.45607  1.0000
  C   C1442     1.0  0.45524  0.52432  0.24727  1.0000
  C   C1443     1.0  0.35163  0.60454  0.17598  1.0000
  H   H1145     1.0  0.39095  0.48520  0.02591  1.0000
  C   C1444     1.0  0.66096  0.49370  0.26528  1.0000
  C   C1445     1.0  0.52634  0.48043  0.23823  1.0000
  C   C1446     1.0  0.61136  0.49528  0.48559  1.0000
  H   H1146     1.0  0.59941  0.59703  0.40981  1.0000
  H   H1147     1.0  0.38064  0.58804  0.22916  1.0000
  H   H1148     1.0  0.42438  0.58652  0.32341  1.0000
  H   H1149     1.0  0.47770  0.51279  0.21839  1.0000
  C   C1447     1.0  0.61421  0.48144  0.04219  1.0000
  C   C1448     1.0  0.59108  0.48904  0.28920  1.0000
  C   C1449     1.0  0.59432  0.50095  0.27066  1.0000
  C   C1450     1.0  0.59839  0.49793  0.24237  1.0000
  S   S218      1.0  0.60655  0.56761  0.36253  1.0000
  C   C1451     1.0  0.50994  0.51444  0.30068  1.0000
  H   H1150     1.0  0.59379  0.51249  0.27807  1.0000
  H   H1151     1.0  0.60125  0.50722  0.22835  1.0000
  C   C1452     1.0  0.49902  0.53583  0.39319  1.0000
  C   C1453     1.0  0.50369  0.54108  0.36660  1.0000
  C   C1454     1.0  0.48565  0.54396  0.34812  1.0000
  C   C1455     1.0  0.46296  0.54104  0.35579  1.0000
  C   C1456     1.0  0.45826  0.53591  0.38245  1.0000
  C   C1457     1.0  0.47623  0.53367  0.40129  1.0000
  H   H1152     1.0  0.52117  0.54301  0.36033  1.0000
  H   H1153     1.0  0.48944  0.54799  0.32759  1.0000
  H   H1154     1.0  0.44080  0.53373  0.38864  1.0000
  H   H1155     1.0  0.47250  0.53002  0.42206  1.0000
  H   H1156     1.0  0.44674  0.68730  0.02156  1.0000
  C   C1458     1.0  0.34898  0.58849  0.35978  1.0000
  C   C1459     1.0  0.34818  0.70429  0.22192  1.0000
  H   H1157     1.0  0.36504  0.58252  0.35550  1.0000
  C   C1460     1.0  0.45649  0.69734  0.01766  1.0000
  C   C1461     1.0  0.33862  0.69660  0.26919  1.0000
  P   P48       1.0  0.57637  0.62362  0.43431  1.0000
  C   C1462     1.0  0.35855  0.48707  0.45598  1.0000
  C   C1463     1.0  0.52354  0.50291  0.31235  1.0000
  H   H1158     1.0  0.36770  0.51227  0.49395  1.0000
  H   H1159     1.0  0.56170  0.65536  0.43978  1.0000
  H   H1160     1.0  0.54622  0.53846  0.05494  1.0000
  H   H1161     1.0  0.35172  0.64674  0.44368  1.0000
  C   C1464     1.0  0.46051  0.72705  0.09723  1.0000
  S   S219      1.0  0.59858  0.72380  0.07223  1.0000
  H   H1162     1.0  0.49245  0.70684  0.17194  1.0000
  C   C1465     1.0  0.48773  0.70554  0.09987  1.0000
  S   S220      1.0  0.33072  0.72011  0.12868  1.0000
  H   H1163     1.0  0.47847  0.50102  0.11685  1.0000
  H   H1164     1.0  0.40686  0.49523  0.13455  1.0000
  H   H1165     1.0  0.58346  0.64396  0.48195  1.0000
  H   H1166     1.0  0.52491  0.48399  0.33991  1.0000
  H   H1167     1.0  0.45062  0.70394  0.10223  1.0000
  C   C1466     1.0  0.53173  0.52076  0.03043  1.0000
  H   H1168     1.0  0.52453  0.66769  0.45185  1.0000
  S   S221      1.0  0.60546  0.47987  0.19636  1.0000
  H   H1169     1.0  0.41181  0.56381  0.29835  1.0000
  H   H1170     1.0  0.58977  0.64834  0.34435  1.0000
  H   H1171     1.0  0.57124  0.62824  0.31729  1.0000
  H   H1172     1.0  0.36637  0.50605  0.19469  1.0000
  C   C1467     1.0  0.36664  0.58774  0.28342  1.0000
  C   C1468     1.0  0.33518  0.62587  0.43435  1.0000
  C   C1469     1.0  0.50921  0.63089  0.45737  1.0000
  H   H1173     1.0  0.59078  0.56302  0.47169  1.0000
  H   H1174     1.0  0.35957  0.67024  0.49456  1.0000
  H   H1175     1.0  0.34411  0.69340  0.28972  1.0000
  C   C1470     1.0  0.59220  0.59374  0.42945  1.0000
  C   C1471     1.0  0.62666  0.68836  0.21111  1.0000
  C   C1472     1.0  0.63104  0.67592  0.22859  1.0000
  H   H1176     1.0  0.43774  0.50210  0.10178  1.0000
  C   C1473     1.0  0.43018  0.48979  0.16764  1.0000
  C   C1474     1.0  0.47935  0.50144  0.44710  1.0000
  C   C1475     1.0  0.62525  0.69086  0.46700  1.0000
  C   C1476     1.0  0.35139  0.52886  0.46783  1.0000
  H   H1177     1.0  0.40045  0.61020  0.32243  1.0000
  H   H1178     1.0  0.62983  0.51017  0.30394  1.0000
  H   H1179     1.0  0.46469  0.53471  0.24672  1.0000
  H   H1180     1.0  0.62719  0.62064  0.34643  1.0000
  C   C1477     1.0  0.62460  0.48396  0.49907  1.0000
  C   C1478     1.0  0.56311  0.69742  0.20227  1.0000
  H   H1181     1.0  0.44437  0.51708  0.49341  1.0000
  H   H1182     1.0  0.53068  0.71384  0.15194  1.0000
  H   H1183     1.0  0.58095  0.50950  0.48876  1.0000
  H   H1184     1.0  0.57594  0.68844  0.20505  1.0000
  C   C1479     1.0  0.63290  0.53403  0.31094  1.0000
  C   C1480     1.0  0.49127  0.71123  0.02501  1.0000
  C   C1481     1.0  0.47056  0.49285  0.15763  1.0000
  H   H1185     1.0  0.44134  0.49413  0.39637  1.0000
  C   C1482     1.0  0.55641  0.70661  0.22451  1.0000
  C   C1483     1.0  0.60243  0.66075  0.01218  1.0000
  C   C1484     1.0  0.64056  0.64617  0.46900  1.0000
  H   H1186     1.0  0.48552  0.68900  0.04119  1.0000
  C   C1485     1.0  0.65913  0.48818  0.35134  1.0000
  C   C1486     1.0  0.53048  0.72098  0.19457  1.0000
  C   C1487     1.0  0.54835  0.53132  0.03686  1.0000
  H   H1187     1.0  0.54396  0.61069  0.00484  1.0000
  P   P49       1.0  0.33963  0.58804  0.26513  1.0000
  C   C1488     1.0  0.49897  0.49013  0.40773  1.0000
  C   C1489     1.0  0.36632  0.59304  0.21798  1.0000
  H   H1188     1.0  0.33507  0.54757  0.44649  1.0000
  H   H1189     1.0  0.65163  0.49196  0.22233  1.0000
  C   C1490     1.0  0.49966  0.49654  0.43408  1.0000
  C   C1491     1.0  0.62262  0.63029  0.43503  1.0000
  C   C1492     1.0  0.49029  0.49362  0.33703  1.0000
  H   H1190     1.0  0.66214  0.48974  0.42165  1.0000
  C   C1493     1.0  0.54727  0.64840  0.44520  1.0000
  C   C1494     1.0  0.35287  0.68151  0.49023  1.0000
  H   H1191     1.0  0.61745  0.65534  0.02121  1.0000
  C   C1495     1.0  0.34792  0.60454  0.35988  1.0000
  C   C1496     1.0  0.43568  0.52336  0.26395  1.0000
  Fe  Fe111     1.0  0.39474  0.72817  0.10623  1.0000
  H   H1192     1.0  0.41648  0.48697  0.18176  1.0000
  C   C1497     1.0  0.56799  0.53238  0.02042  1.0000
  H   H1193     1.0  0.39943  0.70562  0.04781  1.0000
  C   C1498     1.0  0.33187  0.69587  0.02753  1.0000
  H   H1194     1.0  0.56400  0.68926  0.02718  1.0000
  C   C1499     1.0  0.42469  0.49459  0.14094  1.0000
  P   P50       1.0  0.45971  0.48256  0.21077  1.0000
  H   H1195     1.0  0.34475  0.71846  0.02590  1.0000
  C   C1500     1.0  0.48210  0.72335  0.00977  1.0000
  H   H1196     1.0  0.51679  0.51984  0.04368  1.0000
  C   C1501     1.0  0.38933  0.66833  0.00783  1.0000
  C   C1502     1.0  0.34190  0.54350  0.46602  1.0000
  C   C1503     1.0  0.54007  0.71834  0.22077  1.0000
  C   C1504     1.0  0.47696  0.50561  0.32608  1.0000
  H   H1197     1.0  0.37408  0.66057  0.04573  1.0000
  C   C1505     1.0  0.33835  0.70911  0.01405  1.0000
  C   C1506     1.0  0.44209  0.49848  0.12252  1.0000
  C   C1507     1.0  0.53027  0.62382  0.45061  1.0000
  H   H1198     1.0  0.42999  0.53294  0.27643  1.0000
  C   C1508     1.0  0.62219  0.49143  0.02163  1.0000
  C   C1509     1.0  0.64551  0.68454  0.47784  1.0000
  C   C1510     1.0  0.61012  0.69897  0.48457  1.0000
  H   H1199     1.0  0.45266  0.48227  0.30713  1.0000
  H   H1200     1.0  0.63922  0.66831  0.26998  1.0000
  C   C1511     1.0  0.63686  0.69261  0.26775  1.0000
  C   C1512     1.0  0.53749  0.71176  0.17237  1.0000
  H   H1201     1.0  0.40786  0.50943  0.27693  1.0000
  C   C1513     1.0  0.47853  0.69821  0.02880  1.0000
  H   H1202     1.0  0.51605  0.49827  0.44391  1.0000
  C   C1514     1.0  0.33585  0.71057  0.47867  1.0000
  S   S222      1.0  0.63276  0.66559  0.36424  1.0000
  C   C1515     1.0  0.59126  0.67239  0.02697  1.0000
  C   C1516     1.0  0.38683  0.68308  0.04979  1.0000
  C   C1517     1.0  0.38268  0.66973  0.03544  1.0000
  C   C1518     1.0  0.64672  0.54544  0.32110  1.0000
  H   H1203     1.0  0.37309  0.69920  0.25357  1.0000
  C   C1519     1.0  0.34449  0.59449  0.23027  1.0000
  C   C1520     1.0  0.39675  0.69530  0.03634  1.0000
  H   H1204     1.0  0.53534  0.72538  0.23823  1.0000
  C   C1521     1.0  0.36985  0.59808  0.19094  1.0000
  H   H1205     1.0  0.45909  0.50724  0.33202  1.0000
  C   C1522     1.0  0.53460  0.51120  0.00741  1.0000
  C   C1523     1.0  0.40303  0.69412  0.00840  1.0000
  H   H1206     1.0  0.54174  0.50211  0.30761  1.0000
  H   H1207     1.0  0.60572  0.57092  0.42598  1.0000
  H   H1208     1.0  0.33511  0.62114  0.26561  1.0000
  C   C1524     1.0  0.48668  0.51577  0.30758  1.0000
  C   C1525     1.0  0.40139  0.57414  0.29786  1.0000
  C   C1526     1.0  0.58767  0.57451  0.46451  1.0000
  H   H1209     1.0  0.47160  0.48856  0.03184  1.0000
  H   H1210     1.0  0.51494  0.48668  0.39772  1.0000
  C   C1527     1.0  0.36036  0.52360  0.49285  1.0000
  H   H1211     1.0  0.62316  0.71260  0.20912  1.0000
  C   C1528     1.0  0.64369  0.58317  0.38456  1.0000
  H   H1212     1.0  0.50806  0.71205  0.03446  1.0000
  H   H1213     1.0  0.49073  0.69346  0.10192  1.0000
  C   C1529     1.0  0.52790  0.48357  0.04984  1.0000
  H   H1214     1.0  0.38157  0.68409  0.07117  1.0000
  C   C1530     1.0  0.64117  0.69111  0.00944  1.0000
  H   H1215     1.0  0.42055  0.71687  0.16348  1.0000
  H   H1216     1.0  0.63214  0.71637  0.25880  1.0000
  C   C1531     1.0  0.65717  0.59617  0.38752  1.0000
  H   H1217     1.0  0.56342  0.60801  0.48544  1.0000
  H   H1218     1.0  0.36374  0.61096  0.29786  1.0000
  H   H1219     1.0  0.60397  0.59765  0.34026  1.0000
  C   C1532     1.0  0.46487  0.71145  0.10003  1.0000
  C   C1533     1.0  0.57955  0.60421  0.44558  1.0000
  H   H1220     1.0  0.49439  0.62411  0.46176  1.0000
  H   H1221     1.0  0.65873  0.63472  0.43584  1.0000
  H   H1222     1.0  0.63608  0.49888  0.02639  1.0000
  C   C1534     1.0  0.40851  0.58696  0.31194  1.0000
  H   H1223     1.0  0.61565  0.53679  0.30398  1.0000
  C   C1535     1.0  0.43771  0.72058  0.16817  1.0000
  H   H1224     1.0  0.44265  0.50448  0.44315  1.0000
  C   C1536     1.0  0.59891  0.48300  0.23205  1.0000
  C   C1537     1.0  0.33332  0.69906  0.45891  1.0000
  H   H1225     1.0  0.64031  0.47975  0.48950  1.0000
  C   C1538     1.0  0.60114  0.63298  0.44756  1.0000
  C   C1539     1.0  0.41833  0.60203  0.38010  1.0000
  C   C1540     1.0  0.41256  0.58753  0.38884  1.0000
  C   C1541     1.0  0.42932  0.57594  0.38931  1.0000
  C   C1542     1.0  0.45178  0.57880  0.38097  1.0000
  C   C1543     1.0  0.45769  0.59326  0.37173  1.0000
  C   C1544     1.0  0.44076  0.60489  0.37138  1.0000
  P   P51       1.0  0.48631  0.59625  0.35841  1.0000
  C   C1545     1.0  0.50684  0.58624  0.38000  1.0000
  C   C1546     1.0  0.48852  0.58928  0.32336  1.0000
  C   C1547     1.0  0.50523  0.59491  0.30532  1.0000
  C   C1548     1.0  0.50714  0.58940  0.27829  1.0000
  C   C1549     1.0  0.49246  0.57821  0.26911  1.0000
  C   C1550     1.0  0.47587  0.57252  0.28696  1.0000
  C   C1551     1.0  0.47393  0.57802  0.31394  1.0000
  C   C1552     1.0  0.52687  0.57955  0.36859  1.0000
  C   C1553     1.0  0.54263  0.57186  0.38552  1.0000
  C   C1554     1.0  0.53845  0.57064  0.41382  1.0000
  C   C1555     1.0  0.51868  0.57733  0.42537  1.0000
  C   C1556     1.0  0.50297  0.58519  0.40859  1.0000
  C   C1557     1.0  0.49261  0.61618  0.35832  1.0000
  C   C1558     1.0  0.50691  0.62235  0.37845  1.0000
  C   C1559     1.0  0.51258  0.63763  0.37730  1.0000
  C   C1560     1.0  0.50381  0.64690  0.35629  1.0000
  C   C1561     1.0  0.48933  0.64090  0.33639  1.0000
  C   C1562     1.0  0.48378  0.62560  0.33733  1.0000
  H   H1226     1.0  0.40523  0.61098  0.37966  1.0000
  H   H1227     1.0  0.39507  0.58522  0.39501  1.0000
  H   H1228     1.0  0.42485  0.56461  0.39569  1.0000
  H   H1229     1.0  0.46445  0.56961  0.38117  1.0000
  H   H1230     1.0  0.44467  0.61612  0.36422  1.0000
  H   H1231     1.0  0.51691  0.60346  0.31216  1.0000
  H   H1232     1.0  0.52012  0.59374  0.26450  1.0000
  H   H1233     1.0  0.49404  0.57388  0.24823  1.0000
  H   H1234     1.0  0.46461  0.56369  0.28013  1.0000
  H   H1235     1.0  0.46124  0.57321  0.32741  1.0000
  H   H1236     1.0  0.53034  0.58004  0.34668  1.0000
  H   H1237     1.0  0.55792  0.56654  0.37663  1.0000
  H   H1238     1.0  0.55028  0.56418  0.42668  1.0000
  H   H1239     1.0  0.51531  0.57604  0.44724  1.0000
  H   H1240     1.0  0.48765  0.59021  0.41787  1.0000
  H   H1241     1.0  0.51402  0.61539  0.39480  1.0000
  H   H1242     1.0  0.52401  0.64226  0.39251  1.0000
  H   H1243     1.0  0.50831  0.65872  0.35537  1.0000
  H   H1244     1.0  0.48253  0.64811  0.32008  1.0000
  H   H1245     1.0  0.47270  0.62110  0.32158  1.0000
  H   H1246     1.0  0.64841  0.57282  0.39526  1.0000
  H   H1247     1.0  0.34767  0.49013  0.43873  1.0000
  C   C1563     1.0  0.33764  0.63943  0.44871  1.0000
  C   C1564     1.0  0.64101  0.51899  0.31075  1.0000
  C   C1565     1.0  0.46262  0.51187  0.23140  1.0000
  C   C1566     1.0  0.57555  0.62479  0.39717  1.0000
  C   C1567     1.0  0.56466  0.61360  0.38177  1.0000
  C   C1568     1.0  0.56308  0.61486  0.35307  1.0000
  C   C1569     1.0  0.57213  0.62737  0.33958  1.0000
  C   C1570     1.0  0.58265  0.63867  0.35482  1.0000
  C   C1571     1.0  0.58432  0.63743  0.38353  1.0000
  C   C1572     1.0  0.38064  0.57453  0.28348  1.0000
  C   C1573     1.0  0.61868  0.59722  0.35377  1.0000
  H   H1248     1.0  0.66196  0.50590  0.26441  1.0000
  H   H1249     1.0  0.55751  0.60385  0.39189  1.0000
  H   H1250     1.0  0.55525  0.60598  0.34126  1.0000
  C   C1574     1.0  0.37105  0.48194  0.19998  1.0000
  C   C1575     1.0  0.34170  0.68447  0.46493  1.0000
  C   C1576     1.0  0.46500  0.49777  0.13097  1.0000
  C   C1577     1.0  0.62678  0.70295  0.22226  1.0000
  H   H1251     1.0  0.34732  0.62268  0.41821  1.0000
  C   C1578     1.0  0.50719  0.64668  0.45812  1.0000
  C   C1579     1.0  0.45050  0.49834  0.23217  1.0000
  H   H1252     1.0  0.62428  0.62306  0.41703  1.0000
  H   H1253     1.0  0.61110  0.70575  0.00890  1.0000
  H   H1254     1.0  0.36540  0.51202  0.24490  1.0000
  H   H1255     1.0  0.34002  0.67558  0.44978  1.0000
  C   C1580     1.0  0.57224  0.68004  0.01577  1.0000
  C   C1581     1.0  0.59603  0.57893  0.43874  1.0000
  H   H1256     1.0  0.59779  0.67576  0.04690  1.0000
  H   H1257     1.0  0.41983  0.48779  0.24784  1.0000
  C   C1582     1.0  0.38382  0.48480  0.00535  1.0000
  H   H1258     1.0  0.59250  0.64633  0.39498  1.0000
  H   H1259     1.0  0.63069  0.66457  0.22022  1.0000
  C   C1583     1.0  0.44697  0.70958  0.00267  1.0000
  S   S223      1.0  0.64532  0.69610  0.30233  1.0000
  H   H1260     1.0  0.45346  0.69858  0.16195  1.0000
  C   C1584     1.0  0.50887  0.48781  0.03359  1.0000
  C   C1585     1.0  0.63183  0.61031  0.35724  1.0000
  H   H1261     1.0  0.51759  0.52256  0.28691  1.0000
  C   C1586     1.0  0.61927  0.64883  0.48174  1.0000
  H   H1262     1.0  0.41288  0.49071  0.47936  1.0000
  C   C1587     1.0  0.57195  0.59988  0.47191  1.0000
  C   C1588     1.0  0.55356  0.69994  0.17624  1.0000
  C   C1589     1.0  0.37410  0.60064  0.29735  1.0000
  C   C1590     1.0  0.63178  0.70504  0.25045  1.0000
  C   C1591     1.0  0.35501  0.69995  0.24868  1.0000
  H   H1263     1.0  0.43856  0.65492  0.48491  1.0000
  H   H1264     1.0  0.49084  0.65216  0.46322  1.0000
  H   H1265     1.0  0.47628  0.52505  0.29951  1.0000
  H   H1266     1.0  0.53131  0.61158  0.44921  1.0000
  H   H1267     1.0  0.36332  0.61075  0.35593  1.0000
  H   H1268     1.0  0.38673  0.59700  0.18157  1.0000
  C   C1592     1.0  0.45316  0.48854  0.17600  1.0000
  H   H1269     1.0  0.55902  0.69297  0.15884  1.0000
  C   C1593     1.0  0.62439  0.58357  0.36745  1.0000
  Fe  Fe112     1.0  0.64399  0.67937  0.40072  1.0000
  C   C1594     1.0  0.65136  0.60985  0.37394  1.0000
  S   S224      1.0  0.36953  0.70847  0.19698  1.0000
  C   C1595     1.0  0.39517  0.48739  0.47893  1.0000
  H   H1270     1.0  0.47999  0.50680  0.46712  1.0000
  H   H1271     1.0  0.33398  0.56419  0.48783  1.0000
  H   H1272     1.0  0.58119  0.54028  0.02570  1.0000
  C   C1596     1.0  0.50669  0.71506  0.09705  1.0000
  C   C1597     1.0  0.47848  0.71508  0.17294  1.0000
  C   C1598     1.0  0.47790  0.48855  0.39420  1.0000
  C   C1599     1.0  0.45767  0.49415  0.40692  1.0000
  C   C1600     1.0  0.64224  0.63684  0.44575  1.0000
  H   H1273     1.0  0.54765  0.66923  0.49969  1.0000
  C   C1601     1.0  0.51384  0.49259  0.33062  1.0000
  H   H1274     1.0  0.37551  0.56445  0.27265  1.0000
  C   C1602     1.0  0.40387  0.72731  0.00235  1.0000
  C   C1603     1.0  0.63593  0.67800  0.25680  1.0000
  C   C1604     1.0  0.52617  0.65543  0.45183  1.0000
  Fe  Fe113     1.0  0.65527  0.68081  0.33882  1.0000
  C   C1605     1.0  0.39500  0.60024  0.31146  1.0000
  H   H1275     1.0  0.65710  0.72534  0.42978  1.0000
  S   S225      1.0  0.33342  0.69399  0.06403  1.0000
  H   H1276     1.0  0.56413  0.70473  0.24457  1.0000
  H   H1277     1.0  0.63134  0.62710  0.01525  1.0000
  H   H1278     1.0  0.35440  0.60850  0.15507  1.0000
  H   H1279     1.0  0.54602  0.48773  0.48979  1.0000
  C   C1606     1.0  0.45627  0.71027  0.16738  1.0000
  H   H1280     1.0  0.64026  0.55705  0.32173  1.0000
  H   H1281     1.0  0.65747  0.67853  0.46441  1.0000
  H   H1282     1.0  0.54527  0.48509  0.04233  1.0000
  H   H1283     1.0  0.65573  0.65138  0.47710  1.0000
  C   C1607     1.0  0.59122  0.50068  0.49854  1.0000
  H   H1284     1.0  0.48839  0.49256  0.16378  1.0000
  C   C1608     1.0  0.63894  0.47995  0.34907  1.0000
  H   H1285     1.0  0.64717  0.72422  0.47949  1.0000
  P   P52       1.0  0.47750  0.48017  0.36019  1.0000
  H   H1286     1.0  0.33369  0.56571  0.30842  1.0000
  H   H1287     1.0  0.53647  0.48517  0.25470  1.0000
  H   H1288     1.0  0.61804  0.65619  0.49964  1.0000
  H   H1289     1.0  0.57148  0.48901  0.44945  1.0000
  C   C1609     1.0  0.50285  0.48401  0.23618  1.0000
  H   H1290     1.0  0.56976  0.58165  0.50141  1.0000
  C   C1610     1.0  0.66317  0.51529  0.32019  1.0000
  C   C1611     1.0  0.64419  0.63176  0.00170  1.0000
  C   C1612     1.0  0.48355  0.47925  0.07004  1.0000
  C   C1613     1.0  0.38616  0.47919  0.50143  1.0000
  S   S226      1.0  0.34185  0.67218  0.87186  1.0000
  C   C1614     1.0  0.57171  0.62377  0.98874  1.0000
  H   H1291     1.0  0.60484  0.64915  0.85110  1.0000
  H   H1292     1.0  0.57282  0.68740  0.52266  1.0000
  C   C1615     1.0  0.59377  0.49762  0.75131  1.0000
  S   S227      1.0  0.58871  0.70117  0.61242  1.0000
  C   C1616     1.0  0.41927  0.58729  0.77301  1.0000
  Fe  Fe114     1.0  0.60636  0.70793  0.65172  1.0000
  S   S228      1.0  0.60334  0.69345  0.69032  1.0000
  Fe  Fe115     1.0  0.62060  0.70873  0.59063  1.0000
  S   S229      1.0  0.64134  0.69486  0.55934  1.0000
  C   C1617     1.0  0.41197  0.57673  0.79248  1.0000
  Fe  Fe116     1.0  0.36431  0.69706  0.64388  1.0000
  S   S230      1.0  0.35324  0.67895  0.67451  1.0000
  Fe  Fe117     1.0  0.37024  0.70293  0.58108  1.0000
  S   S231      1.0  0.36965  0.68876  0.54151  1.0000
  C   C1618     1.0  0.63830  0.68500  0.76149  1.0000
  C   C1619     1.0  0.33843  0.57877  0.85394  1.0000
  S   S232      1.0  0.39398  0.69415  0.61437  1.0000
  S   S233      1.0  0.34008  0.70357  0.60987  1.0000
  Fe  Fe118     1.0  0.61012  0.54340  0.89223  1.0000
  S   S234      1.0  0.63220  0.52189  0.89357  1.0000
  S   S235      1.0  0.62089  0.56820  0.89956  1.0000
  Fe  Fe119     1.0  0.56650  0.52490  0.89849  1.0000
  S   S236      1.0  0.58530  0.50247  0.89971  1.0000
  S   S237      1.0  0.52928  0.52512  0.91100  1.0000
  Fe  Fe120     1.0  0.60971  0.51364  0.92839  1.0000
  S   S238      1.0  0.62387  0.50439  0.96967  1.0000
  Fe  Fe121     1.0  0.60600  0.51199  0.86450  1.0000
  S   S239      1.0  0.61662  0.49443  0.83135  1.0000
  S   S240      1.0  0.58968  0.53563  0.92894  1.0000
  S   S241      1.0  0.58503  0.53392  0.86130  1.0000
  Fe  Fe122     1.0  0.36436  0.53994  0.84925  1.0000
  S   S242      1.0  0.35586  0.51554  0.85972  1.0000
  H   H1293     1.0  0.38599  0.57138  0.82256  1.0000
  Fe  Fe123     1.0  0.41514  0.53240  0.84384  1.0000
  S   S243      1.0  0.41090  0.50796  0.85439  1.0000
  S   S244      1.0  0.44881  0.54210  0.82977  1.0000
  Fe  Fe124     1.0  0.38076  0.50885  0.82524  1.0000
  S   S245      1.0  0.38073  0.48791  0.79656  1.0000
  Fe  Fe125     1.0  0.38664  0.51602  0.88800  1.0000
  S   S246      1.0  0.39296  0.50781  0.93279  1.0000
  S   S247      1.0  0.38667  0.53297  0.81289  1.0000
  S   S248      1.0  0.39350  0.54076  0.87934  1.0000
  Fe  Fe126     1.0  0.66212  0.68095  0.88582  1.0000
  H   H1294     1.0  0.38626  0.61807  0.83515  1.0000
  C   C1620     1.0  0.44674  0.51830  0.96568  1.0000
  C   C1621     1.0  0.38584  0.60344  0.78319  1.0000
  C   C1622     1.0  0.36158  0.49385  0.71541  1.0000
  C   C1623     1.0  0.36635  0.49674  0.74353  1.0000
  H   H1295     1.0  0.39345  0.66444  0.85851  1.0000
  H   H1296     1.0  0.36269  0.50783  0.75222  1.0000
  C   C1624     1.0  0.38204  0.49494  0.95800  1.0000
  C   C1625     1.0  0.34139  0.68954  0.76686  1.0000
  C   C1626     1.0  0.43441  0.51357  0.51109  1.0000
  H   H1297     1.0  0.52218  0.71692  0.64300  1.0000
  P   P53       1.0  0.47923  0.68376  0.55622  1.0000
  H   H1298     1.0  0.60875  0.70649  0.95763  1.0000
  C   C1627     1.0  0.57229  0.59638  0.99127  1.0000
  C   C1628     1.0  0.54618  0.69631  0.54945  1.0000
  C   C1629     1.0  0.39353  0.70373  0.94295  1.0000
  C   C1630     1.0  0.63956  0.66900  0.64673  1.0000
  H   H1299     1.0  0.60825  0.66767  0.93268  1.0000
  C   C1631     1.0  0.62372  0.69961  0.99651  1.0000
  C   C1632     1.0  0.61042  0.49080  0.79587  1.0000
  C   C1633     1.0  0.52363  0.48348  0.97532  1.0000
  H   H1300     1.0  0.62226  0.60877  0.96402  1.0000
  C   C1634     1.0  0.39131  0.64069  0.84915  1.0000
  H   H1301     1.0  0.55710  0.50529  0.97294  1.0000
  H   H1302     1.0  0.40545  0.67882  0.97332  1.0000
  C   C1635     1.0  0.63775  0.63891  0.97690  1.0000
  C   C1636     1.0  0.50758  0.53222  0.88929  1.0000
  C   C1637     1.0  0.48481  0.53194  0.89863  1.0000
  C   C1638     1.0  0.46667  0.53567  0.88077  1.0000
  C   C1639     1.0  0.47127  0.53957  0.85347  1.0000
  C   C1640     1.0  0.49408  0.54086  0.84466  1.0000
  C   C1641     1.0  0.51230  0.53716  0.86253  1.0000
  H   H1303     1.0  0.48111  0.52817  0.91938  1.0000
  H   H1304     1.0  0.44907  0.53506  0.88789  1.0000
  H   H1305     1.0  0.49763  0.54410  0.82367  1.0000
  H   H1306     1.0  0.52987  0.53755  0.85527  1.0000
  S   S249      1.0  0.33789  0.55942  0.84307  1.0000
  C   C1642     1.0  0.35647  0.58451  0.86947  1.0000
  C   C1643     1.0  0.35467  0.51306  0.56550  1.0000
  H   H1307     1.0  0.37041  0.57701  0.87586  1.0000
  H   H1308     1.0  0.40827  0.48309  0.67610  1.0000
  C   C1644     1.0  0.60558  0.65998  0.89090  1.0000
  H   H1309     1.0  0.63804  0.59541  0.92366  1.0000
  H   H1310     1.0  0.34203  0.62188  0.72651  1.0000
  C   C1645     1.0  0.36012  0.53290  0.51630  1.0000
  H   H1311     1.0  0.41499  0.50571  0.75645  1.0000
  C   C1646     1.0  0.50866  0.68520  0.54459  1.0000
  C   C1647     1.0  0.47024  0.49622  0.97713  1.0000
  C   C1648     1.0  0.40013  0.51630  0.53971  1.0000
  C   C1649     1.0  0.56101  0.61031  0.99578  1.0000
  C   C1650     1.0  0.33072  0.60248  0.77272  1.0000
  C   C1651     1.0  0.46684  0.66693  0.54208  1.0000
  S   S250      1.0  0.59430  0.47980  0.70441  1.0000
  C   C1652     1.0  0.34907  0.68312  0.71013  1.0000
  C   C1653     1.0  0.35650  0.60002  0.87674  1.0000
  S   S251      1.0  0.37250  0.72097  0.65416  1.0000
  C   C1654     1.0  0.44720  0.64092  0.51999  1.0000
  H   H1312     1.0  0.49732  0.52883  0.99318  1.0000
  C   C1655     1.0  0.33808  0.67267  0.72737  1.0000
  C   C1656     1.0  0.40815  0.50419  0.55611  1.0000
  H   H1313     1.0  0.43924  0.63096  0.51169  1.0000
  C   C1657     1.0  0.50860  0.49382  0.52478  1.0000
  C   C1658     1.0  0.65427  0.67453  0.62651  1.0000
  H   H1314     1.0  0.56277  0.52064  0.68105  1.0000
  C   C1659     1.0  0.50797  0.72115  0.63074  1.0000
  H   H1315     1.0  0.56894  0.49914  0.53417  1.0000
  C   C1660     1.0  0.63375  0.58450  0.88433  1.0000
  C   C1661     1.0  0.63731  0.58600  0.85585  1.0000
  H   H1316     1.0  0.42922  0.48759  0.91217  1.0000
  H   H1317     1.0  0.34327  0.54371  0.58497  1.0000
  H   H1318     1.0  0.38613  0.65796  0.99670  1.0000
  C   C1662     1.0  0.59430  0.59587  0.97967  1.0000
  H   H1319     1.0  0.43409  0.49144  0.63868  1.0000
  C   C1663     1.0  0.62445  0.69391  0.71653  1.0000
  H   H1320     1.0  0.43488  0.48724  0.56239  1.0000
  C   C1664     1.0  0.33878  0.61660  0.78120  1.0000
  C   C1665     1.0  0.52485  0.48788  0.94755  1.0000
  C   C1666     1.0  0.64716  0.66743  0.67387  1.0000
  C   C1667     1.0  0.63871  0.69209  0.95107  1.0000
  H   H1321     1.0  0.65620  0.61840  0.90449  1.0000
  C   C1668     1.0  0.59838  0.50119  0.77918  1.0000
  C   C1669     1.0  0.63493  0.69382  0.52381  1.0000
  H   H1322     1.0  0.46132  0.53985  0.97455  1.0000
  C   C1670     1.0  0.35646  0.69666  0.72154  1.0000
  H   H1323     1.0  0.52325  0.51561  0.57962  1.0000
  C   C1671     1.0  0.39180  0.57956  0.80750  1.0000
  C   C1672     1.0  0.36039  0.54818  0.58636  1.0000
  S   S252      1.0  0.63626  0.69269  0.91460  1.0000
  H   H1324     1.0  0.37872  0.70183  0.95601  1.0000
  C   C1673     1.0  0.39114  0.49507  0.98492  1.0000
  C   C1674     1.0  0.53270  0.48878  0.69236  1.0000
  H   H1325     1.0  0.38939  0.57533  0.62056  1.0000
  C   C1675     1.0  0.35291  0.69973  0.74977  1.0000
  C   C1676     1.0  0.47256  0.71333  0.53601  1.0000
  H   H1326     1.0  0.45628  0.67772  0.50385  1.0000
  C   C1677     1.0  0.55421  0.51251  0.99072  1.0000
  C   C1678     1.0  0.57512  0.66415  0.97504  1.0000
  H   H1327     1.0  0.54678  0.48662  0.76303  1.0000
  C   C1679     1.0  0.54066  0.67658  0.51570  1.0000
  H   H1328     1.0  0.65027  0.65111  0.94123  1.0000
  C   C1680     1.0  0.33851  0.61005  0.86875  1.0000
  H   H1329     1.0  0.34242  0.59385  0.76461  1.0000
  H   H1330     1.0  0.36510  0.70476  0.70869  1.0000
  H   H1331     1.0  0.37476  0.69927  0.90579  1.0000
  C   C1681     1.0  0.42901  0.49676  0.54988  1.0000
  C   C1682     1.0  0.64770  0.59902  0.84504  1.0000
  C   C1683     1.0  0.64413  0.70252  0.71371  1.0000
  C   C1684     1.0  0.61239  0.49189  0.99506  1.0000
  C   C1685     1.0  0.55152  0.48779  0.83267  1.0000
  C   C1686     1.0  0.38632  0.56607  0.60648  1.0000
  C   C1687     1.0  0.35616  0.51133  0.59431  1.0000
  C   C1688     1.0  0.48419  0.52134  0.98615  1.0000
  C   C1689     1.0  0.65738  0.68315  0.99302  1.0000
  H   H1332     1.0  0.64653  0.70927  0.69536  1.0000
  H   H1333     1.0  0.60396  0.62320  0.87055  1.0000
  C   C1690     1.0  0.46215  0.70004  0.54508  1.0000
  C   C1691     1.0  0.59385  0.62338  0.97714  1.0000
  H   H1334     1.0  0.55514  0.70945  0.69907  1.0000
  C   C1692     1.0  0.47824  0.67960  0.65129  1.0000
  C   C1693     1.0  0.60453  0.64751  0.87327  1.0000
  H   H1335     1.0  0.63216  0.57714  0.84203  1.0000
  H   H1336     1.0  0.39828  0.50033  0.57358  1.0000
  H   H1337     1.0  0.60447  0.61934  0.92066  1.0000
  C   C1694     1.0  0.44209  0.50140  0.52733  1.0000
  C   C1695     1.0  0.36514  0.48447  0.95200  1.0000
  C   C1696     1.0  0.54720  0.49889  0.67923  1.0000
  C   C1697     1.0  0.45677  0.66734  0.51578  1.0000
  C   C1698     1.0  0.55822  0.72057  0.70755  1.0000
  H   H1338     1.0  0.51326  0.67239  0.59641  1.0000
  H   H1339     1.0  0.35768  0.48434  0.93163  1.0000
  H   H1340     1.0  0.60648  0.67843  0.74280  1.0000
  C   C1699     1.0  0.65473  0.64523  0.96015  1.0000
  H   H1341     1.0  0.34085  0.72070  0.97500  1.0000
  H   H1342     1.0  0.60658  0.67133  0.88247  1.0000
  H   H1343     1.0  0.51953  0.49922  0.94149  1.0000
  C   C1700     1.0  0.62242  0.70000  0.96745  1.0000
  C   C1701     1.0  0.60450  0.63078  0.91286  1.0000
  C   C1702     1.0  0.51862  0.47995  0.53306  1.0000
  H   H1344     1.0  0.44466  0.69214  0.59872  1.0000
  C   C1703     1.0  0.65461  0.61088  0.86234  1.0000
  C   C1704     1.0  0.55096  0.51305  0.69094  1.0000
  C   C1705     1.0  0.45752  0.64037  0.54599  1.0000
  C   C1706     1.0  0.47906  0.68259  0.59352  1.0000
  C   C1707     1.0  0.60513  0.60932  0.97285  1.0000
  P   P54       1.0  0.60778  0.64068  0.96771  1.0000
  C   C1708     1.0  0.59762  0.48339  0.53782  1.0000
  H   H1345     1.0  0.47533  0.51292  0.80403  1.0000
  C   C1709     1.0  0.60097  0.48363  0.73969  1.0000
  C   C1710     1.0  0.45950  0.68710  0.60873  1.0000
  C   C1711     1.0  0.57085  0.52302  0.99739  1.0000
  C   C1712     1.0  0.41468  0.70763  0.95452  1.0000
  C   C1713     1.0  0.51012  0.50663  0.54156  1.0000
  C   C1714     1.0  0.44995  0.50259  0.96655  1.0000
  C   C1715     1.0  0.38505  0.62992  0.82963  1.0000
  C   C1716     1.0  0.60644  0.65788  0.91947  1.0000
  C   C1717     1.0  0.38019  0.66081  0.81769  1.0000
  H   H1346     1.0  0.56397  0.58598  0.99687  1.0000
  C   C1718     1.0  0.60569  0.64327  0.93074  1.0000
  H   H1347     1.0  0.43658  0.49536  0.95913  1.0000
  C   C1719     1.0  0.36434  0.56022  0.60433  1.0000
  H   H1348     1.0  0.37052  0.60427  0.88878  1.0000
  H   H1349     1.0  0.55618  0.49554  0.66045  1.0000
  C   C1720     1.0  0.49772  0.67492  0.63634  1.0000
  C   C1721     1.0  0.35043  0.54760  0.51439  1.0000
  C   C1722     1.0  0.45909  0.72573  0.52717  1.0000
  C   C1723     1.0  0.34269  0.50080  0.60799  1.0000
  C   C1724     1.0  0.45906  0.49678  0.89326  1.0000
  H   H1350     1.0  0.58694  0.48211  0.96897  1.0000
  C   C1725     1.0  0.48515  0.71935  0.64002  1.0000
  H   H1351     1.0  0.43854  0.50363  0.71377  1.0000
  H   H1352     1.0  0.63549  0.66354  0.68970  1.0000
  H   H1353     1.0  0.63014  0.54719  0.82336  1.0000
  C   C1726     1.0  0.49806  0.67623  0.60756  1.0000
  H   H1354     1.0  0.36344  0.59497  0.81500  1.0000
  H   H1355     1.0  0.51267  0.67041  0.64709  1.0000
  H   H1356     1.0  0.34999  0.55509  0.53201  1.0000
  C   C1727     1.0  0.51756  0.67577  0.52352  1.0000
  C   C1728     1.0  0.46385  0.52767  0.97545  1.0000
  H   H1357     1.0  0.63594  0.67823  0.77984  1.0000
  C   C1729     1.0  0.64049  0.59641  0.90163  1.0000
  C   C1730     1.0  0.37893  0.59290  0.80303  1.0000
  C   C1731     1.0  0.52202  0.49280  0.71732  1.0000
  H   H1358     1.0  0.47245  0.48401  0.97751  1.0000
  H   H1359     1.0  0.36652  0.65398  0.77885  1.0000
  H   H1360     1.0  0.42948  0.68924  0.55157  1.0000
  C   C1732     1.0  0.45910  0.68557  0.63745  1.0000
  H   H1361     1.0  0.37762  0.67278  0.81335  1.0000
  C   C1733     1.0  0.55494  0.68683  0.52866  1.0000
  C   C1734     1.0  0.37846  0.54184  0.57049  1.0000
  H   H1362     1.0  0.49099  0.71434  0.53600  1.0000
  H   H1363     1.0  0.43095  0.52320  0.95740  1.0000
  C   C1735     1.0  0.43114  0.70846  0.90832  1.0000
  C   C1736     1.0  0.44071  0.48417  0.65497  1.0000
  C   C1737     1.0  0.66075  0.54654  0.84815  1.0000
  H   H1364     1.0  0.58629  0.52366  0.98499  1.0000
  C   C1738     1.0  0.33623  0.71033  0.98517  1.0000
  H   H1365     1.0  0.34406  0.49940  0.63016  1.0000
  C   C1739     1.0  0.60400  0.63291  0.88425  1.0000
  H   H1366     1.0  0.47807  0.67883  0.67361  1.0000
  H   H1367     1.0  0.45001  0.71290  0.94519  1.0000
  H   H1368     1.0  0.35898  0.71018  0.75839  1.0000
  H   H1369     1.0  0.58453  0.50575  0.73861  1.0000
  P   P55       1.0  0.36893  0.62070  0.77815  1.0000
  C   C1740     1.0  0.37381  0.65008  0.79818  1.0000
  C   C1741     1.0  0.62162  0.68516  0.74049  1.0000
  H   H1370     1.0  0.51031  0.51484  0.82214  1.0000
  H   H1371     1.0  0.40379  0.50330  0.99021  1.0000
  C   C1742     1.0  0.40046  0.54785  0.57263  1.0000
  C   C1743     1.0  0.54253  0.48989  0.78399  1.0000
  H   H1372     1.0  0.62206  0.66630  0.64156  1.0000
  H   H1373     1.0  0.33914  0.50425  0.52835  1.0000
  H   H1374     1.0  0.40612  0.71110  0.53586  1.0000
  H   H1375     1.0  0.42186  0.56633  0.79602  1.0000
  H   H1376     1.0  0.55719  0.70435  0.55947  1.0000
  H   H1377     1.0  0.45801  0.49543  0.52232  1.0000
  C   C1744     1.0  0.56433  0.59910  0.82244  1.0000
  C   C1745     1.0  0.58054  0.58717  0.82291  1.0000
  C   C1746     1.0  0.58020  0.57661  0.84433  1.0000
  C   C1747     1.0  0.56406  0.57810  0.86565  1.0000
  C   C1748     1.0  0.54814  0.59033  0.86581  1.0000
  C   C1749     1.0  0.54803  0.60058  0.84364  1.0000
  P   P56       1.0  0.52683  0.59252  0.89291  1.0000
  C   C1750     1.0  0.52976  0.57767  0.91835  1.0000
  C   C1751     1.0  0.52955  0.60999  0.91199  1.0000
  C   C1752     1.0  0.51656  0.61223  0.93623  1.0000
  C   C1753     1.0  0.51751  0.62588  0.95073  1.0000
  C   C1754     1.0  0.53165  0.63734  0.94133  1.0000
  C   C1755     1.0  0.54517  0.63505  0.91772  1.0000
  C   C1756     1.0  0.54430  0.62138  0.90319  1.0000
  C   C1757     1.0  0.51150  0.56811  0.92430  1.0000
  C   C1758     1.0  0.51395  0.55693  0.94458  1.0000
  C   C1759     1.0  0.53467  0.55503  0.95868  1.0000
  C   C1760     1.0  0.55283  0.56459  0.95305  1.0000
  C   C1761     1.0  0.55030  0.57603  0.93326  1.0000
  C   C1762     1.0  0.49921  0.59168  0.87619  1.0000
  C   C1763     1.0  0.49550  0.58031  0.85656  1.0000
  C   C1764     1.0  0.47426  0.57941  0.84341  1.0000
  C   C1765     1.0  0.45647  0.58969  0.84998  1.0000
  C   C1766     1.0  0.46004  0.60110  0.86934  1.0000
  C   C1767     1.0  0.48136  0.60217  0.88231  1.0000
  H   H1378     1.0  0.56454  0.60726  0.80575  1.0000
  H   H1379     1.0  0.59345  0.58615  0.80677  1.0000
  H   H1380     1.0  0.59276  0.56735  0.84480  1.0000
  H   H1381     1.0  0.56425  0.56965  0.88178  1.0000
  H   H1382     1.0  0.53545  0.60982  0.84290  1.0000
  H   H1383     1.0  0.50535  0.60349  0.94365  1.0000
  H   H1384     1.0  0.50714  0.62762  0.96915  1.0000
  H   H1385     1.0  0.53212  0.64798  0.95241  1.0000
  H   H1386     1.0  0.55630  0.64390  0.91056  1.0000
  H   H1387     1.0  0.55516  0.61986  0.88522  1.0000
  H   H1388     1.0  0.49545  0.56902  0.91319  1.0000
  H   H1389     1.0  0.50012  0.54925  0.94845  1.0000
  H   H1390     1.0  0.53684  0.54586  0.97335  1.0000
  H   H1391     1.0  0.56908  0.56288  0.96350  1.0000
  H   H1392     1.0  0.56460  0.58331  0.92901  1.0000
  H   H1393     1.0  0.50894  0.57202  0.85166  1.0000
  H   H1394     1.0  0.47142  0.57054  0.82846  1.0000
  H   H1395     1.0  0.43985  0.58871  0.84024  1.0000
  H   H1396     1.0  0.44618  0.60906  0.87442  1.0000
  H   H1397     1.0  0.48366  0.61117  0.89706  1.0000
  H   H1398     1.0  0.54964  0.68205  0.98093  1.0000
  H   H1399     1.0  0.48212  0.71411  0.65983  1.0000
  H   H1400     1.0  0.45285  0.50827  0.89633  1.0000
  C   C1768     1.0  0.52319  0.69543  0.55752  1.0000
  C   C1769     1.0  0.37654  0.63452  0.80382  1.0000
  H   H1401     1.0  0.39696  0.63707  0.86942  1.0000
  C   C1770     1.0  0.46733  0.65332  0.55702  1.0000
  C   C1771     1.0  0.39123  0.70224  0.91439  1.0000
  C   C1772     1.0  0.40629  0.60062  0.76837  1.0000
  C   C1773     1.0  0.37415  0.62881  0.74447  1.0000
  C   C1774     1.0  0.39406  0.63711  0.73983  1.0000
  C   C1775     1.0  0.39719  0.64474  0.71486  1.0000
  C   C1776     1.0  0.38057  0.64406  0.69425  1.0000
  H   H1402     1.0  0.59255  0.51192  0.78774  1.0000
  H   H1403     1.0  0.60304  0.58507  0.97592  1.0000
  H   H1404     1.0  0.43493  0.58507  0.76142  1.0000
  H   H1405     1.0  0.41221  0.60860  0.75319  1.0000
  H   H1406     1.0  0.40681  0.63811  0.75590  1.0000
  H   H1407     1.0  0.41215  0.65158  0.71174  1.0000
  H   H1408     1.0  0.38263  0.65041  0.67528  1.0000
  C   C1777     1.0  0.57367  0.72206  0.72929  1.0000
  C   C1778     1.0  0.38911  0.65612  0.84309  1.0000
  C   C1779     1.0  0.40435  0.55991  0.59059  1.0000
  H   H1409     1.0  0.56269  0.63443  0.99250  1.0000
  S   S253      1.0  0.43785  0.72328  0.63833  1.0000
  P   P57       1.0  0.41732  0.70954  0.99159  1.0000
  C   C1780     1.0  0.48741  0.50554  0.98734  1.0000
  H   H1410     1.0  0.34903  0.71653  0.51883  1.0000
  C   C1781     1.0  0.52561  0.50706  0.72921  1.0000
  C   C1782     1.0  0.54021  0.51716  0.71582  1.0000
  P   P58       1.0  0.51224  0.51195  0.76195  1.0000
  C   C1783     1.0  0.52591  0.50129  0.78966  1.0000
  C   C1784     1.0  0.51663  0.53170  0.76971  1.0000
  C   C1785     1.0  0.53734  0.53613  0.78171  1.0000
  C   C1786     1.0  0.54058  0.55129  0.78875  1.0000
  C   C1787     1.0  0.52329  0.56216  0.78357  1.0000
  C   C1788     1.0  0.50279  0.55790  0.77122  1.0000
  C   C1789     1.0  0.49945  0.54273  0.76427  1.0000
  H   H1411     1.0  0.45767  0.62995  0.55778  1.0000
  H   H1412     1.0  0.49991  0.49471  0.50516  1.0000
  H   H1413     1.0  0.41469  0.54319  0.56064  1.0000
  H   H1414     1.0  0.48031  0.50636  0.71568  1.0000
  C   C1790     1.0  0.52223  0.50572  0.81723  1.0000
  C   C1791     1.0  0.48154  0.50904  0.76032  1.0000
  C   C1792     1.0  0.47066  0.50677  0.73478  1.0000
  C   C1793     1.0  0.44681  0.50542  0.73345  1.0000
  C   C1794     1.0  0.43351  0.50662  0.75743  1.0000
  C   C1795     1.0  0.44406  0.50925  0.78271  1.0000
  C   C1796     1.0  0.46790  0.51041  0.78424  1.0000
  H   H1415     1.0  0.44413  0.68954  0.64903  1.0000
  H   H1416     1.0  0.49046  0.50299  0.87320  1.0000
  H   H1417     1.0  0.43364  0.51067  0.80113  1.0000
  H   H1418     1.0  0.35428  0.50283  0.70277  1.0000
  H   H1419     1.0  0.54372  0.52809  0.72463  1.0000
  H   H1420     1.0  0.55095  0.52785  0.78587  1.0000
  H   H1421     1.0  0.55644  0.55455  0.79843  1.0000
  H   H1422     1.0  0.52574  0.57387  0.78930  1.0000
  H   H1423     1.0  0.48928  0.56628  0.76748  1.0000
  H   H1424     1.0  0.48330  0.53965  0.75513  1.0000
  C   C1797     1.0  0.58445  0.49478  0.52440  1.0000
  C   C1798     1.0  0.43351  0.70996  0.93694  1.0000
  C   C1799     1.0  0.41001  0.70462  0.89705  1.0000
  H   H1425     1.0  0.40812  0.70350  0.87490  1.0000
  S   S254      1.0  0.63925  0.71313  0.63026  1.0000
  P   P59       1.0  0.37328  0.52604  0.54788  1.0000
  C   C1800     1.0  0.36092  0.63561  0.69847  1.0000
  C   C1801     1.0  0.64936  0.52625  0.81802  1.0000
  C   C1802     1.0  0.41351  0.52100  0.51723  1.0000
  H   H1426     1.0  0.60349  0.70706  0.52614  1.0000
  C   C1803     1.0  0.52168  0.50567  0.56676  1.0000
  C   C1804     1.0  0.35767  0.62800  0.72346  1.0000
  C   C1805     1.0  0.37520  0.48518  0.76049  1.0000
  C   C1806     1.0  0.64539  0.54069  0.82905  1.0000
  C   C1807     1.0  0.33998  0.50375  0.55061  1.0000
  C   C1808     1.0  0.53509  0.49911  0.83859  1.0000
  H   H1427     1.0  0.44569  0.71031  0.89484  1.0000
  C   C1809     1.0  0.43806  0.69934  0.54483  1.0000
  H   H1428     1.0  0.42141  0.56441  0.59234  1.0000
  Fe  Fe127     1.0  0.40130  0.71861  0.62262  1.0000
  H   H1429     1.0  0.36806  0.51783  0.60627  1.0000
  C   C1810     1.0  0.66090  0.70224  0.73456  1.0000
  C   C1811     1.0  0.48017  0.49373  0.88037  1.0000
  C   C1812     1.0  0.46622  0.72433  0.62406  1.0000
  H   H1430     1.0  0.53511  0.48160  0.90636  1.0000
  H   H1431     1.0  0.47508  0.65270  0.57727  1.0000
  H   H1432     1.0  0.50261  0.51735  0.53490  1.0000
  C   C1813     1.0  0.65083  0.60950  0.89080  1.0000
  C   C1814     1.0  0.43517  0.72495  0.52719  1.0000
  C   C1815     1.0  0.42468  0.71174  0.53592  1.0000
  H   H1433     1.0  0.51677  0.70272  0.57396  1.0000
  C   C1816     1.0  0.65803  0.69355  0.75860  1.0000
  H   H1434     1.0  0.33242  0.66210  0.71888  1.0000
  H   H1435     1.0  0.63723  0.52151  0.80368  1.0000
  C   C1817     1.0  0.53163  0.49189  0.57516  1.0000
  H   H1436     1.0  0.56863  0.66115  0.95498  1.0000
  S   S255      1.0  0.33972  0.62953  0.87861  1.0000
  H   H1437     1.0  0.58228  0.71208  0.73775  1.0000
  H   H1438     1.0  0.64822  0.67590  0.60554  1.0000
  C   C1818     1.0  0.65628  0.68374  0.96400  1.0000
  H   H1439     1.0  0.53290  0.50318  0.85960  1.0000
  C   C1819     1.0  0.56420  0.67595  0.98975  1.0000
  H   H1440     1.0  0.54114  0.49112  0.59434  1.0000
  Fe  Fe128     1.0  0.57698  0.72560  0.60990  1.0000
  C   C1820     1.0  0.59440  0.65647  0.98609  1.0000
  H   H1441     1.0  0.64686  0.55713  0.95952  1.0000
  C   C1821     1.0  0.35549  0.69305  0.50993  1.0000
  C   C1822     1.0  0.61512  0.70066  0.51281  1.0000
  S   S256      1.0  0.65083  0.66922  0.84692  1.0000
  H   H1442     1.0  0.51119  0.48473  0.72750  1.0000
  S   S257      1.0  0.33650  0.69460  0.80192  1.0000
  C   C1823     1.0  0.65870  0.54885  0.95052  1.0000
  H   H1443     1.0  0.34786  0.63540  0.68265  1.0000
  C   C1824     1.0  0.44558  0.48497  0.90231  1.0000
  C   C1825     1.0  0.65009  0.68576  0.50623  1.0000
  C   C1826     1.0  0.39991  0.68035  0.99450  1.0000
  H   H1444     1.0  0.65060  0.59988  0.82302  1.0000
  C   C1827     1.0  0.59452  0.48209  0.98931  1.0000
  C   C1828     1.0  0.51232  0.72854  0.60579  1.0000
  H   H1445     1.0  0.35038  0.56491  0.61677  1.0000
  C   C1829     1.0  0.33401  0.67593  0.75555  1.0000
  H   H1446     1.0  0.65705  0.55742  0.85752  1.0000
  P   P60       1.0  0.51351  0.49701  0.00082  1.0000
  S   S258      1.0  0.37867  0.72751  0.58768  1.0000
  Fe  Fe129     1.0  0.34918  0.72764  0.61883  1.0000
  H   H1447     1.0  0.65111  0.53149  0.98021  1.0000
  H   H1448     1.0  0.40775  0.53030  0.50424  1.0000
  C   C1830     1.0  0.46006  0.72254  0.99860  1.0000
  H   H1449     1.0  0.50686  0.66770  0.51331  1.0000
  C   C1831     1.0  0.44686  0.65440  0.50489  1.0000
  C   C1832     1.0  0.55498  0.48305  0.80545  1.0000
  H   H1450     1.0  0.56218  0.48306  0.84898  1.0000
  H   H1451     1.0  0.47470  0.48245  0.63755  1.0000
  C   C1833     1.0  0.34679  0.70756  0.50406  1.0000
  C   C1834     1.0  0.66100  0.53441  0.96206  1.0000
  C   C1835     1.0  0.36592  0.47947  0.70356  1.0000
  H   H1452     1.0  0.37991  0.72904  0.96828  1.0000
  C   C1836     1.0  0.42614  0.47937  0.67597  1.0000
  S   S259      1.0  0.43200  0.73536  0.09679  1.0000
  S   S260      1.0  0.62965  0.75602  0.11562  1.0000
  H   H1453     1.0  0.63928  0.78708  0.11372  1.0000
  C   C1837     1.0  0.50849  0.75666  0.14348  1.0000
  H   H1454     1.0  0.50048  0.77174  0.28674  1.0000
  H   H1455     1.0  0.49001  0.75606  0.14471  1.0000
  H   H1456     1.0  0.54945  0.77314  0.10396  1.0000
  H   H1457     1.0  0.37403  0.75466  0.19765  1.0000
  H   H1458     1.0  0.61886  0.74435  0.16919  1.0000
  C   C1838     1.0  0.35607  0.75408  0.20328  1.0000
  C   C1839     1.0  0.34950  0.74521  0.22564  1.0000
  C   C1840     1.0  0.54663  0.74923  0.15885  1.0000
  C   C1841     1.0  0.41138  0.73452  0.02640  1.0000
  H   H1459     1.0  0.50707  0.77190  0.10878  1.0000
  C   C1842     1.0  0.62474  0.74780  0.21251  1.0000
  H   H1460     1.0  0.57475  0.75861  0.13585  1.0000
  Fe  Fe130     1.0  0.34526  0.74230  0.11579  1.0000
  H   H1461     1.0  0.60777  0.75268  0.21627  1.0000
  C   C1843     1.0  0.52267  0.74826  0.16149  1.0000
  H   H1462     1.0  0.36234  0.73867  0.23695  1.0000
  S   S261      1.0  0.37682  0.73950  0.14228  1.0000
  C   C1844     1.0  0.50249  0.76509  0.26804  1.0000
  C   C1845     1.0  0.65663  0.76531  0.11416  1.0000
  C   C1846     1.0  0.51813  0.76569  0.12295  1.0000
  H   H1463     1.0  0.51657  0.73806  0.09130  1.0000
  C   C1847     1.0  0.51995  0.76121  0.22299  1.0000
  H   H1464     1.0  0.47861  0.74822  0.28092  1.0000
  H   H1465     1.0  0.47645  0.74856  0.09145  1.0000
  C   C1848     1.0  0.54197  0.76637  0.12018  1.0000
  H   H1466     1.0  0.53159  0.76504  0.20713  1.0000
  H   H1467     1.0  0.63584  0.75032  0.25455  1.0000
  Fe  Fe131     1.0  0.61688  0.73187  0.11058  1.0000
  H   H1468     1.0  0.40746  0.75378  0.05335  1.0000
  C   C1849     1.0  0.50232  0.73061  0.09408  1.0000
  H   H1469     1.0  0.52693  0.78002  0.24972  1.0000
  C   C1850     1.0  0.33940  0.76165  0.18747  1.0000
  C   C1851     1.0  0.63092  0.74299  0.18599  1.0000
  C   C1852     1.0  0.55622  0.75816  0.13816  1.0000
  C   C1853     1.0  0.65275  0.73661  0.18092  1.0000
  H   H1470     1.0  0.65728  0.73322  0.16005  1.0000
  C   C1854     1.0  0.40160  0.74842  0.03459  1.0000
  H   H1471     1.0  0.55798  0.74303  0.17268  1.0000
  H   H1472     1.0  0.34444  0.76805  0.16943  1.0000
  H   H1473     1.0  0.46580  0.75233  0.18575  1.0000
  C   C1855     1.0  0.51739  0.76975  0.24718  1.0000
  C   C1856     1.0  0.38385  0.75512  0.01924  1.0000
  C   C1857     1.0  0.50753  0.74793  0.21949  1.0000
  C   C1858     1.0  0.47947  0.73652  0.09403  1.0000
  S   S262      1.0  0.36416  0.73313  0.07840  1.0000
  C   C1859     1.0  0.64056  0.74648  0.23401  1.0000
  H   H1474     1.0  0.42689  0.74372  0.17479  1.0000
  H   H1475     1.0  0.37598  0.76573  0.02605  1.0000
  H   H1476     1.0  0.49186  0.73354  0.00732  1.0000
  C   C1860     1.0  0.65577  0.78116  0.11358  1.0000
  C   C1861     1.0  0.49018  0.75184  0.26476  1.0000
  C   C1862     1.0  0.46342  0.74056  0.18054  1.0000
  C   C1863     1.0  0.49271  0.74327  0.24062  1.0000
  H   H1477     1.0  0.42475  0.72939  0.03903  1.0000
  P   P61       1.0  0.51061  0.73669  0.18848  1.0000
  C   C1864     1.0  0.44130  0.73573  0.17465  1.0000
  C   C1865     1.0  0.66249  0.74026  0.22895  1.0000
  C   C1866     1.0  0.48227  0.73030  0.17957  1.0000
  H   H1478     1.0  0.48309  0.73300  0.23840  1.0000
  H   H1479     1.0  0.50319  0.74476  0.70700  1.0000
  H   H1480     1.0  0.33681  0.76406  0.52593  1.0000
  H   H1481     1.0  0.53662  0.73216  0.67822  1.0000
  H   H1482     1.0  0.47451  0.77528  0.62780  1.0000
  C   C1867     1.0  0.47498  0.74952  0.67989  1.0000
  H   H1483     1.0  0.52265  0.78846  0.77916  1.0000
  C   C1868     1.0  0.53264  0.80494  0.74890  1.0000
  C   C1869     1.0  0.53067  0.77803  0.73994  1.0000
  H   H1484     1.0  0.34304  0.73891  0.54749  1.0000
  H   H1485     1.0  0.56945  0.76093  0.59326  1.0000
  C   C1870     1.0  0.48086  0.76871  0.64516  1.0000
  H   H1486     1.0  0.59112  0.73753  0.75571  1.0000
  C   C1871     1.0  0.55234  0.74789  0.70611  1.0000
  C   C1872     1.0  0.56040  0.76836  0.66160  1.0000
  C   C1873     1.0  0.47058  0.73128  0.59869  1.0000
  C   C1874     1.0  0.57266  0.76516  0.61386  1.0000
  H   H1487     1.0  0.53066  0.81445  0.76294  1.0000
  H   H1488     1.0  0.54681  0.79718  0.68216  1.0000
  H   H1489     1.0  0.49649  0.73923  0.57046  1.0000
  H   H1490     1.0  0.44975  0.75621  0.64965  1.0000
  C   C1875     1.0  0.54194  0.79509  0.70340  1.0000
  C   C1876     1.0  0.57866  0.73642  0.73934  1.0000
  S   S263      1.0  0.60838  0.73289  0.58554  1.0000
  C   C1877     1.0  0.52818  0.79030  0.75805  1.0000
  H   H1491     1.0  0.45634  0.73545  0.58638  1.0000
  C   C1878     1.0  0.58155  0.77486  0.66761  1.0000
  C   C1879     1.0  0.53944  0.80734  0.72157  1.0000
  C   C1880     1.0  0.51173  0.76182  0.67671  1.0000
  C   C1881     1.0  0.50312  0.77075  0.65492  1.0000
  C   C1882     1.0  0.53796  0.78031  0.71263  1.0000
  P   P62       1.0  0.54051  0.76450  0.68921  1.0000
  H   H1492     1.0  0.54079  0.75732  0.62984  1.0000
  C   C1883     1.0  0.59351  0.77186  0.61991  1.0000
  C   C1884     1.0  0.55629  0.76324  0.63469  1.0000
  H   H1493     1.0  0.61449  0.78136  0.65160  1.0000
  H   H1494     1.0  0.54264  0.81871  0.71438  1.0000
  C   C1885     1.0  0.59794  0.77671  0.64677  1.0000
  H   H1495     1.0  0.52682  0.76676  0.74718  1.0000
  C   C1886     1.0  0.46684  0.75805  0.65755  1.0000
  H   H1496     1.0  0.60658  0.77286  0.60406  1.0000
  Fe  Fe132     1.0  0.62539  0.73689  0.62662  1.0000
  H   H1497     1.0  0.58565  0.77814  0.68851  1.0000
  S   S264      1.0  0.64915  0.75532  0.64233  1.0000
  H   H1498     1.0  0.34319  0.73810  0.73494  1.0000
  H   H1499     1.0  0.57288  0.76036  0.73507  1.0000
  H   H1500     1.0  0.51368  0.77916  0.64522  1.0000
  C   C1887     1.0  0.49728  0.75144  0.68960  1.0000
  C   C1888     1.0  0.54771  0.73344  0.69587  1.0000
  H   H1501     1.0  0.45290  0.73223  0.98762  1.0000
  C   C1889     1.0  0.56817  0.74931  0.72769  1.0000
  H   H1502     1.0  0.36228  0.75315  0.98352  1.0000
  H   H1503     1.0  0.46406  0.74114  0.68918  1.0000
  H   H1504     1.0  0.65642  0.73363  0.75293  1.0000
  C   C1890     1.0  0.49343  0.73350  0.58981  1.0000
  H   H1505     1.0  0.65553  0.76205  0.52819  1.0000
  H   H1506     1.0  0.42474  0.73459  0.52054  1.0000
  C   C1891     1.0  0.38616  0.73421  0.98686  1.0000
  S   S265      1.0  0.54080  0.73177  0.59337  1.0000
  H   H1507     1.0  0.46724  0.73603  0.52064  1.0000
  S   S266      1.0  0.59293  0.73196  0.65055  1.0000
  H   H1508     1.0  0.66305  0.75401  0.71871  1.0000
  C   C1892     1.0  0.37611  0.74800  0.99539  1.0000
  Fe  Fe133     1.0  0.86487  0.03308  0.37686  1.0000
  S   S267      1.0  0.85371  0.00911  0.38655  1.0000
  S   S268      1.0  0.83925  0.05309  0.38447  1.0000
  Fe  Fe134     1.0  0.91263  0.02185  0.36005  1.0000
  S   S269      1.0  0.90501  0.99773  0.36943  1.0000
  S   S270      1.0  0.94642  0.02546  0.33811  1.0000
  Fe  Fe135     1.0  0.87205  0.00226  0.34676  1.0000
  H   H1509     1.0  0.73738  0.22891  0.23823  1.0000
  Fe  Fe136     1.0  0.88770  0.00622  0.40842  1.0000
  S   S271      1.0  0.89873  0.99301  0.44779  1.0000
  S   S272      1.0  0.88032  0.02618  0.33576  1.0000
  S   S273      1.0  0.89812  0.03037  0.40048  1.0000
  H   H1510     1.0  0.94951  0.04089  0.39086  1.0000
  Fe  Fe137     1.0  0.76676  0.16594  0.36262  1.0000
  S   S274      1.0  0.78606  0.18597  0.37731  1.0000
  S   S275      1.0  0.72832  0.16791  0.35309  1.0000
  Fe  Fe138     1.0  0.81045  0.14471  0.36293  1.0000
  S   S276      1.0  0.83208  0.16386  0.37802  1.0000
  S   S277      1.0  0.83150  0.12337  0.34965  1.0000
  Fe  Fe139     1.0  0.80308  0.16978  0.40710  1.0000
  S   S278      1.0  0.80494  0.17339  0.45380  1.0000
  Fe  Fe140     1.0  0.81319  0.17827  0.34669  1.0000
  S   S279      1.0  0.83128  0.19538  0.31945  1.0000
  S   S280      1.0  0.78224  0.14978  0.39402  1.0000
  S   S281      1.0  0.79295  0.15910  0.33015  1.0000
  S   S282      1.0  0.83436  0.20997  0.12032  1.0000
  C   C1893     1.0  0.88499  0.17336  0.32124  1.0000
  S   S283      1.0  0.88071  0.18929  0.12949  1.0000
  H   H1511     1.0  0.96244  0.02255  0.28132  1.0000
  Fe  Fe141     1.0  0.86209  0.19970  0.09329  1.0000
  S   S284      1.0  0.84968  0.18442  0.05846  1.0000
  Fe  Fe142     1.0  0.85452  0.20115  0.15658  1.0000
  S   S285      1.0  0.83452  0.18770  0.18846  1.0000
  C   C1894     1.0  0.84993  0.18740  0.02218  1.0000
  C   C1895     1.0  0.80798  0.09759  0.29941  1.0000
  C   C1896     1.0  0.83262  0.19822  0.46235  1.0000
  C   C1897     1.0  0.81978  0.18669  0.47408  1.0000
  C   C1898     1.0  0.86827  0.04977  0.27449  1.0000
  C   C1899     1.0  0.77237  0.22577  0.08487  1.0000
  C   C1900     1.0  0.90296  0.05651  0.29878  1.0000
  H   H1512     1.0  0.83341  0.19938  0.44015  1.0000
  C   C1901     1.0  0.76840  0.21503  0.10547  1.0000
  H   H1513     1.0  0.79507  0.21383  0.16576  1.0000
  C   C1902     1.0  0.83257  0.19292  0.28307  1.0000
  C   C1903     1.0  0.84735  0.20182  0.26718  1.0000
  C   C1904     1.0  0.84785  0.20066  0.23812  1.0000
  C   C1905     1.0  0.83379  0.19040  0.22474  1.0000
  C   C1906     1.0  0.81937  0.18132  0.24068  1.0000
  C   C1907     1.0  0.81868  0.18260  0.26962  1.0000
  H   H1514     1.0  0.85847  0.20966  0.27734  1.0000
  H   H1515     1.0  0.85930  0.20755  0.22613  1.0000
  H   H1516     1.0  0.80858  0.17327  0.23054  1.0000
  H   H1517     1.0  0.80727  0.17565  0.28143  1.0000
  H   H1518     1.0  0.93197  0.10128  0.29166  1.0000
  C   C1908     1.0  0.88105  0.15088  0.29288  1.0000
  C   C1909     1.0  0.82914  0.09667  0.28576  1.0000
  H   H1519     1.0  0.86718  0.11865  0.02394  1.0000
  H   H1520     1.0  0.71619  0.22177  0.37687  1.0000
  C   C1910     1.0  0.72191  0.19849  0.36528  1.0000
  C   C1911     1.0  0.71198  0.18512  0.35643  1.0000
  C   C1912     1.0  0.68836  0.18535  0.35035  1.0000
  C   C1913     1.0  0.96299  0.98734  0.25258  1.0000
  C   C1914     1.0  0.98971  0.19150  0.06588  1.0000
  H   H1521     1.0  0.74004  0.19863  0.36968  1.0000
  H   H1522     1.0  0.68060  0.17520  0.34270  1.0000
  C   C1915     1.0  0.80408  0.07050  0.29434  1.0000
  C   C1916     1.0  0.68639  0.14511  0.41925  1.0000
  C   C1917     1.0  0.83793  0.07274  0.37524  1.0000
  C   C1918     1.0  0.85511  0.07961  0.35971  1.0000
  C   C1919     1.0  0.85290  0.09507  0.35227  1.0000
  C   C1920     1.0  0.83378  0.10405  0.36081  1.0000
  C   C1921     1.0  0.81678  0.09725  0.37673  1.0000
  C   C1922     1.0  0.81880  0.08171  0.38369  1.0000
  H   H1523     1.0  0.87016  0.07300  0.35364  1.0000
  H   H1524     1.0  0.86618  0.10013  0.33995  1.0000
  H   H1525     1.0  0.80191  0.10388  0.38337  1.0000
  H   H1526     1.0  0.80541  0.07659  0.39579  1.0000
  H   H1527     1.0  0.68843  0.13811  0.46172  1.0000
  H   H1528     1.0  0.77233  0.20072  0.24653  1.0000
  H   H1529     1.0  0.97397  0.18997  0.46753  1.0000
  C   C1923     1.0  0.87124  0.99377  0.26276  1.0000
  C   C1924     1.0  0.84496  0.20803  0.47945  1.0000
  H   H1530     1.0  0.87416  0.00470  0.27195  1.0000
  C   C1925     1.0  0.88545  0.98757  0.47974  1.0000
  C   C1926     1.0  0.74432  0.18358  0.44054  1.0000
  C   C1927     1.0  0.67664  0.15542  0.40060  1.0000
  S   S286      1.0  0.87513  0.22218  0.16098  1.0000
  H   H1531     1.0  0.75652  0.17421  0.44297  1.0000
  C   C1928     1.0  0.81589  0.02580  0.33567  1.0000
  C   C1929     1.0  0.96987  0.03167  0.35740  1.0000
  H   H1532     1.0  0.69900  0.19740  0.27547  1.0000
  C   C1930     1.0  0.96666  0.03904  0.38270  1.0000
  C   C1931     1.0  0.71447  0.20222  0.28351  1.0000
  C   C1932     1.0  0.82261  0.03795  0.31928  1.0000
  C   C1933     1.0  0.73749  0.22372  0.29528  1.0000
  C   C1934     1.0  0.89873  0.97967  0.49961  1.0000
  H   H1533     1.0  0.80988  0.00184  0.33704  1.0000
  C   C1935     1.0  0.81868  0.14105  0.21577  1.0000
  C   C1936     1.0  0.89073  0.12301  0.25970  1.0000
  C   C1937     1.0  0.70822  0.21166  0.36941  1.0000
  C   C1938     1.0  0.99402  0.99341  0.36660  1.0000
  H   H1534     1.0  0.81277  0.02752  0.35756  1.0000
  C   C1939     1.0  0.81903  0.00914  0.29613  1.0000
  H   H1535     1.0  0.72941  0.18029  0.29339  1.0000
  C   C1940     1.0  0.92895  0.01386  0.50028  1.0000
  C   C1941     1.0  0.94961  0.17851  0.08583  1.0000
  C   C1942     1.0  0.94931  0.00589  0.49372  1.0000
  H   H1536     1.0  0.89735  0.17062  0.02456  1.0000
  C   C1943     1.0  0.92161  0.02608  0.48397  1.0000
  H   H1537     1.0  0.92920  0.04001  0.44876  1.0000
  C   C1944     1.0  0.75128  0.19843  0.44464  1.0000
  C   C1945     1.0  0.90912  0.09330  0.26034  1.0000
  H   H1538     1.0  0.77955  0.19450  0.19725  1.0000
  C   C1946     1.0  0.95514  0.02253  0.45472  1.0000
  H   H1539     1.0  0.82357  0.22884  0.26839  1.0000
  H   H1540     1.0  0.98274  0.00107  0.03729  1.0000
  C   C1947     1.0  0.73577  0.21070  0.44061  1.0000
  C   C1948     1.0  0.82583  0.06938  0.28176  1.0000
  H   H1541     1.0  0.89325  0.15653  0.06829  1.0000
  C   C1949     1.0  0.87229  0.99191  0.23373  1.0000
  C   C1950     1.0  0.77873  0.20928  0.23266  1.0000
  H   H1542     1.0  0.78419  0.13880  0.23125  1.0000
  H   H1543     1.0  0.72384  0.20197  0.05771  1.0000
  H   H1544     1.0  0.98316  0.05028  0.41653  1.0000
  H   H1545     1.0  0.80026  0.18555  0.07926  1.0000
  H   H1546     1.0  0.72187  0.22741  0.07953  1.0000
  C   C1951     1.0  0.80758  0.04354  0.22842  1.0000
  C   C1952     1.0  0.80133  0.04142  0.20088  1.0000
  C   C1953     1.0  0.81663  0.04489  0.17963  1.0000
  C   C1954     1.0  0.96286  0.99151  0.22463  1.0000
  H   H1547     1.0  0.87238  0.03089  0.24616  1.0000
  H   H1548     1.0  0.91377  0.02717  0.25475  1.0000
  H   H1549     1.0  0.79556  0.04076  0.24469  1.0000
  C   C1955     1.0  0.80893  0.13858  0.26413  1.0000
  H   H1550     1.0  0.90548  0.03193  0.48856  1.0000
  C   C1956     1.0  0.88371  0.16452  0.34508  1.0000
  H   H1551     1.0  0.77906  0.08526  0.31431  1.0000
  C   C1957     1.0  0.91808  0.10428  0.27772  1.0000
  H   H1552     1.0  0.97761  0.99277  0.08547  1.0000
  H   H1553     1.0  0.99471  0.17267  0.13714  1.0000
  C   C1958     1.0  0.88059  0.14894  0.34294  1.0000
  C   C1959     1.0  0.88388  0.16605  0.22237  1.0000
  C   C1960     1.0  0.98635  0.20621  0.14684  1.0000
  C   C1961     1.0  0.89307  0.17991  0.48571  1.0000
  C   C1962     1.0  0.97058  0.99664  0.40774  1.0000
  H   H1554     1.0  0.80156  0.10839  0.30730  1.0000
  C   C1963     1.0  0.99108  0.17742  0.07933  1.0000
  C   C1964     1.0  0.82567  0.02127  0.27967  1.0000
  C   C1965     1.0  0.79538  0.08454  0.30351  1.0000
  H   H1555     1.0  0.81856  0.99783  0.28749  1.0000
  H   H1556     1.0  0.87857  0.13041  0.06786  1.0000
  H   H1557     1.0  0.90290  0.18835  0.49619  1.0000
  C   C1966     1.0  0.78383  0.22363  0.24273  1.0000
  H   H1558     1.0  0.88756  0.18501  0.19490  1.0000
  H   H1559     1.0  0.91132  0.06298  0.31470  1.0000
  H   H1560     1.0  0.83681  0.22053  0.03326  1.0000
  H   H1561     1.0  0.88434  0.16983  0.36521  1.0000
  H   H1562     1.0  0.99472  0.02374  0.32724  1.0000
  H   H1563     1.0  0.93952  0.11826  0.49041  1.0000
  H   H1564     1.0  0.85172  0.99670  0.47089  1.0000
  C   C1967     1.0  0.88365  0.16659  0.29523  1.0000
  P   P63       1.0  0.83752  0.05125  0.27044  1.0000
  C   C1968     1.0  0.83788  0.08265  0.27662  1.0000
  C   C1969     1.0  0.79068  0.22514  0.00244  1.0000
  H   H1565     1.0  0.76896  0.20024  0.45037  1.0000
  C   C1970     1.0  0.72190  0.18082  0.43239  1.0000
  C   C1971     1.0  0.86507  0.19730  0.00956  1.0000
  H   H1566     1.0  0.83164  0.14135  0.00855  1.0000
  H   H1567     1.0  0.96758  0.20987  0.05227  1.0000
  C   C1972     1.0  0.83210  0.13957  0.27107  1.0000
  C   C1973     1.0  0.75459  0.21387  0.30563  1.0000
  H   H1568     1.0  0.85563  0.15104  0.44716  1.0000
  H   H1569     1.0  0.85439  0.14313  0.20617  1.0000
  C   C1974     1.0  0.88767  0.16621  0.49864  1.0000
  H   H1570     1.0  0.98384  0.19851  0.16384  1.0000
  C   C1975     1.0  0.71299  0.20773  0.43356  1.0000
  C   C1976     1.0  0.84880  0.14129  0.25035  1.0000
  P   P64       1.0  0.98808  0.99947  0.46102  1.0000
  H   H1571     1.0  0.79619  0.13728  0.28028  1.0000
  C   C1977     1.0  0.67461  0.19855  0.35464  1.0000
  S   S287      1.0  0.66780  0.22795  0.37535  1.0000
  C   C1978     1.0  0.76162  0.22353  0.49557  1.0000
  C   C1979     1.0  0.96299  0.99866  0.27295  1.0000
  H   H1572     1.0  0.87682  0.20357  0.02209  1.0000
  C   C1980     1.0  0.71717  0.22604  0.05809  1.0000
  H   H1573     1.0  0.87852  0.14214  0.36138  1.0000
  C   C1981     1.0  0.90911  0.11912  0.27720  1.0000
  C   C1982     1.0  0.96222  0.00994  0.47041  1.0000
  C   C1983     1.0  0.87944  0.05863  0.29410  1.0000
  H   H1574     1.0  0.86985  0.06670  0.30667  1.0000
  H   H1575     1.0  0.92622  0.14007  0.23720  1.0000
  Fe  Fe143     1.0  0.90081  0.21081  0.13164  1.0000
  C   C1984     1.0  0.89126  0.09717  0.24232  1.0000
  C   C1985     1.0  0.96176  0.01801  0.23755  1.0000
  C   C1986     1.0  0.96697  0.21235  0.13310  1.0000
  C   C1987     1.0  0.70623  0.19288  0.42914  1.0000
  C   C1988     1.0  0.96199  0.00681  0.21716  1.0000
  C   C1989     1.0  0.89158  0.15905  0.02420  1.0000
  H   H1576     1.0  0.69851  0.13646  0.41196  1.0000
  H   H1577     1.0  0.88634  0.18553  0.32289  1.0000
  H   H1578     1.0  0.97142  0.16018  0.09982  1.0000
  C   C1990     1.0  0.84190  0.14189  0.22260  1.0000
  H   H1579     1.0  0.86569  0.17508  0.42449  1.0000
  H   H1580     1.0  0.82353  0.17124  0.01506  1.0000
  H   H1581     1.0  0.88416  0.17375  0.27715  1.0000
  C   C1991     1.0  0.96233  0.01393  0.26541  1.0000
  C   C1992     1.0  0.79210  0.19670  0.08069  1.0000
  C   C1993     1.0  0.78767  0.22690  0.37434  1.0000
  C   C1994     1.0  0.96842  0.19885  0.06208  1.0000
  H   H1582     1.0  0.93412  0.17380  0.09436  1.0000
  H   H1583     1.0  0.93209  0.19852  0.07045  1.0000
  C   C1995     1.0  0.66806  0.22092  0.27065  1.0000
  H   H1584     1.0  0.87579  0.13015  0.31586  1.0000
  C   C1996     1.0  0.87221  0.17249  0.44491  1.0000
  C   C1997     1.0  0.89438  0.15318  0.23423  1.0000
  C   C1998     1.0  0.98570  0.04435  0.39718  1.0000
  C   C1999     1.0  0.80219  0.13938  0.23653  1.0000
  C   C2000     1.0  0.87909  0.14215  0.31698  1.0000
  H   H1585     1.0  0.88446  0.08868  0.22868  1.0000
  C   C2001     1.0  0.83810  0.05067  0.18590  1.0000
  H   H1586     1.0  0.83680  0.13898  0.29265  1.0000
  H   H1587     1.0  0.96513  0.02599  0.43706  1.0000
  H   H1588     1.0  0.67238  0.21280  0.22864  1.0000
  C   C2002     1.0  0.86555  0.98160  0.27980  1.0000
  H   H1589     1.0  0.71691  0.16936  0.42800  1.0000
  C   C2003     1.0  0.88201  0.11194  0.24206  1.0000
  C   C2004     1.0  0.91747  0.14970  0.22785  1.0000
  C   C2005     1.0  0.97243  0.99472  0.37914  1.0000
  C   C2006     1.0  0.81419  0.01139  0.32413  1.0000
  H   H1590     1.0  0.86636  0.16914  0.22756  1.0000
  S   S288      1.0  0.93889  0.20651  0.14351  1.0000
  H   H1591     1.0  0.80077  0.21904  0.36647  1.0000
  C   C2007     1.0  0.82934  0.04897  0.23488  1.0000
  P   P65       1.0  0.87886  0.14214  0.25929  1.0000
  C   C2008     1.0  0.75177  0.19824  0.30461  1.0000
  H   H1592     1.0  0.84993  0.05335  0.16940  1.0000
  H   H1593     1.0  0.78468  0.03693  0.19603  1.0000
  H   H1594     1.0  0.94736  0.15610  0.20451  1.0000
  H   H1595     1.0  0.81346  0.14190  0.19437  1.0000
  H   H1596     1.0  0.96129  0.02986  0.23179  1.0000
  C   C2009     1.0  0.97061  0.22264  0.11161  1.0000
  H   H1597     1.0  0.92811  0.17863  0.18319  1.0000
  C   C2010     1.0  0.79634  0.20747  0.06027  1.0000
  H   H1598     1.0  0.68905  0.19084  0.42202  1.0000
  C   C2011     1.0  0.73177  0.19243  0.29347  1.0000
  H   H1599     1.0  0.91607  0.08180  0.26080  1.0000
  H   H1600     1.0  0.83028  0.01911  0.25832  1.0000
  H   H1601     1.0  0.99162  0.15180  0.04221  1.0000
  C   C2012     1.0  0.88924  0.15110  0.04889  1.0000
  S   S289      1.0  0.88375  0.22047  0.09338  1.0000
  C   C2013     1.0  0.97261  0.20666  0.49992  1.0000
  H   H1602     1.0  0.82484  0.04887  0.32889  1.0000
  H   H1603     1.0  0.81186  0.04306  0.15831  1.0000
  H   H1604     1.0  0.83899  0.10680  0.28301  1.0000
  C   C2014     1.0  0.91878  0.17148  0.19739  1.0000
  H   H1605     1.0  0.88939  0.19363  0.44916  1.0000
  C   C2015     1.0  0.78260  0.20580  0.20487  1.0000
  C   C2016     1.0  0.67181  0.19418  0.48326  1.0000
  C   C2017     1.0  0.71146  0.20998  0.01827  1.0000
  H   H1606     1.0  0.91650  0.12752  0.29056  1.0000
  H   H1607     1.0  0.85429  0.08211  0.26619  1.0000
  C   C2018     1.0  0.68437  0.21165  0.36516  1.0000
  C   C2019     1.0  0.91543  0.04537  0.28424  1.0000
  H   H1608     1.0  0.86107  0.05732  0.21795  1.0000
  C   C2020     1.0  0.71810  0.21173  0.04581  1.0000
  H   H1609     1.0  0.70046  0.21674  0.43028  1.0000
  C   C2021     1.0  0.90437  0.03630  0.26504  1.0000
  C   C2022     1.0  0.88086  0.03844  0.26024  1.0000
  C   C2023     1.0  0.82715  0.03584  0.29106  1.0000
  C   C2024     1.0  0.84440  0.05281  0.21344  1.0000
  H   H1610     1.0  0.99536  0.99247  0.34436  1.0000
  H   H1611     1.0  0.86974  0.14517  0.49400  1.0000
  C   C2025     1.0  0.78653  0.22214  0.06209  1.0000
  C   C2026     1.0  0.68078  0.14611  0.44727  1.0000
  H   H1612     1.0  0.93343  0.04334  0.28880  1.0000
  H   H1613     1.0  0.74530  0.21820  0.49890  1.0000
  H   H1614     1.0  0.86809  0.11467  0.22807  1.0000
  H   H1615     1.0  0.79399  0.06054  0.29761  1.0000
  C   C2027     1.0  0.89594  0.17511  0.20396  1.0000
  C   C2028     1.0  0.88553  0.18294  0.45885  1.0000
  C   C2029     1.0  0.92956  0.15879  0.20938  1.0000
  H   H1616     1.0  0.77559  0.19226  0.11957  1.0000
  H   H1617     1.0  0.71224  0.19877  0.00931  1.0000
  C   C2030     1.0  0.68469  0.20559  0.49522  1.0000
  H   H1618     1.0  0.78192  0.21399  0.41102  1.0000
  H   H1619     1.0  0.85514  0.21676  0.47022  1.0000
  C   C2031     1.0  0.70396  0.22260  0.00276  1.0000
  C   C2032     1.0  0.71715  0.21797  0.28438  1.0000
  H   H1620     1.0  0.76491  0.19060  0.31284  1.0000
  H   H1621     1.0  0.80730  0.20422  0.04306  1.0000
  H   H1622     1.0  0.87606  0.00152  0.22080  1.0000
  C   C2033     1.0  0.77826  0.20050  0.10338  1.0000
  C   C2034     1.0  0.86652  0.15894  0.45772  1.0000
  C   C2035     1.0  0.88086  0.13643  0.04861  1.0000
  C   C2036     1.0  0.93487  0.03054  0.46141  1.0000
  H   H1623     1.0  0.95404  0.20789  0.49966  1.0000
  H   H1624     1.0  0.75786  0.21806  0.12321  1.0000
  H   H1625     1.0  0.95709  0.99468  0.36657  1.0000
  H   H1626     1.0  0.95363  0.99768  0.41701  1.0000
  C   C2037     1.0  0.77677  0.22400  0.39953  1.0000
  H   H1627     1.0  0.96377  0.99577  0.29468  1.0000
  C   C2038     1.0  0.83522  0.17898  0.00548  1.0000
  H   H1628     1.0  0.76275  0.21107  0.01545  1.0000
  C   C2039     1.0  0.97081  0.17094  0.08912  1.0000
  C   C2040     1.0  0.87456  0.12977  0.02364  1.0000
  C   C2041     1.0  0.79145  0.21668  0.18713  1.0000
  H   H1629     1.0  0.77014  0.21826  0.31439  1.0000
  C   C2042     1.0  0.94842  0.19245  0.07229  1.0000
  C   C2043     1.0  0.86227  0.99069  0.48580  1.0000
  H   H1630     1.0  0.96179  0.00992  0.19553  1.0000
  C   C2044     1.0  0.85441  0.98172  0.01656  1.0000
  C   C2045     1.0  0.98385  0.19651  0.48195  1.0000
  H   H1631     1.0  0.95602  0.22762  0.10093  1.0000
  H   H1632     1.0  0.84332  0.22838  0.31308  1.0000
  H   H1633     1.0  0.68137  0.15475  0.37893  1.0000
  C   C2046     1.0  0.99322  0.22631  0.10357  1.0000
  C   C2047     1.0  0.98735  0.98031  0.47376  1.0000
  C   C2048     1.0  0.99045  0.99736  0.42399  1.0000
  H   H1634     1.0  0.78087  0.22618  0.26426  1.0000
  C   C2049     1.0  0.99216  0.02944  0.34681  1.0000
  C   C2050     1.0  0.87435  0.15574  0.48438  1.0000
  H   H1635     1.0  0.98648  0.12472  0.03205  1.0000
  H   H1636     1.0  0.96374  0.98295  0.20859  1.0000
  H   H1637     1.0  0.79041  0.14746  0.00575  1.0000
  C   C2051     1.0  0.67954  0.22078  0.48939  1.0000
  S   S290      1.0  0.86140  0.98362  0.31635  1.0000
  H   H1638     1.0  0.84359  0.98001  0.03437  1.0000
  C   C2052     1.0  0.99434  0.99162  0.07567  1.0000
  H   H1639     1.0  0.67612  0.18253  0.48818  1.0000
  H   H1640     1.0  0.92493  0.14473  0.49217  1.0000
  C   C2053     1.0  0.66553  0.15749  0.45667  1.0000
  Fe  Fe144     1.0  0.87862  0.04361  0.87973  1.0000
  S   S291      1.0  0.84916  0.02807  0.87265  1.0000
  S   S292      1.0  0.87834  0.06978  0.88385  1.0000
  Fe  Fe145     1.0  0.91289  0.01634  0.87939  1.0000
  S   S293      1.0  0.88553  0.99946  0.87192  1.0000
  S   S294      1.0  0.94773  0.00481  0.88161  1.0000
  Fe  Fe146     1.0  0.87198  0.01612  0.84072  1.0000
  S   S295      1.0  0.86285  0.01177  0.79515  1.0000
  Fe  Fe147     1.0  0.86607  0.01258  0.90457  1.0000
  S   S296      1.0  0.84689  0.00074  0.93979  1.0000
  S   S297      1.0  0.90062  0.03241  0.84654  1.0000
  S   S298      1.0  0.89418  0.02878  0.91346  1.0000
  H   H1641     1.0  0.80859  0.17670  0.51224  1.0000
  Fe  Fe148     1.0  0.78297  0.18348  0.86832  1.0000
  S   S299      1.0  0.81520  0.19656  0.86396  1.0000
  S   S300      1.0  0.75506  0.20187  0.87594  1.0000
  Fe  Fe149     1.0  0.81178  0.15334  0.86552  1.0000
  S   S301      1.0  0.84520  0.16538  0.86082  1.0000
  S   S302      1.0  0.80903  0.12721  0.86629  1.0000
  Fe  Fe150     1.0  0.83122  0.18072  0.89462  1.0000
  S   S303      1.0  0.85279  0.19226  0.92740  1.0000
  Fe  Fe151     1.0  0.82616  0.18045  0.83047  1.0000
  S   S304      1.0  0.84324  0.19302  0.79469  1.0000
  S   S305      1.0  0.79865  0.16820  0.90097  1.0000
  S   S306      1.0  0.79314  0.16778  0.83309  1.0000
  C   C2054     1.0  0.81531  0.03969  0.81471  1.0000
  C   C2055     1.0  0.71162  0.17167  0.93853  1.0000
  S   S307      1.0  0.88048  0.20333  0.60422  1.0000
  C   C2056     1.0  0.75826  0.99625  0.90027  1.0000
  Fe  Fe152     1.0  0.86257  0.22008  0.57605  1.0000
  S   S308      1.0  0.86036  0.21908  0.52894  1.0000
  Fe  Fe153     1.0  0.85324  0.20983  0.63570  1.0000
  S   S309      1.0  0.83502  0.19266  0.66297  1.0000
  H   H1642     1.0  0.95295  0.03038  0.97598  1.0000
  C   C2057     1.0  0.82262  0.98533  0.86796  1.0000
  C   C2058     1.0  0.83558  0.18046  0.97647  1.0000
  C   C2059     1.0  0.85083  0.19033  0.96386  1.0000
  C   C2060     1.0  0.72597  0.18333  0.93062  1.0000
  C   C2061     1.0  0.83096  0.19531  0.52009  1.0000
  H   H1643     1.0  0.86230  0.15935  0.93965  1.0000
  H   H1644     1.0  0.82424  0.17387  0.96389  1.0000
  C   C2062     1.0  0.80833  0.02522  0.82212  1.0000
  C   C2063     1.0  0.72188  0.99290  0.80231  1.0000
  C   C2064     1.0  0.83938  0.19287  0.75826  1.0000
  C   C2065     1.0  0.84902  0.20451  0.74264  1.0000
  C   C2066     1.0  0.84799  0.20451  0.71362  1.0000
  C   C2067     1.0  0.83673  0.19301  0.69970  1.0000
  C   C2068     1.0  0.82630  0.18161  0.71534  1.0000
  C   C2069     1.0  0.82765  0.18150  0.74449  1.0000
  H   H1645     1.0  0.67236  0.19205  0.97613  1.0000
  C   C2070     1.0  0.86232  0.16695  0.60586  1.0000
  H   H1646     1.0  0.81745  0.17268  0.70486  1.0000
  H   H1647     1.0  0.82004  0.17248  0.75622  1.0000
  H   H1648     1.0  0.90017  0.11712  0.92806  1.0000
  H   H1649     1.0  0.77459  0.03481  0.87748  1.0000
  C   C2071     1.0  0.78606  0.03598  0.86001  1.0000
  H   H1650     1.0  0.75805  0.20701  0.64818  1.0000
  C   C2072     1.0  0.68738  0.18975  0.96338  1.0000
  C   C2073     1.0  0.71611  0.22005  0.87488  1.0000
  C   C2074     1.0  0.72525  0.20540  0.86996  1.0000
  C   C2075     1.0  0.71049  0.19415  0.86109  1.0000
  H   H1651     1.0  0.94833  0.98810  0.63687  1.0000
  H   H1652     1.0  0.68108  0.16585  0.96092  1.0000
  C   C2076     1.0  0.99301  0.00007  0.67599  1.0000
  H   H1653     1.0  0.89693  0.19374  0.54811  1.0000
  H   H1654     1.0  0.77609  0.18847  0.79206  1.0000
  Fe  Fe154     1.0  0.90040  0.22303  0.62012  1.0000
  C   C2077     1.0  0.85880  0.08555  0.87819  1.0000
  C   C2078     1.0  0.83537  0.08377  0.87328  1.0000
  C   C2079     1.0  0.82057  0.09659  0.86964  1.0000
  C   C2080     1.0  0.82885  0.11145  0.87077  1.0000
  C   C2081     1.0  0.85231  0.11324  0.87579  1.0000
  C   C2082     1.0  0.86708  0.10041  0.87955  1.0000
  H   H1655     1.0  0.82862  0.07250  0.87258  1.0000
  H   H1656     1.0  0.80251  0.09498  0.86592  1.0000
  H   H1657     1.0  0.85908  0.12451  0.87678  1.0000
  H   H1658     1.0  0.88510  0.10201  0.88346  1.0000
  C   C2083     1.0  0.86833  0.99667  0.77108  1.0000
  C   C2084     1.0  0.88964  0.10287  0.97804  1.0000
  H   H1659     1.0  0.84703  0.16142  0.52878  1.0000
  C   C2085     1.0  0.72096  0.19824  0.93879  1.0000
  H   H1660     1.0  0.81631  0.16411  0.56347  1.0000
  C   C2086     1.0  0.87685  0.13770  0.99865  1.0000
  H   H1661     1.0  0.95994  0.22148  0.77959  1.0000
  C   C2087     1.0  0.99151  0.06639  0.78180  1.0000
  H   H1662     1.0  0.95980  0.18717  0.71444  1.0000
  C   C2088     1.0  0.85263  0.98599  0.51123  1.0000
  P   P66       1.0  0.86542  0.12989  0.96716  1.0000
  H   H1663     1.0  0.69254  0.21518  0.74331  1.0000
  C   C2089     1.0  0.97084  0.01607  0.89061  1.0000
  C   C2090     1.0  0.96762  0.03153  0.89586  1.0000
  H   H1664     1.0  0.85727  0.01011  0.73622  1.0000
  H   H1665     1.0  0.95058  0.03667  0.89508  1.0000
  C   C2091     1.0  0.79300  0.05046  0.85246  1.0000
  C   C2092     1.0  0.80773  0.05231  0.82992  1.0000
  H   H1666     1.0  0.80775  0.01596  0.90397  1.0000
  H   H1667     1.0  0.78718  0.06027  0.86425  1.0000
  H   H1668     1.0  0.81343  0.06350  0.82436  1.0000
  C   C2093     1.0  0.86348  0.99907  0.74291  1.0000
  C   C2094     1.0  0.95463  0.00870  0.95585  1.0000
  C   C2095     1.0  0.70160  0.20158  0.95526  1.0000
  C   C2096     1.0  0.83408  0.16439  0.56987  1.0000
  S   S310      1.0  0.87394  0.22843  0.65331  1.0000
  H   H1669     1.0  0.98958  0.01754  0.70739  1.0000
  H   H1670     1.0  0.79041  0.20117  0.93491  1.0000
  C   C2097     1.0  0.85165  0.16288  0.55017  1.0000
  C   C2098     1.0  0.76820  0.00158  0.94776  1.0000
  H   H1671     1.0  0.81457  0.01567  0.81006  1.0000
  H   H1672     1.0  0.85731  0.21365  0.75307  1.0000
  C   C2099     1.0  0.84533  0.98885  0.99267  1.0000
  C   C2100     1.0  0.89633  0.12876  0.92256  1.0000
  H   H1673     1.0  0.92763  0.00789  0.66421  1.0000
  H   H1674     1.0  0.97282  0.03633  0.82823  1.0000
  C   C2101     1.0  0.75285  0.20935  0.66930  1.0000
  C   C2102     1.0  0.92014  0.17435  0.54342  1.0000
  C   C2103     1.0  0.87886  0.07826  0.96111  1.0000
  C   C2104     1.0  0.95967  0.17872  0.55656  1.0000
  C   C2105     1.0  0.78787  0.14172  0.96268  1.0000
  C   C2106     1.0  0.91311  0.11753  0.55316  1.0000
  C   C2107     1.0  0.95370  0.19359  0.56399  1.0000
  H   H1675     1.0  0.73840  0.98937  0.93559  1.0000
  H   H1676     1.0  0.91210  0.15472  0.87460  1.0000
  C   C2108     1.0  0.79955  0.14343  0.98755  1.0000
  C   C2109     1.0  0.74046  0.21582  0.72393  1.0000
  H   H1677     1.0  0.95460  0.22142  0.83000  1.0000
  C   C2110     1.0  0.82307  0.13994  0.98901  1.0000
  C   C2111     1.0  0.75347  0.99520  0.92854  1.0000
  H   H1678     1.0  0.71536  0.16019  0.93167  1.0000
  C   C2112     1.0  0.98370  0.01769  0.98696  1.0000
  C   C2113     1.0  0.95754  0.01392  0.68747  1.0000
  H   H1679     1.0  0.90975  0.10985  0.57007  1.0000
  H   H1680     1.0  0.95464  0.99645  0.50662  1.0000
  C   C2114     1.0  0.73561  0.98131  0.81367  1.0000
  C   C2115     1.0  0.81873  0.18546  0.50301  1.0000
  H   H1681     1.0  0.69873  0.20265  0.50896  1.0000
  C   C2116     1.0  0.92043  0.21273  0.82840  1.0000
  C   C2117     1.0  0.96019  0.21109  0.72446  1.0000
  H   H1682     1.0  0.87989  0.16450  0.68665  1.0000
  H   H1683     1.0  0.82733  0.99214  0.99215  1.0000
  C   C2118     1.0  0.96743  0.02288  0.76549  1.0000
  C   C2119     1.0  0.94615  0.02971  0.77185  1.0000
  C   C2120     1.0  0.92808  0.02084  0.78092  1.0000
  C   C2121     1.0  0.93133  0.00520  0.78390  1.0000
  C   C2122     1.0  0.95274  0.99828  0.77786  1.0000
  C   C2123     1.0  0.97069  0.00723  0.76828  1.0000
  C   C2124     1.0  0.94584  0.00579  0.66746  1.0000
  H   H1684     1.0  0.98929  0.98265  0.64484  1.0000
  C   C2125     1.0  0.77777  0.22343  0.51681  1.0000
  H   H1685     1.0  0.83241  0.13012  0.92174  1.0000
  C   C2126     1.0  0.98659  0.04038  0.90194  1.0000
  H   H1686     1.0  0.98979  0.02652  0.00036  1.0000
  P   P67       1.0  0.69501  0.22061  0.96725  1.0000
  C   C2127     1.0  0.88271  0.98780  0.97103  1.0000
  C   C2128     1.0  0.90327  0.14992  0.89214  1.0000
  H   H1687     1.0  0.82116  0.98945  0.88891  1.0000
  C   C2129     1.0  0.69129  0.22545  0.75549  1.0000
  C   C2130     1.0  0.99669  0.00423  0.98312  1.0000
  C   C2131     1.0  0.98101  0.01113  0.69169  1.0000
  C   C2132     1.0  0.88715  0.15871  0.90685  1.0000
  H   H1688     1.0  0.88368  0.17036  0.90088  1.0000
  C   C2133     1.0  0.77480  0.21359  0.99912  1.0000
  C   C2134     1.0  0.98093  0.07581  0.86563  1.0000
  H   H1689     1.0  0.77403  0.21798  0.53629  1.0000
  C   C2135     1.0  0.91499  0.19699  0.71846  1.0000
  C   C2136     1.0  0.84441  0.20650  0.50838  1.0000
  H   H1690     1.0  0.94359  0.04183  0.76962  1.0000
  H   H1691     1.0  0.91138  0.02601  0.78541  1.0000
  H   H1692     1.0  0.91694  0.99854  0.79044  1.0000
  H   H1693     1.0  0.81798  0.22176  0.94009  1.0000
  H   H1694     1.0  0.98331  0.00939  0.83184  1.0000
  C   C2137     1.0  0.97403  0.22386  0.72581  1.0000
  C   C2138     1.0  0.85447  0.10031  0.95214  1.0000
  H   H1695     1.0  0.98413  0.05230  0.90620  1.0000
  C   C2139     1.0  0.90698  0.19804  0.69125  1.0000
  C   C2140     1.0  0.80568  0.21967  0.95646  1.0000
  C   C2141     1.0  0.87640  0.98231  0.77925  1.0000
  H   H1696     1.0  0.74078  0.18087  0.91758  1.0000
  H   H1697     1.0  0.79548  0.21873  0.73518  1.0000
  C   C2142     1.0  0.81089  0.98528  0.82004  1.0000
  H   H1698     1.0  0.94149  0.98692  0.83408  1.0000
  H   H1699     1.0  0.80012  0.98948  0.80341  1.0000
  H   H1700     1.0  0.86191  0.98929  0.70187  1.0000
  H   H1701     1.0  0.95035  0.05894  0.81481  1.0000
  H   H1702     1.0  0.94793  0.15753  0.54144  1.0000
  C   C2143     1.0  0.97672  0.06856  0.84040  1.0000
  C   C2144     1.0  0.94034  0.07582  0.87677  1.0000
  C   C2145     1.0  0.93601  0.06850  0.85187  1.0000
  H   H1703     1.0  0.88693  0.20391  0.82024  1.0000
  C   C2146     1.0  0.90776  0.13491  0.89990  1.0000
  H   H1704     1.0  0.73658  0.21842  0.74525  1.0000
  H   H1705     1.0  0.86633  0.16877  0.62743  1.0000
  H   H1706     1.0  0.88049  0.98027  0.80069  1.0000
  H   H1707     1.0  0.88779  0.18743  0.65911  1.0000
  C   C2147     1.0  0.87993  0.16549  0.58624  1.0000
  H   H1708     1.0  0.92651  0.21049  0.56669  1.0000
  H   H1709     1.0  0.76419  0.19762  0.73469  1.0000
  C   C2148     1.0  0.95751  0.99467  0.65199  1.0000
  C   C2149     1.0  0.76272  0.20095  0.69080  1.0000
  H   H1710     1.0  0.76471  0.00062  0.96968  1.0000
  C   C2150     1.0  0.79023  0.20796  0.95360  1.0000
  C   C2151     1.0  0.75467  0.98483  0.82967  1.0000
  H   H1711     1.0  0.89572  0.16183  0.73395  1.0000
  H   H1712     1.0  0.96705  0.08464  0.79091  1.0000
  H   H1713     1.0  0.98289  0.21111  0.65423  1.0000
  C   C2152     1.0  0.98533  0.21529  0.51821  1.0000
  H   H1714     1.0  0.98145  0.02967  0.75841  1.0000
  H   H1715     1.0  0.88258  0.06626  0.95832  1.0000
  H   H1716     1.0  0.93199  0.10077  0.52924  1.0000
  H   H1717     1.0  0.88638  0.15920  0.98066  1.0000
  H   H1718     1.0  0.92626  0.07851  0.89082  1.0000
  H   H1719     1.0  0.91857  0.06559  0.84673  1.0000
  H   H1720     1.0  0.89493  0.13616  0.57221  1.0000
  C   C2153     1.0  0.85903  0.08476  0.94960  1.0000
  C   C2154     1.0  0.87515  0.15246  0.92896  1.0000
  C   C2155     1.0  0.69233  0.17487  0.95493  1.0000
  C   C2156     1.0  0.82341  0.13365  0.94035  1.0000
  H   H1721     1.0  0.72191  0.22027  0.81302  1.0000
  S   S311      1.0  0.83342  0.22487  0.60590  1.0000
  C   C2157     1.0  0.78761  0.00914  0.93872  1.0000
  H   H1722     1.0  0.67557  0.18877  0.85078  1.0000
  H   H1723     1.0  0.96134  0.98686  0.93763  1.0000
  C   C2158     1.0  0.79977  0.13671  0.93918  1.0000
  C   C2159     1.0  0.89905  0.17189  0.72194  1.0000
  H   H1724     1.0  0.85583  0.21348  0.70209  1.0000
  H   H1725     1.0  0.82699  0.04103  0.79743  1.0000
  H   H1726     1.0  0.83010  0.19420  0.54230  1.0000
  H   H1727     1.0  0.96650  0.20092  0.57259  1.0000
  H   H1728     1.0  0.74673  0.99110  0.88582  1.0000
  H   H1729     1.0  0.67490  0.21435  0.78991  1.0000
  H   H1730     1.0  0.71655  0.01701  0.79815  1.0000
  C   C2160     1.0  0.79397  0.02320  0.84511  1.0000
  C   C2161     1.0  0.72716  0.00802  0.80702  1.0000
  H   H1731     1.0  0.75000  0.02338  0.82630  1.0000
  C   C2162     1.0  0.94297  0.16909  0.54639  1.0000
  C   C2163     1.0  0.86972  0.10952  0.96647  1.0000
  C   C2164     1.0  0.77776  0.00384  0.89101  1.0000
  C   C2165     1.0  0.69258  0.22349  0.87099  1.0000
  H   H1732     1.0  0.73639  0.19378  0.80883  1.0000
  C   C2166     1.0  0.99656  0.01753  0.82793  1.0000
  H   H1733     1.0  0.79076  0.13537  0.91984  1.0000
  C   C2167     1.0  0.80782  0.99071  0.84711  1.0000
  C   C2168     1.0  0.76023  0.00001  0.83428  1.0000
  H   H1734     1.0  0.90964  0.08225  0.98401  1.0000
  H   H1735     1.0  0.87742  0.20637  0.97103  1.0000
  C   C2169     1.0  0.89411  0.08730  0.97545  1.0000
  H   H1736     1.0  0.92002  0.12801  0.88826  1.0000
  C   C2170     1.0  0.74622  0.01159  0.82299  1.0000
  H   H1737     1.0  0.93861  0.01050  0.94487  1.0000
  H   H1738     1.0  0.71719  0.18280  0.85743  1.0000
  H   H1739     1.0  0.99542  0.99746  0.88804  1.0000
  H   H1740     1.0  0.79934  0.01386  0.95356  1.0000
  H   H1741     1.0  0.97325  0.07254  0.70535  1.0000
  C   C2171     1.0  0.86548  0.19876  0.98058  1.0000
  P   P68       1.0  0.78506  0.00445  0.85467  1.0000
  C   C2172     1.0  0.68114  0.22492  0.78173  1.0000
  H   H1742     1.0  0.77558  0.19216  0.68637  1.0000
  C   C2173     1.0  0.79234  0.01031  0.91050  1.0000
  C   C2174     1.0  0.96747  0.99531  0.95184  1.0000
  C   C2175     1.0  0.88528  0.15246  0.99920  1.0000
  C   C2176     1.0  0.83941  0.16654  0.59767  1.0000
  H   H1743     1.0  0.82584  0.16802  0.61291  1.0000
  C   C2177     1.0  0.67776  0.21225  0.86237  1.0000
  C   C2178     1.0  0.89024  0.17333  0.69527  1.0000
  P   P69       1.0  0.93003  0.21260  0.73352  1.0000
  H   H1744     1.0  0.80638  0.21956  0.68629  1.0000
  H   H1745     1.0  0.98721  0.00215  0.76288  1.0000
  H   H1746     1.0  0.83942  0.10503  0.94209  1.0000
  C   C2179     1.0  0.87474  0.16356  0.55816  1.0000
  C   C2180     1.0  0.75635  0.20409  0.71806  1.0000
  C   C2181     1.0  0.91443  0.18943  0.55031  1.0000
  H   H1747     1.0  0.89759  0.16605  0.59298  1.0000
  H   H1748     1.0  0.84758  0.07779  0.93777  1.0000
  C   C2182     1.0  0.83518  0.13492  0.96540  1.0000
  C   C2183     1.0  0.92631  0.21275  0.77071  1.0000
  H   H1749     1.0  0.72945  0.22734  0.65807  1.0000
  P   P70       1.0  0.89773  0.16175  0.53304  1.0000
  H   H1750     1.0  0.91821  0.21258  0.85063  1.0000
  C   C2184     1.0  0.89457  0.18629  0.67978  1.0000
  C   C2185     1.0  0.87998  0.13753  0.93741  1.0000
  H   H1751     1.0  0.91861  0.18215  0.75393  1.0000
  C   C2186     1.0  0.99293  0.00945  0.89190  1.0000
  C   C2187     1.0  0.68688  0.19758  0.85738  1.0000
  S   S312      1.0  0.93850  0.21881  0.63179  1.0000
  C   C2188     1.0  0.85940  0.99202  0.96975  1.0000
  H   H1752     1.0  0.92638  0.98950  0.73403  1.0000
  C   C2189     1.0  0.97838  0.07084  0.72664  1.0000
  C   C2190     1.0  0.96699  0.22287  0.62008  1.0000
  C   C2191     1.0  0.96277  0.01991  0.97332  1.0000
  C   C2192     1.0  0.90880  0.14246  0.53230  1.0000
  C   C2193     1.0  0.91176  0.18355  0.73334  1.0000
  C   C2194     1.0  0.74712  0.20301  0.80252  1.0000
  C   C2195     1.0  0.77547  0.22695  0.78764  1.0000
  C   C2196     1.0  0.90284  0.20786  0.81134  1.0000
  H   H1753     1.0  0.90205  0.10979  0.98835  1.0000
  H   H1754     1.0  0.96619  0.08490  0.90319  1.0000
  H   H1755     1.0  0.94833  0.02233  0.69983  1.0000
  C   C2197     1.0  0.95409  0.06480  0.83381  1.0000
  C   C2198     1.0  0.90471  0.13250  0.55428  1.0000
  C   C2199     1.0  0.76952  0.20001  0.79334  1.0000
  C   C2200     1.0  0.66443  0.22372  0.96337  1.0000
  H   H1756     1.0  0.89385  0.99013  0.95369  1.0000
  C   C2201     1.0  0.77479  0.20491  0.97493  1.0000
  C   C2202     1.0  0.98844  0.99306  0.96537  1.0000
  H   H1757     1.0  0.76295  0.19574  0.97274  1.0000
  H   H1758     1.0  0.97720  0.17460  0.55923  1.0000
  H   H1759     1.0  0.91007  0.20799  0.67890  1.0000
  H   H1760     1.0  0.72736  0.22883  0.88174  1.0000
  C   C2203     1.0  0.73012  0.22417  0.70244  1.0000
  C   C2204     1.0  0.97003  0.19719  0.71579  1.0000
  H   H1761     1.0  0.89185  0.20404  0.77000  1.0000
  H   H1762     1.0  0.80136  0.20940  0.78055  1.0000
  C   C2205     1.0  0.78375  0.21192  0.78647  1.0000
  C   C2206     1.0  0.94388  0.21768  0.78805  1.0000
  C   C2207     1.0  0.92154  0.13724  0.50934  1.0000
  C   C2208     1.0  0.93115  0.19898  0.56064  1.0000
  C   C2209     1.0  0.96278  0.07947  0.88365  1.0000
  H   H1763     1.0  0.95523  0.08821  0.74248  1.0000
  C   C2210     1.0  0.98090  0.99174  0.65636  1.0000
  C   C2211     1.0  0.97485  0.07753  0.77503  1.0000
  C   C2212     1.0  0.92565  0.11240  0.53017  1.0000
  H   H1764     1.0  0.91776  0.97995  0.68771  1.0000
  C   C2213     1.0  0.94092  0.21767  0.81675  1.0000
  H   H1765     1.0  0.83574  0.22820  0.86506  1.0000
  H   H1766     1.0  0.73208  0.20704  0.93169  1.0000
  C   C2214     1.0  0.98593  0.21746  0.63556  1.0000
  C   C2215     1.0  0.96821  0.07966  0.74756  1.0000
  H   H1767     1.0  0.76964  0.14434  0.96151  1.0000
  C   C2216     1.0  0.90570  0.20795  0.78269  1.0000
  H   H1768     1.0  0.91850  0.01030  0.51756  1.0000
  H   H1769     1.0  0.97666  0.22322  0.53208  1.0000
  C   C2217     1.0  0.80581  0.22834  0.98065  1.0000
  C   C2218     1.0  0.86614  0.98727  0.72330  1.0000
  H   H1770     1.0  0.70719  0.99017  0.78977  1.0000
  C   C2219     1.0  0.99066  0.03293  0.82594  1.0000
  H   H1771     1.0  0.83470  0.98849  0.51554  1.0000
  C   C2220     1.0  0.99329  0.19614  0.70844  1.0000
  C   C2221     1.0  0.73893  0.21796  0.80472  1.0000
  H   H1772     1.0  0.74325  0.22790  0.96116  1.0000
  C   C2222     1.0  0.89164  0.98032  0.99465  1.0000
  C   C2223     1.0  0.73656  0.22085  0.67504  1.0000
  C   C2224     1.0  0.99534  0.05997  0.73315  1.0000
  C   C2225     1.0  0.92989  0.12227  0.50829  1.0000
  C   C2226     1.0  0.79309  0.23454  0.22518  1.0000
  C   C2227     1.0  0.68792  0.26559  0.45921  1.0000
  Fe  Fe155     1.0  0.70884  0.29100  0.13295  1.0000
  S   S313      1.0  0.68630  0.27190  0.12156  1.0000
  S   S314      1.0  0.74410  0.28385  0.15049  1.0000
  C   C2228     1.0  0.83755  0.25221  0.32089  1.0000
  C   C2229     1.0  0.83730  0.25597  0.20507  1.0000
  S   S315      1.0  0.69929  0.30528  0.09580  1.0000
  S   S316      1.0  0.68175  0.30267  0.16011  1.0000
  C   C2230     1.0  0.81393  0.25267  0.27047  1.0000
  S   S317      1.0  0.84047  0.25384  0.11564  1.0000
  C   C2231     1.0  0.79649  0.23104  0.19717  1.0000
  C   C2232     1.0  0.86166  0.23780  0.03719  1.0000
  C   C2233     1.0  0.70558  0.24647  0.42970  1.0000
  C   C2234     1.0  0.69405  0.25830  0.33948  1.0000
  H   H1773     1.0  0.71038  0.35712  0.20594  1.0000
  C   C2235     1.0  0.76815  0.27447  0.13437  1.0000
  C   C2236     1.0  0.78568  0.28312  0.12310  1.0000
  C   C2237     1.0  0.80726  0.27645  0.11660  1.0000
  C   C2238     1.0  0.81194  0.26102  0.12150  1.0000
  C   C2239     1.0  0.79417  0.25212  0.13164  1.0000
  C   C2240     1.0  0.77250  0.25885  0.13841  1.0000
  H   H1774     1.0  0.78299  0.29521  0.12067  1.0000
  H   H1775     1.0  0.82076  0.28346  0.10873  1.0000
  H   H1776     1.0  0.79739  0.24016  0.13492  1.0000
  H   H1777     1.0  0.75943  0.25205  0.14775  1.0000
  H   H1778     1.0  0.66972  0.28333  0.29445  1.0000
  C   C2241     1.0  0.83565  0.23891  0.30555  1.0000
  H   H1779     1.0  0.70925  0.24977  0.05224  1.0000
  C   C2242     1.0  0.72100  0.25100  0.47522  1.0000
  C   C2243     1.0  0.66744  0.38104  0.14535  1.0000
  H   H1780     1.0  0.88280  0.25717  0.04300  1.0000
  H   H1781     1.0  0.76918  0.25891  0.28697  1.0000
  H   H1782     1.0  0.71712  0.24980  0.16206  1.0000
  C   C2244     1.0  0.69736  0.24594  0.32176  1.0000
  H   H1783     1.0  0.76035  0.26010  0.35784  1.0000
  C   C2245     1.0  0.80423  0.23666  0.48737  1.0000
  H   H1784     1.0  0.77929  0.25943  0.07516  1.0000
  H   H1785     1.0  0.68394  0.37514  0.23032  1.0000
  H   H1786     1.0  0.74162  0.25541  0.40233  1.0000
  H   H1787     1.0  0.66761  0.24531  0.22707  1.0000
  C   C2246     1.0  0.82794  0.26579  0.31093  1.0000
  C   C2247     1.0  0.68853  0.25760  0.43435  1.0000
  C   C2248     1.0  0.75962  0.23397  0.40984  1.0000
  H   H1788     1.0  0.66802  0.46358  0.30869  1.0000
  H   H1789     1.0  0.68425  0.35889  0.14378  1.0000
  H   H1790     1.0  0.72649  0.28509  0.03361  1.0000
  H   H1791     1.0  0.82168  0.27686  0.43722  1.0000
  C   C2249     1.0  0.68442  0.27185  0.32951  1.0000
  H   H1792     1.0  0.67572  0.26004  0.41867  1.0000
  H   H1793     1.0  0.79596  0.28381  0.21219  1.0000
  C   C2250     1.0  0.78167  0.23985  0.35925  1.0000
  H   H1794     1.0  0.67499  0.27445  0.46257  1.0000
  C   C2251     1.0  0.76493  0.25000  0.36948  1.0000
  C   C2252     1.0  0.78602  0.27834  0.49334  1.0000
  H   H1795     1.0  0.84972  0.27524  0.04700  1.0000
  C   C2253     1.0  0.71003  0.23865  0.04273  1.0000
  C   C2254     1.0  0.78502  0.27440  0.43578  1.0000
  H   H1796     1.0  0.86626  0.25716  0.17733  1.0000
  C   C2255     1.0  0.82493  0.28470  0.18511  1.0000
  C   C2256     1.0  0.77068  0.25123  0.03444  1.0000
  H   H1797     1.0  0.73333  0.24876  0.49142  1.0000
  C   C2257     1.0  0.86544  0.25316  0.04129  1.0000
  H   H1798     1.0  0.70429  0.47579  0.35274  1.0000
  C   C2258     1.0  0.72231  0.24324  0.44985  1.0000
  C   C2259     1.0  0.72951  0.23874  0.19900  1.0000
  C   C2260     1.0  0.68110  0.26061  0.28413  1.0000
  H   H1799     1.0  0.81994  0.29571  0.17692  1.0000
  H   H1800     1.0  0.75063  0.28044  0.07489  1.0000
  C   C2261     1.0  0.76841  0.26099  0.05729  1.0000
  H   H1801     1.0  0.80908  0.27667  0.27810  1.0000
  C   C2262     1.0  0.85107  0.26299  0.18542  1.0000
  C   C2263     1.0  0.75412  0.24718  0.39477  1.0000
  H   H1802     1.0  0.69805  0.25713  0.36121  1.0000
  P   P71       1.0  0.79855  0.25326  0.23819  1.0000
  C   C2264     1.0  0.81688  0.26312  0.21439  1.0000
  C   C2265     1.0  0.77065  0.26235  0.24268  1.0000
  C   C2266     1.0  0.75826  0.26760  0.21966  1.0000
  C   C2267     1.0  0.73650  0.27441  0.22304  1.0000
  C   C2268     1.0  0.72673  0.27575  0.24930  1.0000
  C   C2269     1.0  0.73861  0.27015  0.27227  1.0000
  C   C2270     1.0  0.76044  0.26339  0.26899  1.0000
  C   C2271     1.0  0.80588  0.27659  0.44910  1.0000
  C   C2272     1.0  0.81114  0.27776  0.20486  1.0000
  C   C2273     1.0  0.66893  0.36544  0.13878  1.0000
  C   C2274     1.0  0.84681  0.26334  0.04350  1.0000
  H   H1803     1.0  0.69493  0.33466  0.18238  1.0000
  H   H1804     1.0  0.74003  0.23580  0.29591  1.0000
  H   H1805     1.0  0.68169  0.37044  0.06557  1.0000
  C   C2275     1.0  0.82416  0.23917  0.28027  1.0000
  C   C2276     1.0  0.75247  0.27308  0.05703  1.0000
  H   H1806     1.0  0.85501  0.28240  0.15918  1.0000
  C   C2277     1.0  0.67793  0.27298  0.30189  1.0000
  H   H1807     1.0  0.70587  0.24058  0.41010  1.0000
  C   C2278     1.0  0.70194  0.23678  0.23666  1.0000
  H   H1808     1.0  0.76534  0.26641  0.19899  1.0000
  H   H1809     1.0  0.72711  0.27854  0.20517  1.0000
  H   H1810     1.0  0.70985  0.28106  0.25171  1.0000
  H   H1811     1.0  0.73084  0.27104  0.29259  1.0000
  C   C2279     1.0  0.80638  0.27876  0.47770  1.0000
  C   C2280     1.0  0.70369  0.23697  0.01513  1.0000
  H   H1812     1.0  0.78464  0.27292  0.41358  1.0000
  C   C2281     1.0  0.69122  0.24702  0.29380  1.0000
  C   C2282     1.0  0.84476  0.27727  0.17522  1.0000
  C   C2283     1.0  0.82439  0.25816  0.04166  1.0000
  Fe  Fe156     1.0  0.67541  0.28643  0.08549  1.0000
  H   H1813     1.0  0.82107  0.24127  0.48401  1.0000
  H   H1814     1.0  0.82981  0.27617  0.32254  1.0000
  H   H1815     1.0  0.84223  0.24475  0.21231  1.0000
  C   C2284     1.0  0.74133  0.26630  0.01070  1.0000
  H   H1816     1.0  0.74832  0.27315  0.44078  1.0000
  H   H1817     1.0  0.74651  0.47344  0.35407  1.0000
  H   H1818     1.0  0.87614  0.22995  0.03521  1.0000
  C   C2285     1.0  0.76462  0.27441  0.45106  1.0000
  H   H1819     1.0  0.80329  0.23928  0.18307  1.0000
  C   C2286     1.0  0.83928  0.23250  0.03619  1.0000
  P   P72       1.0  0.79157  0.23564  0.03457  1.0000
  H   H1820     1.0  0.70396  0.23540  0.33023  1.0000
  C   C2287     1.0  0.69062  0.24826  0.19298  1.0000
  C   C2288     1.0  0.82038  0.24262  0.03836  1.0000
  H   H1821     1.0  0.66570  0.45445  0.07847  1.0000
  C   C2289     1.0  0.76512  0.27637  0.47969  1.0000
  C   C2290     1.0  0.73894  0.27574  0.03374  1.0000
  Fe  Fe157     1.0  0.66996  0.31519  0.12162  1.0000
  H   H1822     1.0  0.81051  0.26643  0.04289  1.0000
  C   C2291     1.0  0.81623  0.26604  0.28577  1.0000
  S   S318      1.0  0.67902  0.27639  0.04209  1.0000
  H   H1823     1.0  0.84677  0.25199  0.34028  1.0000
  C   C2292     1.0  0.66433  0.46992  0.29004  1.0000
  H   H1824     1.0  0.68115  0.28129  0.34340  1.0000
  C   C2293     1.0  0.70381  0.26208  0.47986  1.0000
  H   H1825     1.0  0.67525  0.26175  0.26311  1.0000
  C   C2294     1.0  0.71284  0.24593  0.18266  1.0000
  H   H1826     1.0  0.79259  0.24193  0.44658  1.0000
  C   C2295     1.0  0.69214  0.35505  0.20670  1.0000
  H   H1827     1.0  0.67766  0.25371  0.18016  1.0000
  C   C2296     1.0  0.66438  0.37116  0.05752  1.0000
  H   H1828     1.0  0.68161  0.38624  0.15578  1.0000
  C   C2297     1.0  0.68509  0.24360  0.21974  1.0000
  P   P73       1.0  0.69486  0.23072  0.27134  1.0000
  C   C2298     1.0  0.78809  0.23686  0.46611  1.0000
  H   H1829     1.0  0.78949  0.30953  0.49604  1.0000
  H   H1830     1.0  0.82263  0.28111  0.48732  1.0000
  H   H1831     1.0  0.74910  0.27678  0.49100  1.0000
  C   C2299     1.0  0.75713  0.25410  0.01104  1.0000
  C   C2300     1.0  0.68345  0.34237  0.19351  1.0000
  Fe  Fe158     1.0  0.85642  0.23017  0.12254  1.0000
  H   H1832     1.0  0.76426  0.23678  0.08709  1.0000
  H   H1833     1.0  0.74673  0.23689  0.19096  1.0000
  C   C2301     1.0  0.67724  0.36520  0.22040  1.0000
  H   H1834     1.0  0.99571  0.23416  0.08675  1.0000
  C   C2302     1.0  0.72415  0.23429  0.22593  1.0000
  H   H1835     1.0  0.69821  0.24690  0.00362  1.0000
  H   H1836     1.0  0.79009  0.24202  0.33969  1.0000
  H   H1837     1.0  0.70273  0.26804  0.49946  1.0000
  P   P74       1.0  0.74580  0.22989  0.44261  1.0000
  C   C2303     1.0  0.76664  0.23029  0.47007  1.0000
  H   H1838     1.0  0.68938  0.22964  0.49874  1.0000
  H   H1839     1.0  0.66395  0.39529  0.05518  1.0000
  C   C2304     1.0  0.72513  0.25746  0.70362  1.0000
  C   C2305     1.0  0.72881  0.26175  0.56079  1.0000
  Fe  Fe159     1.0  0.71004  0.30287  0.62289  1.0000
  S   S319      1.0  0.69221  0.28085  0.62182  1.0000
  S   S320      1.0  0.74833  0.30519  0.63075  1.0000
  H   H1840     1.0  0.76340  0.24734  0.93456  1.0000
  H   H1841     1.0  0.84430  0.24459  0.76769  1.0000
  S   S321      1.0  0.69172  0.31232  0.58532  1.0000
  S   S322      1.0  0.68506  0.31370  0.65343  1.0000
  Fe  Fe160     1.0  0.85561  0.24316  0.62208  1.0000
  S   S323      1.0  0.84262  0.26660  0.63519  1.0000
  H   H1842     1.0  0.75924  0.24726  0.69839  1.0000
  C   C2306     1.0  0.76720  0.26900  0.54702  1.0000
  C   C2307     1.0  0.82216  0.29060  0.56413  1.0000
  H   H1843     1.0  0.86188  0.25661  0.54256  1.0000
  H   H1844     1.0  0.73716  0.28309  0.76341  1.0000
  C   C2308     1.0  0.77338  0.29318  0.63107  1.0000
  C   C2309     1.0  0.77393  0.27775  0.62370  1.0000
  C   C2310     1.0  0.79496  0.26919  0.62459  1.0000
  C   C2311     1.0  0.81533  0.27607  0.63293  1.0000
  C   C2312     1.0  0.81440  0.29135  0.64040  1.0000
  C   C2313     1.0  0.79378  0.29980  0.63932  1.0000
  H   H1845     1.0  0.75825  0.27248  0.61739  1.0000
  H   H1846     1.0  0.79540  0.25734  0.61902  1.0000
  H   H1847     1.0  0.82988  0.29681  0.64694  1.0000
  H   H1848     1.0  0.79366  0.31165  0.64505  1.0000
  C   C2314     1.0  0.81068  0.25566  0.73132  1.0000
  H   H1849     1.0  0.71315  0.29527  0.69659  1.0000
  C   C2315     1.0  0.69704  0.24538  0.93112  1.0000
  H   H1850     1.0  0.68485  0.26197  0.79964  1.0000
  C   C2316     1.0  0.92678  0.23674  0.69623  1.0000
  H   H1851     1.0  0.74119  0.26589  0.90607  1.0000
  H   H1852     1.0  0.87854  0.24035  0.79662  1.0000
  Fe  Fe161     1.0  0.66597  0.29208  0.64970  1.0000
  H   H1853     1.0  0.75669  0.25852  0.75358  1.0000
  H   H1854     1.0  0.75298  0.34287  0.54485  1.0000
  H   H1855     1.0  0.74938  0.29856  0.80323  1.0000
  C   C2317     1.0  0.81457  0.28021  0.54445  1.0000
  H   H1856     1.0  0.77499  0.33578  0.50257  1.0000
  H   H1857     1.0  0.92345  0.25456  0.66613  1.0000
  H   H1858     1.0  0.68146  0.39059  0.64220  1.0000
  H   H1859     1.0  0.88866  0.23063  0.74832  1.0000
  H   H1860     1.0  0.81109  0.29983  0.57127  1.0000
  C   C2318     1.0  0.84407  0.28887  0.57554  1.0000
  C   C2319     1.0  0.72319  0.28478  0.69749  1.0000
  H   H1861     1.0  0.66528  0.30250  0.71789  1.0000
  H   H1862     1.0  0.77778  0.27142  0.68816  1.0000
  H   H1863     1.0  0.76023  0.29737  0.57470  1.0000
  C   C2320     1.0  0.74682  0.28486  0.69279  1.0000
  C   C2321     1.0  0.75523  0.32047  0.56221  1.0000
  S   S324      1.0  0.66523  0.27334  0.55230  1.0000
  H   H1864     1.0  0.81226  0.26582  0.74362  1.0000
  H   H1865     1.0  0.73069  0.26837  0.99273  1.0000
  H   H1866     1.0  0.82091  0.24310  0.66585  1.0000
  P   P75       1.0  0.78607  0.28212  0.53006  1.0000
  C   C2322     1.0  0.74485  0.24689  0.93373  1.0000
  H   H1867     1.0  0.71928  0.35952  0.70316  1.0000
  H   H1868     1.0  0.78155  0.28948  0.83284  1.0000
  H   H1869     1.0  0.70269  0.26314  0.75382  1.0000
  C   C2323     1.0  0.85093  0.26623  0.54829  1.0000
  H   H1870     1.0  0.87005  0.25321  0.72741  1.0000
  H   H1871     1.0  0.80145  0.26511  0.82295  1.0000
  H   H1872     1.0  0.72659  0.24153  0.58527  1.0000
  C   C2324     1.0  0.81563  0.24294  0.68732  1.0000
  C   C2325     1.0  0.68968  0.24516  0.65864  1.0000
  H   H1873     1.0  0.76879  0.23654  0.58526  1.0000
  C   C2326     1.0  0.77525  0.30133  0.53450  1.0000
  C   C2327     1.0  0.75961  0.27128  0.69291  1.0000
  H   H1874     1.0  0.88733  0.26529  0.68636  1.0000
  C   C2328     1.0  0.68698  0.25172  0.78742  1.0000
  H   H1875     1.0  0.81809  0.23727  0.98248  1.0000
  C   C2329     1.0  0.75930  0.33133  0.54195  1.0000
  C   C2330     1.0  0.91621  0.24960  0.68459  1.0000
  C   C2331     1.0  0.76160  0.24624  0.57432  1.0000
  C   C2332     1.0  0.73237  0.25730  0.91767  1.0000
  C   C2333     1.0  0.81794  0.23441  0.82767  1.0000
  C   C2334     1.0  0.68677  0.23972  0.68568  1.0000
  C   C2335     1.0  0.73791  0.24904  0.57437  1.0000
  H   H1876     1.0  0.69860  0.36872  0.74510  1.0000
  H   H1877     1.0  0.84961  0.29664  0.59133  1.0000
  C   C2336     1.0  0.80219  0.24236  0.74311  1.0000
  Fe  Fe162     1.0  0.66535  0.32167  0.61589  1.0000
  P   P76       1.0  0.79464  0.24210  0.77942  1.0000
  C   C2337     1.0  0.89588  0.25561  0.69598  1.0000
  H   H1878     1.0  0.79447  0.25385  0.56163  1.0000
  C   C2338     1.0  0.84208  0.24125  0.78896  1.0000
  C   C2339     1.0  0.74889  0.25760  0.69837  1.0000
  C   C2340     1.0  0.68947  0.36267  0.72930  1.0000
  H   H1879     1.0  0.71049  0.26408  0.56131  1.0000
  H   H1880     1.0  0.75513  0.29543  0.68829  1.0000
  S   S325      1.0  0.88385  0.23953  0.59055  1.0000
  C   C2341     1.0  0.77165  0.32730  0.51813  1.0000
  H   H1881     1.0  0.69820  0.34622  0.66652  1.0000
  C   C2342     1.0  0.76331  0.30556  0.55862  1.0000
  C   C2343     1.0  0.68925  0.34999  0.68505  1.0000
  C   C2344     1.0  0.78059  0.26005  0.78732  1.0000
  C   C2345     1.0  0.76239  0.26529  0.77069  1.0000
  C   C2346     1.0  0.75121  0.27913  0.77636  1.0000
  C   C2347     1.0  0.75811  0.28784  0.79877  1.0000
  C   C2348     1.0  0.77622  0.28271  0.81546  1.0000
  C   C2349     1.0  0.78747  0.26886  0.80978  1.0000
  H   H1882     1.0  0.82424  0.26611  0.69454  1.0000
  C   C2350     1.0  0.70112  0.35752  0.70569  1.0000
  H   H1883     1.0  0.67080  0.23769  0.81782  1.0000
  C   C2351     1.0  0.81752  0.25589  0.70360  1.0000
  H   H1884     1.0  0.96684  0.23471  0.73237  1.0000
  C   C2352     1.0  0.71239  0.27113  0.70262  1.0000
  H   H1885     1.0  0.69403  0.27121  0.70574  1.0000
  H   H1886     1.0  0.74588  0.32362  0.58085  1.0000
  C   C2353     1.0  0.66528  0.23417  0.69351  1.0000
  C   C2354     1.0  0.74331  0.27169  0.54716  1.0000
  C   C2355     1.0  0.70847  0.25658  0.91646  1.0000
  H   H1887     1.0  0.67854  0.24508  0.92964  1.0000
  C   C2356     1.0  0.77619  0.25615  0.56074  1.0000
  H   H1888     1.0  0.87437  0.23218  0.84530  1.0000
  C   C2357     1.0  0.77974  0.31238  0.51447  1.0000
  C   C2358     1.0  0.89675  0.23595  0.73089  1.0000
  H   H1889     1.0  0.68086  0.36315  0.63083  1.0000
  C   C2359     1.0  0.67891  0.23807  0.79762  1.0000
  C   C2360     1.0  0.67153  0.24500  0.63985  1.0000
  C   C2361     1.0  0.88612  0.24877  0.71909  1.0000
  C   C2362     1.0  0.66572  0.27203  0.98838  1.0000
  H   H1890     1.0  0.68588  0.23482  0.87479  1.0000
  C   C2363     1.0  0.69708  0.25231  0.76118  1.0000
  C   C2364     1.0  0.79902  0.23004  0.51275  1.0000
  H   H1891     1.0  0.70581  0.24989  0.65219  1.0000
  C   C2365     1.0  0.82906  0.26794  0.53684  1.0000
  C   C2366     1.0  0.85843  0.27670  0.56766  1.0000
  C   C2367     1.0  0.82009  0.23910  0.80008  1.0000
  P   P77       1.0  0.71052  0.23995  0.70977  1.0000
  H   H1892     1.0  0.74621  0.24133  0.79971  1.0000
  H   H1893     1.0  0.69871  0.26463  0.90401  1.0000
  C   C2368     1.0  0.86159  0.23883  0.80529  1.0000
  H   H1894     1.0  0.87511  0.27515  0.57723  1.0000
  C   C2369     1.0  0.66533  0.37001  0.62920  1.0000
  H   H1895     1.0  0.73581  0.28164  0.53732  1.0000
  H   H1896     1.0  0.68372  0.26970  0.98433  1.0000
  C   C2370     1.0  0.75295  0.22991  0.79721  1.0000
  C   C2371     1.0  0.69923  0.23919  0.74482  1.0000
  H   H1897     1.0  0.67374  0.24949  0.61920  1.0000
  C   C2372     1.0  0.97134  0.23106  0.59593  1.0000
  H   H1898     1.0  0.75875  0.24699  0.99302  1.0000
  C   C2373     1.0  0.83748  0.23203  0.84391  1.0000
  C   C2374     1.0  0.80729  0.22969  0.69883  1.0000
  H   H1899     1.0  0.95711  0.23538  0.58377  1.0000
  H   H1900     1.0  0.82336  0.25953  0.52240  1.0000
  Fe  Fe163     1.0  0.67184  0.29071  0.58633  1.0000
  C   C2375     1.0  0.66572  0.34759  0.68792  1.0000
  C   C2376     1.0  0.91727  0.22987  0.71965  1.0000
  C   C2377     1.0  0.73342  0.23580  0.94865  1.0000
  H   H1901     1.0  0.94198  0.23195  0.68629  1.0000
  C   C2378     1.0  0.70947  0.23482  0.94724  1.0000
  C   C2379     1.0  0.99422  0.23375  0.58753  1.0000
  C   C2380     1.0  0.85927  0.23424  0.83274  1.0000
  C   C2381     1.0  0.66596  0.36022  0.73231  1.0000
  H   H1902     1.0  0.80119  0.23238  0.83658  1.0000
  C   C2382     1.0  0.66565  0.38566  0.63543  1.0000
  H   H1903     1.0  0.81170  0.22971  0.52908  1.0000
  C   C2383     1.0  0.80095  0.22931  0.72669  1.0000
  Fe  Fe164     1.0  0.69442  0.67996  0.38139  1.0000
  H   H1904     1.0  0.71154  0.68162  0.46225  1.0000
  S   S326      1.0  0.72747  0.68949  0.39914  1.0000
  H   H1905     1.0  0.82249  0.72356  0.24129  1.0000
  P   P78       1.0  0.67283  0.49573  0.32104  1.0000
  H   H1906     1.0  0.79751  0.65708  0.32174  1.0000
  C   C2384     1.0  0.70136  0.70608  0.12068  1.0000
  S   S327      1.0  0.68719  0.66593  0.34370  1.0000
  H   H1907     1.0  0.80020  0.71641  0.40286  1.0000
  C   C2385     1.0  0.79727  0.66645  0.30731  1.0000
  C   C2386     1.0  0.76755  0.69247  0.49332  1.0000
  C   C2387     1.0  0.74117  0.50140  0.30606  1.0000
  H   H1908     1.0  0.69341  0.52411  0.33980  1.0000
  C   C2388     1.0  0.68077  0.71610  0.49179  1.0000
  H   H1909     1.0  0.67212  0.67939  0.15595  1.0000
  S   S328      1.0  0.66961  0.62572  0.37773  1.0000
  C   C2389     1.0  0.72075  0.66473  0.21536  1.0000
  H   H1910     1.0  0.67091  0.67653  0.00283  1.0000
  H   H1911     1.0  0.67210  0.62554  0.02880  1.0000
  C   C2390     1.0  0.75150  0.69819  0.38359  1.0000
  C   C2391     1.0  0.76782  0.70494  0.40066  1.0000
  C   C2392     1.0  0.78757  0.71156  0.38940  1.0000
  C   C2393     1.0  0.79131  0.71140  0.36085  1.0000
  C   C2394     1.0  0.77472  0.70492  0.34375  1.0000
  C   C2395     1.0  0.75491  0.69838  0.35501  1.0000
  H   H1912     1.0  0.76536  0.70483  0.42279  1.0000
  S   S329      1.0  0.67482  0.66464  0.40966  1.0000
  C   C2396     1.0  0.79527  0.61105  0.23879  1.0000
  H   H1913     1.0  0.74238  0.69338  0.34167  1.0000
  H   H1914     1.0  0.82558  0.69897  0.29483  1.0000
  H   H1915     1.0  0.70720  0.70860  0.09994  1.0000
  C   C2397     1.0  0.77155  0.61350  0.23691  1.0000
  H   H1916     1.0  0.67892  0.55063  0.33996  1.0000
  H   H1917     1.0  0.67637  0.69791  0.19326  1.0000
  C   C2398     1.0  0.69421  0.70982  0.24332  1.0000
  C   C2399     1.0  0.68418  0.70013  0.17344  1.0000
  H   H1918     1.0  0.74264  0.62769  0.24834  1.0000
  C   C2400     1.0  0.69551  0.71372  0.16851  1.0000
  H   H1919     1.0  0.70220  0.65468  0.46179  1.0000
  H   H1920     1.0  0.76907  0.68057  0.25095  1.0000
  C   C2401     1.0  0.67675  0.52676  0.33102  1.0000
  P   P79       1.0  0.76049  0.65236  0.28179  1.0000
  C   C2402     1.0  0.71540  0.66245  0.27257  1.0000
  H   H1921     1.0  0.80880  0.64117  0.27837  1.0000
  C   C2403     1.0  0.73934  0.66000  0.23175  1.0000
  C   C2404     1.0  0.72540  0.70461  0.27509  1.0000
  C   C2405     1.0  0.67008  0.72196  0.44468  1.0000
  H   H1922     1.0  0.76125  0.60570  0.22533  1.0000
  C   C2406     1.0  0.70611  0.66012  0.48121  1.0000
  H   H1923     1.0  0.72515  0.70868  0.44735  1.0000
  C   C2407     1.0  0.76107  0.62602  0.24997  1.0000
  H   H1924     1.0  0.69107  0.69674  0.28061  1.0000
  H   H1925     1.0  0.70923  0.51095  0.29131  1.0000
  C   C2408     1.0  0.78085  0.72062  0.47323  1.0000
  C   C2409     1.0  0.73169  0.71985  0.23435  1.0000
  C   C2410     1.0  0.74029  0.65178  0.36316  1.0000
  H   H1926     1.0  0.82693  0.61917  0.25527  1.0000
  C   C2411     1.0  0.70853  0.71259  0.45491  1.0000
  C   C2412     1.0  0.69045  0.69246  0.12593  1.0000
  C   C2413     1.0  0.79618  0.70823  0.47210  1.0000
  C   C2414     1.0  0.70859  0.71851  0.22666  1.0000
  H   H1927     1.0  0.68493  0.67168  0.21497  1.0000
  C   C2415     1.0  0.81319  0.67790  0.31049  1.0000
  C   C2416     1.0  0.78132  0.67953  0.26755  1.0000
  H   H1928     1.0  0.97377  0.72624  0.38721  1.0000
  C   C2417     1.0  0.72922  0.63800  0.36535  1.0000
  C   C2418     1.0  0.72806  0.62846  0.34245  1.0000
  C   C2419     1.0  0.78109  0.66720  0.28587  1.0000
  C   C2420     1.0  0.69683  0.66693  0.25614  1.0000
  H   H1929     1.0  0.75767  0.71444  0.26468  1.0000
  C   C2421     1.0  0.74949  0.64640  0.31501  1.0000
  C   C2422     1.0  0.70252  0.70306  0.26751  1.0000
  H   H1930     1.0  0.72277  0.66568  0.19318  1.0000
  H   H1931     1.0  0.81310  0.70949  0.46307  1.0000
  H   H1932     1.0  0.73668  0.62513  0.29987  1.0000
  H   H1933     1.0  0.68044  0.66964  0.26575  1.0000
  C   C2423     1.0  0.70371  0.71674  0.14178  1.0000
  H   H1934     1.0  0.69620  0.71752  0.41396  1.0000
  H   H1935     1.0  0.80338  0.60135  0.22866  1.0000
  C   C2424     1.0  0.68174  0.68955  0.15226  1.0000
  C   C2425     1.0  0.81339  0.69003  0.29203  1.0000
  C   C2426     1.0  0.73820  0.63259  0.31741  1.0000
  C   C2427     1.0  0.79750  0.69081  0.27056  1.0000
  H   H1936     1.0  0.75570  0.65726  0.22200  1.0000
  H   H1937     1.0  0.72095  0.63488  0.38456  1.0000
  C   C2428     1.0  0.74997  0.65612  0.33799  1.0000
  H   H1938     1.0  0.82521  0.67754  0.32752  1.0000
  C   C2429     1.0  0.80853  0.62109  0.25379  1.0000
  C   C2430     1.0  0.73677  0.65884  0.26055  1.0000
  H   H1939     1.0  0.75745  0.66716  0.33660  1.0000
  H   H1940     1.0  0.79756  0.70025  0.25638  1.0000
  H   H1941     1.0  0.77724  0.70489  0.32164  1.0000
  H   H1942     1.0  0.71296  0.66173  0.29462  1.0000
  C   C2431     1.0  0.66727  0.63088  0.00948  1.0000
  H   H1943     1.0  0.71879  0.61800  0.34408  1.0000
  C   C2432     1.0  0.79811  0.63361  0.26690  1.0000
  C   C2433     1.0  0.73999  0.71303  0.25853  1.0000
  C   C2434     1.0  0.77427  0.63621  0.26504  1.0000
  H   H1944     1.0  0.73172  0.69947  0.29396  1.0000
  H   H1945     1.0  0.68777  0.68451  0.10925  1.0000
  H   H1946     1.0  0.74076  0.65933  0.38078  1.0000
  C   C2435     1.0  0.69945  0.66813  0.22757  1.0000
  Fe  Fe165     1.0  0.66509  0.65153  0.37166  1.0000
  C   C2436     1.0  0.73833  0.48174  0.34061  1.0000
  C   C2437     1.0  0.69211  0.71762  0.43581  1.0000
  H   H1947     1.0  0.80142  0.68454  0.48109  1.0000
  C   C2438     1.0  0.75198  0.70486  0.49435  1.0000
  H   H1948     1.0  0.75154  0.50834  0.29272  1.0000
  S   S330      1.0  0.66398  0.69553  0.37513  1.0000
  C   C2439     1.0  0.66857  0.54180  0.33131  1.0000
  C   C2440     1.0  0.70303  0.71174  0.48314  1.0000
  C   C2441     1.0  0.78957  0.69418  0.48223  1.0000
  C   C2442     1.0  0.66450  0.72133  0.47269  1.0000
  H   H1949     1.0  0.93222  0.70830  0.44671  1.0000
  C   C2443     1.0  0.75891  0.71898  0.48449  1.0000
  C   C2444     1.0  0.71140  0.67547  0.48160  1.0000
  S   S331      1.0  0.81716  0.71794  0.34576  1.0000
  H   H1950     1.0  0.67642  0.70847  0.23793  1.0000
  C   C2445     1.0  0.75173  0.49087  0.32375  1.0000
  H   H1951     1.0  0.96590  0.71682  0.47319  1.0000
  H   H1952     1.0  0.72489  0.72315  0.35849  1.0000
  C   C2446     1.0  0.70368  0.49401  0.32275  1.0000
  C   C2447     1.0  0.71722  0.50290  0.30541  1.0000
  H   H1953     1.0  0.68762  0.71981  0.33507  1.0000
  C   C2448     1.0  0.71438  0.48320  0.33997  1.0000
  H   H1954     1.0  0.67224  0.59562  0.40048  1.0000
  H   H1955     1.0  0.68231  0.49869  0.37997  1.0000
  C   C2449     1.0  0.66483  0.48581  0.29008  1.0000
  H   H1956     1.0  0.77029  0.48969  0.32421  1.0000
  C   C2450     1.0  0.66741  0.49174  0.37767  1.0000
  H   H1957     1.0  0.74340  0.72622  0.22207  1.0000
  P   P80       1.0  0.69730  0.72764  0.19575  1.0000
  H   H1958     1.0  0.71124  0.72746  0.13677  1.0000
  C   C2451     1.0  0.70004  0.72754  0.32664  1.0000
  H   H1959     1.0  0.76269  0.68143  0.50064  1.0000
  C   C2452     1.0  0.93398  0.72018  0.45158  1.0000
  H   H1960     1.0  0.74722  0.72863  0.48511  1.0000
  C   C2453     1.0  0.95298  0.72500  0.46635  1.0000
  H   H1961     1.0  0.90307  0.72701  0.43044  1.0000
  Fe  Fe166     1.0  0.71312  0.67595  0.87333  1.0000
  S   S332      1.0  0.68805  0.69477  0.86340  1.0000
  S   S333      1.0  0.74696  0.68287  0.89358  1.0000
  H   H1962     1.0  0.73677  0.69795  0.94825  1.0000
  H   H1963     1.0  0.74747  0.65765  0.67616  1.0000
  C   C2454     1.0  0.68046  0.53818  0.85582  1.0000
  H   H1964     1.0  0.71071  0.65246  0.54978  1.0000
  S   S334      1.0  0.70592  0.66302  0.83422  1.0000
  S   S335      1.0  0.68733  0.66252  0.89801  1.0000
  H   H1965     1.0  0.96023  0.70675  0.85300  1.0000
  C   C2455     1.0  0.71656  0.67419  0.53117  1.0000
  C   C2456     1.0  0.68401  0.52350  0.84525  1.0000
  C   C2457     1.0  0.73974  0.66023  0.69596  1.0000
  C   C2458     1.0  0.70941  0.59701  0.87153  1.0000
  H   H1966     1.0  0.76924  0.68373  0.75752  1.0000
  H   H1967     1.0  0.68782  0.69928  0.54954  1.0000
  C   C2459     1.0  0.68572  0.54163  0.91417  1.0000
  H   H1968     1.0  0.68727  0.68347  0.61758  1.0000
  H   H1969     1.0  0.73350  0.53696  0.92357  1.0000
  C   C2460     1.0  0.76874  0.69478  0.88021  1.0000
  C   C2461     1.0  0.78366  0.70200  0.89854  1.0000
  C   C2462     1.0  0.80141  0.71125  0.88869  1.0000
  C   C2463     1.0  0.80479  0.71317  0.86028  1.0000
  C   C2464     1.0  0.79007  0.70576  0.84198  1.0000
  C   C2465     1.0  0.77213  0.69672  0.85187  1.0000
  H   H1970     1.0  0.78171  0.70023  0.92048  1.0000
  C   C2466     1.0  0.71171  0.72456  0.59276  1.0000
  C   C2467     1.0  0.71296  0.59009  0.89713  1.0000
  H   H1971     1.0  0.76123  0.69092  0.83763  1.0000
  H   H1972     1.0  0.69569  0.56622  0.83367  1.0000
  C   C2468     1.0  0.71014  0.57450  0.90006  1.0000
  C   C2469     1.0  0.73137  0.70914  0.95538  1.0000
  Fe  Fe167     1.0  0.67928  0.68133  0.82561  1.0000
  C   C2470     1.0  0.66936  0.67155  0.68095  1.0000
  C   C2471     1.0  0.71104  0.65887  0.53073  1.0000
  H   H1973     1.0  0.68090  0.71163  0.59438  1.0000
  C   C2472     1.0  0.77280  0.52528  0.87554  1.0000
  C   C2473     1.0  0.73093  0.66557  0.62599  1.0000
  H   H1974     1.0  0.71772  0.59688  0.91472  1.0000
  C   C2474     1.0  0.72784  0.53732  0.87938  1.0000
  C   C2475     1.0  0.71943  0.71073  0.54108  1.0000
  C   C2476     1.0  0.70112  0.72680  0.96940  1.0000
  C   C2477     1.0  0.98407  0.72180  0.83390  1.0000
  C   C2478     1.0  0.74626  0.65142  0.71879  1.0000
  H   H1975     1.0  0.69768  0.51822  0.91529  1.0000
  H   H1976     1.0  0.72078  0.65648  0.63417  1.0000
  H   H1977     1.0  0.75051  0.72382  0.54021  1.0000
  C   C2479     1.0  0.76034  0.52848  0.85157  1.0000
  H   H1978     1.0  0.71109  0.60915  0.86933  1.0000
  H   H1979     1.0  0.67617  0.51209  0.95782  1.0000
  C   C2480     1.0  0.70036  0.57273  0.85161  1.0000
  P   P81       1.0  0.69934  0.54567  0.88157  1.0000
  C   C2481     1.0  0.72027  0.66615  0.74783  1.0000
  C   C2482     1.0  0.76984  0.70811  0.75555  1.0000
  H   H1980     1.0  0.79013  0.52057  0.87406  1.0000
  H   H1981     1.0  0.81294  0.71649  0.90297  1.0000
  H   H1982     1.0  0.76621  0.69814  0.59485  1.0000
  C   C2483     1.0  0.67089  0.55243  0.92658  1.0000
  H   H1983     1.0  0.77276  0.52599  0.92000  1.0000
  H   H1984     1.0  0.66551  0.68050  0.51457  1.0000
  H   H1985     1.0  0.72868  0.53726  0.83468  1.0000
  H   H1986     1.0  0.67621  0.70879  0.73201  1.0000
  C   C2484     1.0  0.73338  0.72888  0.85351  1.0000
  C   C2485     1.0  0.73373  0.72417  0.69633  1.0000
  C   C2486     1.0  0.75685  0.67481  0.59090  1.0000
  S   S336      1.0  0.66904  0.62655  0.84721  1.0000
  C   C2487     1.0  0.73087  0.67971  0.63929  1.0000
  C   C2488     1.0  0.76299  0.52830  0.90143  1.0000
  C   C2489     1.0  0.70324  0.56576  0.87747  1.0000
  S   S337      1.0  0.82762  0.72405  0.84643  1.0000
  C   C2490     1.0  0.67780  0.64428  0.96797  1.0000
  H   H1987     1.0  0.67542  0.71498  0.51303  1.0000
  C   C2491     1.0  0.73504  0.70767  0.79549  1.0000
  H   H1988     1.0  0.79266  0.70692  0.81996  1.0000
  C   C2492     1.0  0.74065  0.53441  0.90337  1.0000
  C   C2493     1.0  0.71431  0.67527  0.72532  1.0000
  H   H1989     1.0  0.85088  0.72618  0.99351  1.0000
  H   H1990     1.0  0.68585  0.72716  0.78764  1.0000
  C   C2494     1.0  0.73800  0.53459  0.85345  1.0000
  C   C2495     1.0  0.68428  0.67724  0.66080  1.0000
  C   C2496     1.0  0.69622  0.71415  0.58267  1.0000
  C   C2497     1.0  0.74443  0.69411  0.78513  1.0000
  H   H1991     1.0  0.72075  0.67935  0.55067  1.0000
  H   H1992     1.0  0.72136  0.70723  0.81068  1.0000
  C   C2498     1.0  0.73634  0.65428  0.74467  1.0000
  C   C2499     1.0  0.70012  0.70723  0.55708  1.0000
  C   C2500     1.0  0.94282  0.72412  0.82930  1.0000
  H   H1993     1.0  0.76536  0.71770  0.95410  1.0000
  H   H1994     1.0  0.70204  0.68454  0.72838  1.0000
  H   H1995     1.0  0.66810  0.56348  0.91737  1.0000
  C   C2501     1.0  0.68407  0.63714  0.99262  1.0000
  H   H1996     1.0  0.67435  0.67057  0.70231  1.0000
  H   H1997     1.0  0.74415  0.65213  0.59205  1.0000
  C   C2502     1.0  0.76188  0.69430  0.76526  1.0000
  H   H1998     1.0  0.66902  0.67772  0.95165  1.0000
  H   H1999     1.0  0.73830  0.68348  0.79297  1.0000
  C   C2503     1.0  0.68746  0.52701  0.92544  1.0000
  S   S338      1.0  0.67973  0.69362  0.78413  1.0000
  C   C2504     1.0  0.70329  0.58832  0.84875  1.0000
  H   H2000     1.0  0.69081  0.64934  0.95512  1.0000
  H   H2001     1.0  0.76804  0.52632  0.83149  1.0000
  C   C2505     1.0  0.69574  0.71257  0.66926  1.0000
  H   H2002     1.0  0.71306  0.56930  0.92001  1.0000
  C   C2506     1.0  0.72345  0.67213  0.69900  1.0000
  H   H2003     1.0  0.68100  0.70831  0.65868  1.0000
  P   P82       1.0  0.71303  0.68285  0.66958  1.0000
  C   C2507     1.0  0.74401  0.66311  0.60203  1.0000
  H   H2004     1.0  0.74100  0.64730  0.76228  1.0000
  P   P83       1.0  0.72295  0.70259  0.50687  1.0000
  H   H2005     1.0  0.69548  0.72828  0.90710  1.0000
  C   C2508     1.0  0.67530  0.52348  0.94947  1.0000
  H   H2006     1.0  0.76694  0.67291  0.57231  1.0000
  C   C2509     1.0  0.75650  0.68900  0.60364  1.0000
  C   C2510     1.0  0.67646  0.67877  0.63349  1.0000
  H   H2007     1.0  0.69833  0.51644  0.85209  1.0000
  H   H2008     1.0  0.75878  0.64223  0.71638  1.0000
  H   H2009     1.0  0.74350  0.70262  0.63695  1.0000
  C   C2511     1.0  0.74360  0.69147  0.62773  1.0000
  C   C2512     1.0  0.71329  0.70268  0.67838  1.0000
  C   C2513     1.0  0.73212  0.70854  0.69244  1.0000
  H   H2010     1.0  0.71220  0.66828  0.76774  1.0000
  C   C2514     1.0  0.96220  0.71651  0.83978  1.0000
  H   H2011     1.0  0.67093  0.50615  0.81855  1.0000
  Fe  Fe168     1.0  0.67759  0.65132  0.85789  1.0000
  C   C2515     1.0  0.74756  0.72041  0.95869  1.0000
  H   H2012     1.0  0.70033  0.59381  0.82903  1.0000
  C   C2516     1.0  0.70818  0.71231  0.96085  1.0000
  H   H2013     1.0  0.73518  0.71986  0.89478  1.0000
  H   H2014     1.0  0.74584  0.70109  0.69974  1.0000
  C   C2517     1.0  0.73530  0.72092  0.55174  1.0000
  C   C2518     1.0  0.66852  0.51760  0.82631  1.0000
  C   C2519     1.0  0.72471  0.72605  0.87992  1.0000
  H   H2015     1.0  0.70193  0.63664  0.99878  1.0000
  H   H2016     1.0  0.97126  0.72250  0.91391  1.0000
  C   C2520     1.0  0.73133  0.72782  0.57744  1.0000
  H   H2017     1.0  0.92584  0.72020  0.83436  1.0000
  H   H2018     1.0  0.83595  0.72511  0.94569  1.0000
  H   H2019     1.0  0.69564  0.70356  0.95823  1.0000
  H   H2020     1.0  0.75070  0.72512  0.84848  1.0000
  C   C2521     1.0  0.76045  0.72171  0.76586  1.0000
  H   H2021     1.0  0.78344  0.70829  0.74024  1.0000
  H   H2022     1.0  0.70143  0.63999  0.50543  1.0000
  C   C2522     1.0  0.70576  0.65185  0.50578  1.0000
  C   C2523     1.0  0.71637  0.68269  0.50665  1.0000
  H   H2023     1.0  0.74848  0.72873  0.70665  1.0000
  C   C2524     1.0  0.74337  0.72156  0.78642  1.0000
  C   C2525     1.0  0.69728  0.72816  0.67341  1.0000
  Fe  Fe169     1.0  0.76097  0.79555  0.11421  1.0000
  S   S339      1.0  0.78366  0.77482  0.11635  1.0000
  S   S340      1.0  0.72182  0.79451  0.11031  1.0000
  Fe  Fe170     1.0  0.80142  0.81728  0.12239  1.0000
  S   S341      1.0  0.82615  0.79735  0.12631  1.0000
  S   S342      1.0  0.82114  0.83945  0.12854  1.0000
  Fe  Fe171     1.0  0.80832  0.78750  0.08978  1.0000
  S   S343      1.0  0.83129  0.77432  0.05956  1.0000
  Fe  Fe172     1.0  0.79978  0.78629  0.15260  1.0000
  S   S344      1.0  0.80726  0.76992  0.18781  1.0000
  S   S345      1.0  0.78451  0.80773  0.08436  1.0000
  S   S346      1.0  0.77602  0.80670  0.15191  1.0000
  C   C2526     1.0  0.96704  0.97219  0.47151  1.0000
  S   S347      1.0  0.82705  0.75991  0.36256  1.0000
  Fe  Fe173     1.0  0.89105  0.74741  0.37090  1.0000
  S   S348      1.0  0.87889  0.77172  0.37392  1.0000
  C   C2527     1.0  0.81485  0.90675  0.00271  1.0000
  Fe  Fe174     1.0  0.84970  0.76298  0.39952  1.0000
  S   S349      1.0  0.83133  0.77650  0.43363  1.0000
  Fe  Fe175     1.0  0.85708  0.76672  0.33692  1.0000
  S   S350      1.0  0.85165  0.78485  0.30404  1.0000
  C   C2528     1.0  0.87053  0.85584  0.03315  1.0000
  S   S351      1.0  0.87077  0.74288  0.33211  1.0000
  Fe  Fe176     1.0  0.85688  0.92899  0.11823  1.0000
  S   S352      1.0  0.84858  0.95427  0.11418  1.0000
  S   S353      1.0  0.83047  0.91097  0.10653  1.0000
  Fe  Fe177     1.0  0.90732  0.93497  0.12874  1.0000
  S   S354      1.0  0.94163  0.92280  0.13440  1.0000
  Fe  Fe178     1.0  0.87151  0.95730  0.15161  1.0000
  C   C2529     1.0  0.73719  0.75010  0.44550  1.0000
  Fe  Fe179     1.0  0.88048  0.95549  0.08769  1.0000
  C   C2530     1.0  0.75630  0.78085  0.24751  1.0000
  S   S355      1.0  0.87723  0.93206  0.15745  1.0000
  S   S356      1.0  0.88760  0.93030  0.09024  1.0000
  C   C2531     1.0  0.96462  0.93432  0.14364  1.0000
  C   C2532     1.0  0.96070  0.94935  0.15178  1.0000
  C   C2533     1.0  0.93255  0.97023  0.30141  1.0000
  H   H2024     1.0  0.94340  0.95388  0.15347  1.0000
  H   H2025     1.0  0.95193  0.79349  0.00465  1.0000
  C   C2534     1.0  0.93907  0.78766  0.42030  1.0000
  H   H2026     1.0  0.73699  0.74770  0.02245  1.0000
  H   H2027     1.0  0.78389  0.77248  0.44930  1.0000
  H   H2028     1.0  0.85030  0.90324  0.47555  1.0000
  C   C2535     1.0  0.86666  0.77209  0.16316  1.0000
  C   C2536     1.0  0.78256  0.78961  0.36161  1.0000
  H   H2029     1.0  0.70834  0.77712  0.28725  1.0000
  C   C2537     1.0  0.82331  0.85934  0.12193  1.0000
  C   C2538     1.0  0.84156  0.86723  0.13375  1.0000
  C   C2539     1.0  0.84401  0.88295  0.12943  1.0000
  C   C2540     1.0  0.82829  0.89107  0.11298  1.0000
  C   C2541     1.0  0.81019  0.88315  0.10089  1.0000
  C   C2542     1.0  0.80768  0.86743  0.10530  1.0000
  H   H2030     1.0  0.85378  0.86117  0.14666  1.0000
  H   H2031     1.0  0.85801  0.88880  0.13896  1.0000
  H   H2032     1.0  0.79784  0.88925  0.08822  1.0000
  H   H2033     1.0  0.79349  0.86164  0.09613  1.0000
  C   C2543     1.0  0.83317  0.77744  0.02352  1.0000
  H   H2034     1.0  0.81039  0.79365  0.33337  1.0000
  P   P84       1.0  0.74747  0.76895  0.49028  1.0000
  C   C2544     1.0  0.83631  0.77704  0.46973  1.0000
  H   H2035     1.0  0.68857  0.76082  0.19278  1.0000
  H   H2036     1.0  0.97952  0.76101  0.43171  1.0000
  H   H2037     1.0  0.85283  0.87994  0.44738  1.0000
  H   H2038     1.0  0.86508  0.76128  0.46977  1.0000
  H   H2039     1.0  0.80815  0.79291  0.47690  1.0000
  H   H2040     1.0  0.80814  0.79574  0.02208  1.0000
  C   C2545     1.0  0.82028  0.77470  0.21944  1.0000
  C   C2546     1.0  0.83164  0.76322  0.23445  1.0000
  C   C2547     1.0  0.84073  0.76608  0.26071  1.0000
  C   C2548     1.0  0.83914  0.78064  0.27186  1.0000
  C   C2549     1.0  0.82798  0.79221  0.25673  1.0000
  C   C2550     1.0  0.81867  0.78930  0.23052  1.0000
  H   H2041     1.0  0.83363  0.75207  0.22553  1.0000
  H   H2042     1.0  0.84936  0.75712  0.27213  1.0000
  H   H2043     1.0  0.82645  0.80347  0.26539  1.0000
  H   H2044     1.0  0.80999  0.79827  0.21914  1.0000
  C   C2551     1.0  0.96008  0.76230  0.36839  1.0000
  C   C2552     1.0  0.95663  0.74714  0.37541  1.0000
  C   C2553     1.0  0.92215  0.96715  0.32676  1.0000
  H   H2045     1.0  0.94544  0.76955  0.36346  1.0000
  H   H2046     1.0  0.77902  0.93010  0.09222  1.0000
  C   C2554     1.0  0.91812  0.76503  0.27022  1.0000
  C   C2555     1.0  0.67838  0.75789  0.11404  1.0000
  C   C2556     1.0  0.69886  0.76644  0.11325  1.0000
  C   C2557     1.0  0.69761  0.78241  0.11225  1.0000
  C   C2558     1.0  0.67588  0.78954  0.11241  1.0000
  C   C2559     1.0  0.72554  0.79760  0.23185  1.0000
  H   H2047     1.0  0.67939  0.74567  0.11458  1.0000
  H   H2048     1.0  0.71547  0.76071  0.11324  1.0000
  H   H2049     1.0  0.67450  0.80177  0.11163  1.0000
  C   C2560     1.0  0.81003  0.73366  0.27909  1.0000
  H   H2050     1.0  0.74441  0.72925  0.17393  1.0000
  H   H2051     1.0  0.92347  0.77257  0.14613  1.0000
  C   C2561     1.0  0.88055  0.80015  0.20495  1.0000
  C   C2562     1.0  0.87822  0.80526  0.23231  1.0000
  C   C2563     1.0  0.86410  0.81787  0.23849  1.0000
  C   C2564     1.0  0.85191  0.82532  0.21753  1.0000
  C   C2565     1.0  0.85403  0.82027  0.19031  1.0000
  C   C2566     1.0  0.86837  0.80781  0.18397  1.0000
  H   H2052     1.0  0.92497  0.78567  0.24881  1.0000
  C   C2567     1.0  0.90529  0.77061  0.14457  1.0000
  H   H2053     1.0  0.88694  0.79951  0.24909  1.0000
  H   H2054     1.0  0.86216  0.82158  0.25972  1.0000
  H   H2055     1.0  0.84066  0.83492  0.22237  1.0000
  H   H2056     1.0  0.84449  0.82601  0.17409  1.0000
  H   H2057     1.0  0.86988  0.80426  0.16266  1.0000
  C   C2568     1.0  0.89170  0.80765  0.10468  1.0000
  C   C2569     1.0  0.97920  0.95855  0.15808  1.0000
  C   C2570     1.0  0.95889  0.94750  0.07480  1.0000
  H   H2058     1.0  0.79067  0.73440  0.21297  1.0000
  C   C2571     1.0  0.75559  0.81252  0.46345  1.0000
  H   H2059     1.0  0.74534  0.79155  0.44566  1.0000
  H   H2060     1.0  0.92622  0.87868  0.45601  1.0000
  H   H2061     1.0  0.98209  0.94940  0.30997  1.0000
  H   H2062     1.0  0.98490  0.77976  0.36169  1.0000
  H   H2063     1.0  0.78594  0.83972  0.06226  1.0000
  H   H2064     1.0  0.78807  0.74763  0.02093  1.0000
  S   S357      1.0  0.88992  0.96741  0.04669  1.0000
  H   H2065     1.0  0.89503  0.78189  0.46538  1.0000
  H   H2066     1.0  0.90828  0.74361  0.28709  1.0000
  C   C2572     1.0  0.92860  0.93592  0.20412  1.0000
  C   C2573     1.0  0.79106  0.73646  0.23502  1.0000
  C   C2574     1.0  0.75244  0.76054  0.45664  1.0000
  H   H2067     1.0  0.86006  0.95461  0.22926  1.0000
  H   H2068     1.0  0.79422  0.74525  0.31340  1.0000
  C   C2575     1.0  0.93017  0.80724  0.18070  1.0000
  C   C2576     1.0  0.89104  0.75770  0.22484  1.0000
  H   H2069     1.0  0.76609  0.83194  0.48677  1.0000
  H   H2070     1.0  0.85472  0.77538  0.17935  1.0000
  H   H2071     1.0  0.90982  0.84310  0.00316  1.0000
  H   H2072     1.0  0.82784  0.84004  0.06822  1.0000
  C   C2577     1.0  0.78532  0.77914  0.31544  1.0000
  H   H2073     1.0  0.87012  0.96798  0.42300  1.0000
  S   S358      1.0  0.86271  0.73874  0.39897  1.0000
  H   H2074     1.0  0.86422  0.85687  0.07737  1.0000
  C   C2578     1.0  0.88257  0.82686  0.00260  1.0000
  H   H2075     1.0  0.92400  0.90197  0.48413  1.0000
  C   C2579     1.0  0.77693  0.75724  0.41623  1.0000
  H   H2076     1.0  0.89482  0.80727  0.39006  1.0000
  C   C2580     1.0  0.66861  0.73501  0.20251  1.0000
  C   C2581     1.0  0.69517  0.73542  0.30230  1.0000
  C   C2582     1.0  0.93917  0.75112  0.46233  1.0000
  H   H2077     1.0  0.95691  0.78472  0.41637  1.0000
  C   C2583     1.0  0.86182  0.96746  0.26733  1.0000
  H   H2078     1.0  0.78988  0.79621  0.37810  1.0000
  H   H2079     1.0  0.79241  0.76002  0.40508  1.0000
  C   C2584     1.0  0.82193  0.78633  0.48631  1.0000
  H   H2080     1.0  0.67897  0.73363  0.29209  1.0000
  Fe  Fe180     1.0  0.84155  0.73630  0.36035  1.0000
  C   C2585     1.0  0.70612  0.75830  0.18665  1.0000
  H   H2081     1.0  0.78923  0.95678  0.10048  1.0000
  C   C2586     1.0  0.89258  0.79514  0.42849  1.0000
  H   H2082     1.0  0.67472  0.73968  0.24555  1.0000
  H   H2083     1.0  0.75942  0.79647  0.21369  1.0000
  C   C2587     1.0  0.97730  0.92487  0.05598  1.0000
  H   H2084     1.0  0.94659  0.77130  0.19911  1.0000
  C   C2588     1.0  0.97315  0.77473  0.46824  1.0000
  C   C2589     1.0  0.89809  0.94070  0.46049  1.0000
  C   C2590     1.0  0.89453  0.95213  0.44090  1.0000
  H   H2085     1.0  0.90126  0.84107  0.07258  1.0000
  C   C2591     1.0  0.86843  0.86315  0.05886  1.0000
  C   C2592     1.0  0.95552  0.74039  0.47186  1.0000
  C   C2593     1.0  0.85847  0.76506  0.13945  1.0000
  H   H2086     1.0  0.76930  0.83319  0.01684  1.0000
  C   C2594     1.0  0.77415  0.74576  0.24731  1.0000
  H   H2087     1.0  0.91501  0.93550  0.46254  1.0000
  H   H2088     1.0  0.97691  0.93671  0.24281  1.0000
  H   H2089     1.0  0.75321  0.77704  0.16536  1.0000
  H   H2090     1.0  0.94340  0.95416  0.07927  1.0000
  H   H2091     1.0  0.69385  0.79662  0.25473  1.0000
  H   H2092     1.0  0.76045  0.75040  0.23460  1.0000
  H   H2093     1.0  0.86700  0.75594  0.09940  1.0000
  H   H2094     1.0  0.95027  0.95131  0.48004  1.0000
  H   H2095     1.0  0.88019  0.75470  0.20775  1.0000
  C   C2595     1.0  0.74179  0.77481  0.26776  1.0000
  H   H2096     1.0  0.92835  0.76792  0.28802  1.0000
  C   C2596     1.0  0.87996  0.93616  0.47756  1.0000
  C   C2597     1.0  0.90675  0.75132  0.26974  1.0000
  C   C2598     1.0  0.71125  0.74526  0.29107  1.0000
  H   H2097     1.0  0.90867  0.95609  0.42847  1.0000
  C   C2599     1.0  0.82091  0.83744  0.04809  1.0000
  C   C2600     1.0  0.88967  0.87773  0.45017  1.0000
  H   H2098     1.0  0.73979  0.79294  0.05393  1.0000
  H   H2099     1.0  0.97566  0.91398  0.04610  1.0000
  C   C2601     1.0  0.77207  0.76427  0.44145  1.0000
  C   C2602     1.0  0.80900  0.73041  0.25093  1.0000
  S   S359      1.0  0.92869  0.73895  0.37615  1.0000
  C   C2603     1.0  0.91999  0.74617  0.44777  1.0000
  C   C2604     1.0  0.94936  0.93113  0.21586  1.0000
  C   C2605     1.0  0.87512  0.82536  0.06061  1.0000
  C   C2606     1.0  0.92726  0.79668  0.40104  1.0000
  H   H2100     1.0  0.97036  0.74393  0.48333  1.0000
  H   H2101     1.0  0.78588  0.73143  0.46491  1.0000
  H   H2102     1.0  0.87793  0.89941  0.03903  1.0000
  C   C2607     1.0  0.80919  0.95843  0.06308  1.0000
  C   C2608     1.0  0.90832  0.89714  0.47666  1.0000
  C   C2609     1.0  0.98011  0.95226  0.08432  1.0000
  H   H2103     1.0  0.84345  0.93911  0.48581  1.0000
  H   H2104     1.0  0.89071  0.86754  0.43769  1.0000
  C   C2610     1.0  0.95456  0.96426  0.29535  1.0000
  H   H2105     1.0  0.82864  0.95655  0.02544  1.0000
  H   H2106     1.0  0.75382  0.81874  0.44429  1.0000
  H   H2107     1.0  0.72758  0.76652  0.05882  1.0000
  H   H2108     1.0  0.89796  0.80083  0.12174  1.0000
  C   C2611     1.0  0.81553  0.88181  0.02403  1.0000
  C   C2612     1.0  0.90113  0.82174  0.09930  1.0000
  H   H2109     1.0  0.75365  0.74017  0.33865  1.0000
  P   P85       1.0  0.86617  0.83570  0.03028  1.0000
  C   C2613     1.0  0.71489  0.74332  0.18548  1.0000
  C   C2614     1.0  0.96954  0.78881  0.18731  1.0000
  H   H2110     1.0  0.76894  0.75081  0.16236  1.0000
  C   C2615     1.0  0.86578  0.81118  0.06614  1.0000
  C   C2616     1.0  0.95242  0.95547  0.23876  1.0000
  H   H2111     1.0  0.76614  0.74102  0.38623  1.0000
  H   H2112     1.0  0.91969  0.92846  0.19030  1.0000
  H   H2113     1.0  0.99031  0.91681  0.13652  1.0000
  C   C2617     1.0  0.91953  0.95037  0.20989  1.0000
  C   C2618     1.0  0.93130  0.96011  0.22727  1.0000
  H   H2114     1.0  0.87000  0.88437  0.08078  1.0000
  C   C2619     1.0  0.75137  0.75282  0.16920  1.0000
  C   C2620     1.0  0.74369  0.78483  0.03767  1.0000
  C   C2621     1.0  0.98696  0.76814  0.44737  1.0000
  C   C2622     1.0  0.93364  0.95824  0.34636  1.0000
  H   H2115     1.0  0.85221  0.80680  0.05339  1.0000
  C   C2623     1.0  0.73678  0.76989  0.04038  1.0000
  H   H2116     1.0  0.90869  0.76051  0.10412  1.0000
  C   C2624     1.0  0.86833  0.88469  0.45566  1.0000
  H   H2117     1.0  0.90504  0.97162  0.33112  1.0000
  C   C2625     1.0  0.90433  0.78609  0.44770  1.0000
  H   H2118     1.0  0.99538  0.89296  0.08002  1.0000
  C   C2626     1.0  0.86694  0.89784  0.47172  1.0000
  C   C2627     1.0  0.89148  0.93178  0.01697  1.0000
  C   C2628     1.0  0.75098  0.79706  0.46429  1.0000
  H   H2119     1.0  0.81386  0.97004  0.06685  1.0000
  H   H2120     1.0  0.90234  0.93681  0.03238  1.0000
  C   C2629     1.0  0.85448  0.95412  0.45408  1.0000
  H   H2121     1.0  0.90337  0.95405  0.20079  1.0000
  H   H2122     1.0  0.79523  0.75635  0.48623  1.0000
  C   C2630     1.0  0.76162  0.78252  0.36550  1.0000
  H   H2123     1.0  0.75253  0.78381  0.38494  1.0000
  H   H2124     1.0  0.91475  0.82584  0.11222  1.0000
  H   H2125     1.0  0.71926  0.80630  0.21780  1.0000
  H   H2126     1.0  0.79259  0.91682  0.05070  1.0000
  C   C2631     1.0  0.74813  0.79205  0.22946  1.0000
  P   P86       1.0  0.94279  0.77097  0.46938  1.0000
  C   C2632     1.0  0.95537  0.95200  0.34029  1.0000
  C   C2633     1.0  0.81243  0.93557  0.03522  1.0000
  C   C2634     1.0  0.79770  0.92834  0.05382  1.0000
  C   C2635     1.0  0.78945  0.93598  0.07729  1.0000
  C   C2636     1.0  0.98546  0.95056  0.49370  1.0000
  H   H2127     1.0  0.76162  0.80074  0.01244  1.0000
  C   C2637     1.0  0.81774  0.95074  0.03984  1.0000
  C   C2638     1.0  0.76456  0.77172  0.31937  1.0000
  C   C2639     1.0  0.71989  0.77035  0.17916  1.0000
  C   C2640     1.0  0.84858  0.76839  0.00787  1.0000
  H   H2128     1.0  0.97599  0.97019  0.16414  1.0000
  C   C2641     1.0  0.98332  0.78394  0.48815  1.0000
  H   H2129     1.0  0.86050  0.93701  0.03940  1.0000
  C   C2642     1.0  0.87587  0.88729  0.03728  1.0000
  C   C2643     1.0  0.98721  0.92845  0.14253  1.0000
  H   H2130     1.0  0.98087  0.96242  0.09668  1.0000
  C   C2644     1.0  0.96109  0.94076  0.23346  1.0000
  C   C2645     1.0  0.90408  0.80053  0.40525  1.0000
  H   H2131     1.0  0.83767  0.95950  0.45181  1.0000
  C   C2646     1.0  0.85401  0.76857  0.48224  1.0000
  H   H2132     1.0  0.81958  0.87459  0.04155  1.0000
  P   P87       1.0  0.96727  0.96777  0.26201  1.0000
  P   P88       1.0  0.75285  0.76071  0.29163  1.0000
  C   C2647     1.0  0.94786  0.78298  0.19260  1.0000
  S   S360      1.0  0.90274  0.96006  0.12450  1.0000
  H   H2133     1.0  0.90725  0.75416  0.43987  1.0000
  H   H2134     1.0  0.96408  0.94486  0.35529  1.0000
  H   H2135     1.0  0.98480  0.78168  0.18996  1.0000
  C   C2648     1.0  0.87142  0.87877  0.06089  1.0000
  H   H2136     1.0  0.72169  0.74716  0.45643  1.0000
  C   C2649     1.0  0.87274  0.95885  0.43773  1.0000
  C   C2650     1.0  0.79711  0.83729  0.04475  1.0000
  C   C2651     1.0  0.89700  0.76372  0.12069  1.0000
  P   P89       1.0  0.90008  0.78456  0.19643  1.0000
  H   H2137     1.0  0.77406  0.77703  0.24566  1.0000
  C   C2652     1.0  0.91609  0.77506  0.24799  1.0000
  H   H2138     1.0  0.84027  0.76298  0.13750  1.0000
  C   C2653     1.0  0.90248  0.77150  0.22511  1.0000
  C   C2654     1.0  0.87356  0.76103  0.11807  1.0000
  C   C2655     1.0  0.89005  0.77510  0.16581  1.0000
  H   H2139     1.0  0.92548  0.95604  0.36606  1.0000
  C   C2656     1.0  0.74192  0.75933  0.01957  1.0000
  C   C2657     1.0  0.76207  0.74659  0.40562  1.0000
  H   H2140     1.0  0.88416  0.73711  0.24693  1.0000
  H   H2141     1.0  0.86715  0.79128  0.09168  1.0000
  H   H2142     1.0  0.85891  0.75972  0.01801  1.0000
  C   C2658     1.0  0.75584  0.78923  0.01420  1.0000
  S   S361      1.0  0.86810  0.97646  0.18422  1.0000
  C   C2659     1.0  0.89324  0.74765  0.24705  1.0000
  C   C2660     1.0  0.97157  0.80382  0.17878  1.0000
  H   H2143     1.0  0.79472  0.77799  0.29618  1.0000
  H   H2144     1.0  0.82842  0.90169  0.04342  1.0000
  H   H2145     1.0  0.93600  0.80046  0.38260  1.0000
  C   C2661     1.0  0.92801  0.79219  0.18953  1.0000
  H   H2146     1.0  0.98840  0.80834  0.17487  1.0000
  H   H2147     1.0  0.87439  0.79766  0.43134  1.0000
  H   H2148     1.0  0.71286  0.78183  0.17919  1.0000
  H   H2149     1.0  0.94085  0.92979  0.05460  1.0000
  C   C2662     1.0  0.96566  0.95479  0.31468  1.0000
  C   C2663     1.0  0.87425  0.80231  0.08789  1.0000
  H   H2150     1.0  0.70749  0.75087  0.27172  1.0000
  C   C2664     1.0  0.79523  0.95100  0.08197  1.0000
  C   C2665     1.0  0.74258  0.76764  0.17089  1.0000
  C   C2666     1.0  0.98257  0.76805  0.36735  1.0000
  C   C2667     1.0  0.83559  0.83431  0.02567  1.0000
  C   C2668     1.0  0.79312  0.74294  0.29147  1.0000
  H   H2151     1.0  0.95641  0.91997  0.21102  1.0000
  C   C2669     1.0  0.71939  0.78086  0.27072  1.0000
  C   C2670     1.0  0.88688  0.90397  0.48283  1.0000
  C   C2671     1.0  0.90967  0.88399  0.46055  1.0000
  C   C2672     1.0  0.86336  0.96552  0.23836  1.0000
  C   C2673     1.0  0.85797  0.94271  0.47373  1.0000
  C   C2674     1.0  0.73719  0.73914  0.32859  1.0000
  C   C2675     1.0  0.95748  0.93377  0.06076  1.0000
  C   C2676     1.0  0.82005  0.73674  0.01014  1.0000
  C   C2677     1.0  0.86765  0.93197  0.02079  1.0000
  C   C2678     1.0  0.92778  0.78249  0.44404  1.0000
  C   C2679     1.0  0.74213  0.74308  0.42014  1.0000
  H   H2152     1.0  0.95347  0.82468  0.16893  1.0000
  C   C2680     1.0  0.82038  0.89721  0.02506  1.0000
  H   H2153     1.0  0.73599  0.76868  0.34758  1.0000
  C   C2681     1.0  0.95189  0.81302  0.17543  1.0000
  C   C2682     1.0  0.73749  0.74068  0.17601  1.0000
  C   C2683     1.0  0.75248  0.77376  0.34435  1.0000
  C   C2684     1.0  0.73209  0.74758  0.30471  1.0000
  C   C2685     1.0  0.96611  0.95739  0.48154  1.0000
  C   C2686     1.0  0.79419  0.78811  0.33644  1.0000
  H   H2154     1.0  0.85736  0.95795  0.28017  1.0000
  C   C2687     1.0  0.77526  0.74927  0.27555  1.0000
  C   C2688     1.0  0.75372  0.78887  0.48897  1.0000
  C   C2689     1.0  0.89317  0.83046  0.07703  1.0000
  H   H2155     1.0  0.91519  0.81458  0.17803  1.0000
  C   C2690     1.0  0.71122  0.79207  0.25257  1.0000
  C   C2691     1.0  0.76249  0.81997  0.48735  1.0000
  C   C2692     1.0  0.72107  0.72937  0.33974  1.0000
  C   C2693     1.0  0.97608  0.73796  0.38169  1.0000
  P   P90       1.0  0.82262  0.92640  0.00396  1.0000
  H   H2156     1.0  0.73068  0.73477  0.41185  1.0000
  C   C2694     1.0  0.87756  0.97710  0.01756  1.0000
  H   H2157     1.0  0.82669  0.73748  0.03095  1.0000
  C   C2695     1.0  0.87407  0.86458  0.00936  1.0000
  C   C2696     1.0  0.81997  0.78866  0.01022  1.0000
  H   H2158     1.0  0.91664  0.97717  0.49535  1.0000
  H   H2159     1.0  0.92322  0.97713  0.28648  1.0000
  C   C2697     1.0  0.87694  0.88022  0.01147  1.0000
  H   H2160     1.0  0.92845  0.79972  0.49501  1.0000
  C   C2698     1.0  0.78777  0.83365  0.01915  1.0000
  C   C2699     1.0  0.91744  0.73074  0.44253  1.0000
  H   H2161     1.0  0.99570  0.87743  0.12240  1.0000
  H   H2162     1.0  0.92375  0.97118  0.23176  1.0000
  H   H2163     1.0  0.95185  0.97737  0.46219  1.0000
  C   C2700     1.0  0.70204  0.77879  0.49970  1.0000
  H   H2164     1.0  0.70694  0.78966  0.49161  1.0000
  C   C2701     1.0  0.86821  0.97780  0.22122  1.0000
  H   H2165     1.0  0.82420  0.72925  0.29134  1.0000
  C   C2702     1.0  0.79808  0.74257  0.00430  1.0000
  C   C2703     1.0  0.71805  0.76667  0.50132  1.0000
  H   H2166     1.0  0.99427  0.79227  0.00270  1.0000
  Fe  Fe181     1.0  0.77235  0.79435  0.60983  1.0000
  S   S362      1.0  0.80025  0.77721  0.61913  1.0000
  S   S363      1.0  0.73874  0.78559  0.59187  1.0000
  Fe  Fe182     1.0  0.80524  0.82110  0.62068  1.0000
  S   S364      1.0  0.83492  0.80518  0.63092  1.0000
  S   S365      1.0  0.80490  0.84723  0.62362  1.0000
  Fe  Fe183     1.0  0.82332  0.79177  0.59384  1.0000
  S   S366      1.0  0.84832  0.78011  0.56362  1.0000
  Fe  Fe184     1.0  0.80907  0.79199  0.65523  1.0000
  S   S367      1.0  0.81085  0.77998  0.69701  1.0000
  S   S368      1.0  0.79513  0.80832  0.58231  1.0000
  S   S369      1.0  0.77974  0.80853  0.64720  1.0000
  H   H2167     1.0  0.68308  0.72921  0.97354  1.0000
  S   S370      1.0  0.84032  0.76586  0.85947  1.0000
  Fe  Fe185     1.0  0.90194  0.75153  0.87991  1.0000
  S   S371      1.0  0.89156  0.77616  0.87748  1.0000
  S   S372      1.0  0.93906  0.74380  0.89140  1.0000
  Fe  Fe186     1.0  0.85910  0.76958  0.89930  1.0000
  S   S373      1.0  0.84093  0.78539  0.93018  1.0000
  Fe  Fe187     1.0  0.87367  0.77011  0.83792  1.0000
  S   S374      1.0  0.87896  0.78461  0.79940  1.0000
  S   S375      1.0  0.87005  0.74509  0.90439  1.0000
  S   S376      1.0  0.88545  0.74574  0.83925  1.0000
  Fe  Fe188     1.0  0.87910  0.92608  0.62065  1.0000
  S   S377      1.0  0.85185  0.94391  0.63084  1.0000
  S   S378      1.0  0.87836  0.90018  0.61377  1.0000
  Fe  Fe189     1.0  0.91662  0.95023  0.61952  1.0000
  S   S379      1.0  0.95185  0.95836  0.60862  1.0000
  Fe  Fe190     1.0  0.87744  0.95333  0.66145  1.0000
  C   C2704     1.0  0.85756  0.76970  0.51095  1.0000
  Fe  Fe191     1.0  0.86938  0.95859  0.59847  1.0000
  H   H2168     1.0  0.76310  0.79053  0.80184  1.0000
  S   S380      1.0  0.90377  0.93473  0.65238  1.0000
  S   S381      1.0  0.89465  0.94022  0.58692  1.0000
  C   C2705     1.0  0.97683  0.94915  0.62060  1.0000
  C   C2706     1.0  0.97619  0.93583  0.63615  1.0000
  C   C2707     1.0  0.96881  0.79049  0.79362  1.0000
  H   H2169     1.0  0.95987  0.93094  0.64125  1.0000
  C   C2708     1.0  0.95890  0.76526  0.95741  1.0000
  C   C2709     1.0  0.96717  0.74266  0.80753  1.0000
  C   C2710     1.0  0.80501  0.75049  0.52720  1.0000
  H   H2170     1.0  0.81145  0.74746  0.57061  1.0000
  H   H2171     1.0  0.93642  0.95635  0.67054  1.0000
  H   H2172     1.0  0.93806  0.73096  0.70786  1.0000
  H   H2173     1.0  0.97014  0.95010  0.74841  1.0000
  C   C2711     1.0  0.93483  0.97913  0.72708  1.0000
  C   C2712     1.0  0.82578  0.86171  0.62104  1.0000
  C   C2713     1.0  0.81924  0.87676  0.62767  1.0000
  C   C2714     1.0  0.83496  0.88867  0.62561  1.0000
  C   C2715     1.0  0.85752  0.88572  0.61665  1.0000
  C   C2716     1.0  0.86406  0.87067  0.61006  1.0000
  C   C2717     1.0  0.84837  0.85876  0.61228  1.0000
  H   H2174     1.0  0.80182  0.87924  0.63442  1.0000
  H   H2175     1.0  0.82959  0.90012  0.63088  1.0000
  H   H2176     1.0  0.88142  0.86819  0.60315  1.0000
  H   H2177     1.0  0.85367  0.84732  0.60688  1.0000
  C   C2718     1.0  0.84321  0.77904  0.52754  1.0000
  C   C2719     1.0  0.77587  0.74748  0.80997  1.0000
  C   C2720     1.0  0.77875  0.94755  0.94958  1.0000
  C   C2721     1.0  0.83761  0.78166  0.96586  1.0000
  H   H2178     1.0  0.87704  0.89704  0.76285  1.0000
  H   H2179     1.0  0.84216  0.95133  0.97194  1.0000
  C   C2722     1.0  0.98129  0.73107  0.90389  1.0000
  H   H2180     1.0  0.86254  0.76331  0.96733  1.0000
  C   C2723     1.0  0.80535  0.90050  0.97883  1.0000
  H   H2181     1.0  0.81402  0.79444  0.52750  1.0000
  C   C2724     1.0  0.83073  0.78115  0.72456  1.0000
  C   C2725     1.0  0.82701  0.77250  0.74846  1.0000
  C   C2726     1.0  0.84194  0.77328  0.77117  1.0000
  C   C2727     1.0  0.86052  0.78294  0.77051  1.0000
  C   C2728     1.0  0.86446  0.79147  0.74647  1.0000
  C   C2729     1.0  0.84981  0.79042  0.72345  1.0000
  H   H2182     1.0  0.81248  0.76513  0.74942  1.0000
  H   H2183     1.0  0.83907  0.76643  0.78926  1.0000
  H   H2184     1.0  0.87899  0.79879  0.74551  1.0000
  H   H2185     1.0  0.85318  0.79680  0.70488  1.0000
  H   H2186     1.0  0.88361  0.95919  0.76657  1.0000
  C   C2730     1.0  0.97002  0.74336  0.89105  1.0000
  C   C2731     1.0  0.76661  0.77850  0.80409  1.0000
  C   C2732     1.0  0.86202  0.92016  0.52786  1.0000
  C   C2733     1.0  0.71965  0.73623  0.83363  1.0000
  C   C2734     1.0  0.87601  0.81282  0.99201  1.0000
  C   C2735     1.0  0.69048  0.76972  0.64585  1.0000
  C   C2736     1.0  0.71056  0.77635  0.63537  1.0000
  C   C2737     1.0  0.71541  0.77582  0.60705  1.0000
  C   C2738     1.0  0.70045  0.76800  0.58969  1.0000
  H   H2187     1.0  0.85864  0.94442  0.53324  1.0000
  H   H2188     1.0  0.68643  0.77076  0.66758  1.0000
  H   H2189     1.0  0.72176  0.78242  0.64899  1.0000
  H   H2190     1.0  0.70391  0.76769  0.56780  1.0000
  H   H2191     1.0  0.93318  0.78951  0.86125  1.0000
  H   H2192     1.0  0.92853  0.77662  0.76688  1.0000
  C   C2739     1.0  0.91993  0.96939  0.84900  1.0000
  C   C2740     1.0  0.76663  0.77196  0.88318  1.0000
  C   C2741     1.0  0.78447  0.77332  0.90208  1.0000
  H   H2193     1.0  0.96113  0.94088  0.70142  1.0000
  H   H2194     1.0  0.89936  0.78547  0.57198  1.0000
  H   H2195     1.0  0.76820  0.77681  0.86280  1.0000
  H   H2196     1.0  0.79988  0.77921  0.89634  1.0000
  H   H2197     1.0  0.93281  0.83020  0.96679  1.0000
  H   H2198     1.0  0.73154  0.96959  0.80994  1.0000
  H   H2199     1.0  0.90082  0.77172  0.73024  1.0000
  H   H2200     1.0  0.94745  0.95119  0.54217  1.0000
  Fe  Fe192     1.0  0.85265  0.74161  0.86321  1.0000
  C   C2742     1.0  0.99151  0.97329  0.81714  1.0000
  C   C2743     1.0  0.99598  0.77422  0.97239  1.0000
  H   H2201     1.0  0.99121  0.75634  0.94245  1.0000
  H   H2202     1.0  0.93003  0.74296  0.80554  1.0000
  C   C2744     1.0  0.70926  0.74444  0.77440  1.0000
  H   H2203     1.0  0.72950  0.76117  0.75317  1.0000
  H   H2204     1.0  0.69948  0.76792  0.71948  1.0000
  C   C2745     1.0  0.82531  0.72988  0.96211  1.0000
  C   C2746     1.0  0.96185  0.77652  0.80424  1.0000
  C   C2747     1.0  0.93998  0.96027  0.69121  1.0000
  C   C2748     1.0  0.70239  0.73083  0.88687  1.0000
  C   C2749     1.0  0.87834  0.97038  0.75979  1.0000
  H   H2205     1.0  0.92787  0.95073  0.77706  1.0000
  C   C2750     1.0  0.93144  0.76685  0.75369  1.0000
  C   C2751     1.0  0.95002  0.97094  0.74428  1.0000
  H   H2206     1.0  0.97881  0.79093  0.77473  1.0000
  C   C2752     1.0  0.82810  0.91869  0.56909  1.0000
  C   C2753     1.0  0.82610  0.83125  0.99970  1.0000
  H   H2207     1.0  0.80189  0.90744  0.96085  1.0000
  H   H2208     1.0  0.89482  0.91461  0.95425  1.0000
  C   C2754     1.0  0.91548  0.76408  0.73295  1.0000
  C   C2755     1.0  0.71647  0.73398  0.68644  1.0000
  C   C2756     1.0  0.93996  0.94011  0.54062  1.0000
  P   P91       1.0  0.88478  0.92125  0.50256  1.0000
  H   H2209     1.0  0.90304  0.93905  0.81174  1.0000
  H   H2210     1.0  0.91964  0.80615  0.94634  1.0000
  C   C2757     1.0  0.76458  0.81200  0.51215  1.0000
  H   H2211     1.0  0.72318  0.74341  0.51404  1.0000
  C   C2758     1.0  0.90354  0.83284  0.99398  1.0000
  C   C2759     1.0  0.98288  0.76449  0.95620  1.0000
  C   C2760     1.0  0.91498  0.76778  0.54709  1.0000
  H   H2212     1.0  0.77062  0.78237  0.97552  1.0000
  H   H2213     1.0  0.97553  0.76410  0.86882  1.0000
  C   C2761     1.0  0.74879  0.76824  0.80186  1.0000
  H   H2214     1.0  0.87275  0.91401  0.72216  1.0000
  H   H2215     1.0  0.83081  0.97069  0.79292  1.0000
  H   H2216     1.0  0.81529  0.91812  0.58531  1.0000
  C   C2762     1.0  0.94810  0.92832  0.55745  1.0000
  H   H2217     1.0  0.66921  0.75532  0.58647  1.0000
  C   C2763     1.0  0.85478  0.90607  0.53763  1.0000
  H   H2218     1.0  0.99341  0.75679  0.73159  1.0000
  H   H2219     1.0  0.77709  0.92922  0.97868  1.0000
  P   P92       1.0  0.73103  0.73911  0.79932  1.0000
  C   C2764     1.0  0.80226  0.83066  0.99662  1.0000
  C   C2765     1.0  0.91292  0.84934  0.64260  1.0000
  C   C2766     1.0  0.90575  0.83699  0.62716  1.0000
  C   C2767     1.0  0.88729  0.82852  0.63636  1.0000
  C   C2768     1.0  0.87574  0.83254  0.66077  1.0000
  C   C2769     1.0  0.88256  0.84510  0.67615  1.0000
  C   C2770     1.0  0.90156  0.85329  0.66716  1.0000
  P   P93       1.0  0.86815  0.85003  0.70817  1.0000
  C   C2771     1.0  0.88164  0.83973  0.73631  1.0000
  C   C2772     1.0  0.86931  0.87030  0.71312  1.0000
  C   C2773     1.0  0.86673  0.88003  0.69037  1.0000
  C   C2774     1.0  0.86804  0.89569  0.69364  1.0000
  C   C2775     1.0  0.79882  0.75050  0.55507  1.0000
  C   C2776     1.0  0.87420  0.89225  0.74262  1.0000
  C   C2777     1.0  0.87300  0.87653  0.73936  1.0000
  C   C2778     1.0  0.90366  0.83307  0.73312  1.0000
  C   C2779     1.0  0.91310  0.82397  0.75405  1.0000
  C   C2780     1.0  0.90063  0.82143  0.77826  1.0000
  C   C2781     1.0  0.87889  0.82820  0.78178  1.0000
  C   C2782     1.0  0.86948  0.83742  0.76103  1.0000
  C   C2783     1.0  0.83847  0.84462  0.70570  1.0000
  C   C2784     1.0  0.82162  0.85470  0.69527  1.0000
  C   C2785     1.0  0.79893  0.85015  0.69259  1.0000
  C   C2786     1.0  0.79291  0.83548  0.69996  1.0000
  C   C2787     1.0  0.80956  0.82535  0.71021  1.0000
  C   C2788     1.0  0.83221  0.82991  0.71312  1.0000
  H   H2220     1.0  0.92712  0.85599  0.63540  1.0000
  H   H2221     1.0  0.91437  0.83402  0.60797  1.0000
  H   H2222     1.0  0.88166  0.81898  0.62433  1.0000
  H   H2223     1.0  0.86136  0.82591  0.66738  1.0000
  H   H2224     1.0  0.90746  0.86286  0.67890  1.0000
  H   H2225     1.0  0.86374  0.87547  0.67001  1.0000
  H   H2226     1.0  0.86619  0.90307  0.67581  1.0000
  H   H2227     1.0  0.87497  0.86931  0.75726  1.0000
  H   H2228     1.0  0.91337  0.83455  0.71427  1.0000
  H   H2229     1.0  0.92979  0.81850  0.75119  1.0000
  H   H2230     1.0  0.90746  0.81382  0.79396  1.0000
  H   H2231     1.0  0.86902  0.82583  0.80024  1.0000
  H   H2232     1.0  0.85238  0.84229  0.76383  1.0000
  H   H2233     1.0  0.82591  0.86590  0.68837  1.0000
  H   H2234     1.0  0.78622  0.85778  0.68349  1.0000
  H   H2235     1.0  0.77548  0.83185  0.69697  1.0000
  H   H2236     1.0  0.80505  0.81383  0.71526  1.0000
  H   H2237     1.0  0.84491  0.82183  0.72066  1.0000
  C   C2789     1.0  0.92987  0.97379  0.70069  1.0000
  H   H2238     1.0  0.86073  0.80744  0.99960  1.0000
  C   C2790     1.0  0.71326  0.75555  0.75430  1.0000
  C   C2791     1.0  0.92596  0.76416  0.52211  1.0000
  H   H2239     1.0  0.71798  0.74610  0.68875  1.0000
  H   H2240     1.0  0.76514  0.97572  0.83834  1.0000
  H   H2241     1.0  0.76087  0.94685  0.94379  1.0000
  C   C2792     1.0  0.76701  0.76034  0.51504  1.0000
  C   C2793     1.0  0.68885  0.73862  0.86752  1.0000
  H   H2242     1.0  0.85656  0.96120  0.82995  1.0000
  H   H2243     1.0  0.66736  0.78654  0.50831  1.0000
  C   C2794     1.0  0.78959  0.74217  0.97722  1.0000
  C   C2795     1.0  0.67210  0.73997  0.75361  1.0000
  C   C2796     1.0  0.85256  0.93346  0.53952  1.0000
  H   H2244     1.0  0.76673  0.73234  0.75807  1.0000
  C   C2797     1.0  0.85065  0.77038  0.97913  1.0000
  C   C2798     1.0  0.78903  0.77323  0.80917  1.0000
  C   C2799     1.0  0.68072  0.76101  0.60024  1.0000
  P   P94       1.0  0.76137  0.74992  0.96927  1.0000
  C   C2800     1.0  0.79354  0.75774  0.81248  1.0000
  C   C2801     1.0  0.71724  0.73817  0.97233  1.0000
  H   H2245     1.0  0.94540  0.81405  0.84232  1.0000
  H   H2246     1.0  0.80291  0.78113  0.81075  1.0000
  H   H2247     1.0  0.74322  0.73594  0.58541  1.0000
  C   C2802     1.0  0.78269  0.76689  0.92833  1.0000
  H   H2248     1.0  0.91809  0.97446  0.86930  1.0000
  H   H2249     1.0  0.90972  0.90151  0.54086  1.0000
  C   C2803     1.0  0.81119  0.93830  0.97670  1.0000
  C   C2804     1.0  0.82525  0.78726  0.51505  1.0000
  C   C2805     1.0  0.95421  0.95168  0.70860  1.0000
  H   H2250     1.0  0.82847  0.94309  0.56885  1.0000
  C   C2806     1.0  0.95001  0.80362  0.83165  1.0000
  C   C2807     1.0  0.86343  0.91954  0.97661  1.0000
  C   C2808     1.0  0.88914  0.97507  0.52510  1.0000
  H   H2251     1.0  0.73314  0.76308  0.87578  1.0000
  C   C2809     1.0  0.94855  0.77627  0.82844  1.0000
  H   H2252     1.0  0.67149  0.74222  0.87292  1.0000
  C   C2810     1.0  0.74688  0.76427  0.89056  1.0000
  C   C2811     1.0  0.95020  0.75677  0.75781  1.0000
  C   C2812     1.0  0.90874  0.78279  0.55312  1.0000
  C   C2813     1.0  0.91854  0.91215  0.53988  1.0000
  C   C2814     1.0  0.91044  0.92387  0.52262  1.0000
  C   C2815     1.0  0.80058  0.88506  0.97783  1.0000
  H   H2253     1.0  0.90535  0.74907  0.70048  1.0000
  C   C2816     1.0  0.82225  0.79077  0.98150  1.0000
  C   C2817     1.0  0.84281  0.96924  0.83487  1.0000
  H   H2254     1.0  0.82242  0.74733  0.52118  1.0000
  C   C2818     1.0  0.94299  0.78979  0.84226  1.0000
  C   C2819     1.0  0.95925  0.95696  0.73509  1.0000
  C   C2820     1.0  0.68879  0.73639  0.77339  1.0000
  C   C2821     1.0  0.78805  0.93746  0.96909  1.0000
  C   C2822     1.0  0.83770  0.90537  0.55793  1.0000
  C   C2823     1.0  0.88919  0.80551  0.97156  1.0000
  C   C2824     1.0  0.98559  0.97352  0.78902  1.0000
  H   H2255     1.0  0.94294  0.90547  0.57116  1.0000
  H   H2256     1.0  0.81077  0.75352  0.81684  1.0000
  H   H2257     1.0  0.79690  0.76787  0.94251  1.0000
  C   C2825     1.0  0.88726  0.91935  0.97290  1.0000
  C   C2826     1.0  0.76294  0.75907  0.93594  1.0000
  H   H2258     1.0  0.74401  0.76394  0.54975  1.0000
  H   H2259     1.0  0.83237  0.89449  0.56563  1.0000
  C   C2827     1.0  0.90891  0.95597  0.84280  1.0000
  S   S382      1.0  0.87427  0.95684  0.70867  1.0000
  C   C2828     1.0  0.69747  0.74142  0.84102  1.0000
  H   H2260     1.0  0.85271  0.91489  0.96067  1.0000
  C   C2829     1.0  0.93738  0.91436  0.55711  1.0000
  C   C2830     1.0  0.74496  0.75790  0.91688  1.0000
  H   H2261     1.0  0.68672  0.74749  0.82640  1.0000
  C   C2831     1.0  0.67283  0.76326  0.52029  1.0000
  H   H2262     1.0  0.79505  0.82790  0.97672  1.0000
  C   C2832     1.0  0.94776  0.77572  0.97483  1.0000
  C   C2833     1.0  0.77668  0.75515  0.56295  1.0000
  H   H2263     1.0  0.87138  0.76320  0.52041  1.0000
  H   H2264     1.0  0.86260  0.89561  0.53015  1.0000
  H   H2265     1.0  0.91972  0.92564  0.99015  1.0000
  H   H2266     1.0  0.89971  0.96924  0.54022  1.0000
  H   H2267     1.0  0.90857  0.80585  0.53894  1.0000
  H   H2268     1.0  0.87437  0.85934  0.98914  1.0000
  C   C2834     1.0  0.92588  0.95609  0.79704  1.0000
  C   C2835     1.0  0.92501  0.79072  0.50952  1.0000
  H   H2269     1.0  0.94897  0.75772  0.94475  1.0000
  H   H2270     1.0  0.94264  0.76571  0.83692  1.0000
  H   H2271     1.0  0.88360  0.79488  0.96295  1.0000
  H   H2272     1.0  0.97886  0.97563  0.83305  1.0000
  H   H2273     1.0  0.73145  0.77251  0.79850  1.0000
  C   C2836     1.0  0.79233  0.95877  0.93806  1.0000
  C   C2837     1.0  0.93347  0.97636  0.82907  1.0000
  H   H2274     1.0  0.83692  0.82928  0.98179  1.0000
  H   H2275     1.0  0.89817  0.95072  0.85820  1.0000
  C   C2838     1.0  0.96286  0.80398  0.80726  1.0000
  C   C2839     1.0  0.67532  0.76213  0.62836  1.0000
  C   C2840     1.0  0.82461  0.94980  0.96534  1.0000
  S   S383      1.0  0.89210  0.96930  0.63014  1.0000
  H   H2276     1.0  0.70840  0.73022  0.61231  1.0000
  H   H2277     1.0  0.72957  0.75193  0.92206  1.0000
  C   C2841     1.0  0.91175  0.94938  0.81674  1.0000
  C   C2842     1.0  0.98369  0.75437  0.87834  1.0000
  S   S384      1.0  0.85288  0.97251  0.56309  1.0000
  H   H2278     1.0  0.77207  0.75579  0.58464  1.0000
  C   C2843     1.0  0.95233  0.74374  0.74128  1.0000
  C   C2844     1.0  0.69638  0.75925  0.73478  1.0000
  C   C2845     1.0  0.83553  0.93273  0.55986  1.0000
  H   H2279     1.0  0.81211  0.79952  0.97133  1.0000
  H   H2280     1.0  0.79308  0.88028  0.95946  1.0000
  C   C2846     1.0  0.75350  0.75260  0.80365  1.0000
  C   C2847     1.0  0.82825  0.97456  0.81400  1.0000
  H   H2281     1.0  0.99644  0.91840  0.65667  1.0000
  C   C2848     1.0  0.74068  0.73501  0.96732  1.0000
  C   C2849     1.0  0.87177  0.90183  0.71975  1.0000
  C   C2850     1.0  0.76078  0.75987  0.54303  1.0000
  C   C2851     1.0  0.81520  0.95995  0.94609  1.0000
  C   C2852     1.0  0.80331  0.73565  0.95622  1.0000
  H   H2282     1.0  0.93002  0.75240  0.51759  1.0000
  H   H2283     1.0  0.96195  0.93029  0.57178  1.0000
  C   C2853     1.0  0.91386  0.79426  0.53442  1.0000
  C   C2854     1.0  0.94527  0.73712  0.81322  1.0000
  C   C2855     1.0  0.92114  0.93793  0.52334  1.0000
  H   H2284     1.0  0.68361  0.74062  0.53139  1.0000
  C   C2856     1.0  0.90129  0.92552  0.99308  1.0000
  C   C2857     1.0  0.93695  0.96963  0.80311  1.0000
  H   H2285     1.0  0.80185  0.86381  0.99974  1.0000
  H   H2286     1.0  0.78509  0.96677  0.92332  1.0000
  H   H2287     1.0  0.91055  0.75890  0.56145  1.0000
  H   H2288     1.0  0.76170  0.79068  0.53262  1.0000
  H   H2289     1.0  0.71134  0.74944  0.97821  1.0000
  C   C2858     1.0  0.91797  0.75124  0.71627  1.0000
  C   C2859     1.0  0.87315  0.97272  0.73169  1.0000
  P   P95       1.0  0.96982  0.75931  0.78614  1.0000
  H   H2290     1.0  0.79712  0.73520  0.93519  1.0000
  C   C2860     1.0  0.90950  0.81187  0.96221  1.0000
  H   H2291     1.0  0.82556  0.96898  0.93790  1.0000
  H   H2292     1.0  0.96829  0.81470  0.79896  1.0000
  C   C2861     1.0  0.86594  0.97816  0.53114  1.0000
  H   H2293     1.0  0.90964  0.97702  0.99519  1.0000
  C   C2862     1.0  0.93639  0.74107  0.72044  1.0000
  H   H2294     1.0  0.77990  0.73555  0.81290  1.0000
  C   C2863     1.0  0.78933  0.75558  0.50730  1.0000
  H   H2295     1.0  0.76962  0.81781  0.53079  1.0000
  C   C2864     1.0  0.98660  0.73478  0.81777  1.0000
  C   C2865     1.0  0.91680  0.82545  0.97362  1.0000
  P   P96       1.0  0.95633  0.97793  0.77845  1.0000
  C   C2866     1.0  0.75367  0.76374  0.99556  1.0000
  C   C2867     1.0  0.76083  0.77875  0.99322  1.0000
  C   C2868     1.0  0.71110  0.75280  0.51230  1.0000
  C   C2869     1.0  0.68863  0.75115  0.52192  1.0000
  H   H2296     1.0  0.68368  0.73574  0.66621  1.0000
  C   C2870     1.0  0.67584  0.75143  0.73435  1.0000
  C   C2871     1.0  0.67952  0.77706  0.50914  1.0000
  H   H2297     1.0  0.92915  0.77623  0.97575  1.0000
  C   C2872     1.0  0.76013  0.79654  0.51304  1.0000
  H   H2298     1.0  0.87972  0.88692  0.99311  1.0000
  H   H2299     1.0  0.96613  0.73552  0.74486  1.0000
  H   H2300     1.0  0.91433  0.94745  0.51172  1.0000
  H   H2301     1.0  0.99315  0.96948  0.68925  1.0000
  C   C2873     1.0  0.98466  0.78470  0.98989  1.0000
  C   C2874     1.0  0.83999  0.97462  0.86183  1.0000
  H   H2302     1.0  0.85157  0.97077  0.87796  1.0000
  C   C2875     1.0  0.83370  0.73045  0.98905  1.0000
  C   C2876     1.0  0.96062  0.78543  0.99107  1.0000
  H   H2303     1.0  0.98456  0.93919  0.50192  1.0000
  C   C2877     1.0  0.85346  0.92593  0.00053  1.0000
  C   C2878     1.0  0.80558  0.87574  0.00046  1.0000
  C   C2879     1.0  0.99684  0.92875  0.64480  1.0000
  H   H2304     1.0  0.97318  0.78910  0.50454  1.0000
  C   C2880     1.0  0.93085  0.77560  0.50298  1.0000
