data_image0
_chemical_formula_structural       FeS2FeC2FeCFeS4C6H7CHCH4CH2C3HCH4C2H2C2HC5HCHCHCHC3PC3HC2H2CHCHCPSCH2C2H2CHC6H2CSH3CHCHCHFeSH3CHC2HC5HC3SHCFeSCFeS2FeSFeS3C3SC2H2CHC4HPHC6H2SHC2H2C3HCHC7PC4HC13H6CH15C3HC3HC2PC2HCH3C3HC4H2CHCH4C3FeH8C2H2C2H2CHC2HCHCH3FeS2FeS2FePFeS3FeCSFeHSFeSHSCHC6H4CSCHC2HC2HC4H4CSCHSCH2C2H2C8PC4HC3SC7H2CH4C2H2CH5C4HC9HPC2HC2HCHCH2CHCH2CH2CH3CH3CH5C2H5CH3CH2C6H4CHC2HC4H2CHCH2C4H2FeS2HCFe2SH2S3C2SC6H4CPHC3HCHCHC2H2C2HC5H3C3H3C2H2PCHFeHFeC2H2CPC3H2CHC8H3CH7C3HC2HC5HC4HCH2CHC2H3CH2CHCH2C4HCHCSHCHCH2CPC2H3C2H2CHC4SC5FeS2FeHSFeSHCS2C4HCH3SHC4H3SC5H4C10PC14H2C2H18CSH5CH2CH4C2HC2HC2HC2H4C6H2CHCH2C3HC4H2C2PC4HCPH2C5HCHC6HCHCFeSHFeSFeH3FeS2FeSHFeSFeS3C2SH4C3H2C6H7C2PC8HCH2CHC2H5CH2CHCH4CHC3S2HC4HC7PHSC2HC2HC3HC2HC2H2CH2CHC3H2CHC4H2C2HC2H2CHCH2CH2C3H3CFeCFeCSFeCHSFeS2FeS2FeSFeS3C2H2C2PC3H5C5H2C6H5CH6PHC5HCH2CHC2H2C2H4C3HCHC2HC2HC4HCHC2H8C2H2SC5H2C4HCHCHCHSC7HC6PHCHPHC2HCHC4HCHCH3C2HC2HC2HSPC5SCH4CHCH2C2H4C2FeS2FeS2FeSFeHS2C3HC2H3C2H2C7HCHC7HC4H4C3HC3H4C4H3C2HC8HC2HC2H2CHC8H3CHPCH6C2H3C2H2C3H2C2H5C5H2CHC3HC2H2CHCHC2H2CHCFeS2CHFeHFeS3H2SHSHC6H7CHC2HCH2SHC2FeH3CPC3H2CH2C4HC2H3C2H2C3H2CH2C2HCHC5PH2C5HC2H2CH2CHC4FeHSCHC2H2CH2C2HFeS2FeS2FeSFeS3FeSFeHSFeCSHC7H4C6H4CHC2HCHSHC3HC2PH5C2HC2HCH2C2H2C10H4CHC2H4CHC3H7C2HC2H3SC2HCHC2HC3HC3H3C3SH3FeSCFeS2FeHFeS3C3HSHC2HC4HC6H4C5H4CH4C4HCH2C2HCHC6HCHCH4SHCHC2HCHC3H2CPHC5HC5HCH2CHC3HC2H4SHCHC3H2CHCH2C2H3CH3CHC2H3SH2PC2HC2HSCH4SHFeS2CFeSCSHFeSHSC6H4C4H3CSHC2PC12H2CH6CH7FeHC4HCH5CHCHC4H9PC6HC3PCHC11H2CHC2HFeH3C8HPHCH2
_chemical_formula_sum              "Fe64 S128 C960 H768 P32"
_cell_length_a       36.2434
_cell_length_b       39.5979
_cell_length_c       40.5873
_cell_angle_alpha    89.7561
_cell_angle_beta     89.9062
_cell_angle_gamma    90.151

_space_group_name_H-M_alt    "P 1"
_space_group_IT_number       1

loop_
  _space_group_symop_operation_xyz
  'x, y, z'

loop_
  _atom_site_type_symbol
  _atom_site_label
  _atom_site_symmetry_multiplicity
  _atom_site_fract_x
  _atom_site_fract_y
  _atom_site_fract_z
  _atom_site_occupancy
  Fe  Fe1       1.0  0.34975  0.19817  0.23104  1.0000
  S   S1        1.0  0.38493  0.23485  0.25965  1.0000
  S   S2        1.0  0.34391  0.20897  0.17592  1.0000
  Fe  Fe2       1.0  0.33704  0.15400  0.29194  1.0000
  C   C1        1.0  0.22298  0.20184  0.08548  1.0000
  C   C2        1.0  0.12191  0.35719  0.07853  1.0000
  Fe  Fe3       1.0  0.34214  0.23068  0.30012  1.0000
  C   C3        1.0  0.50591  0.18966  0.26309  1.0000
  Fe  Fe4       1.0  0.41093  0.18870  0.28150  1.0000
  S   S3        1.0  0.47135  0.17924  0.29212  1.0000
  S   S4        1.0  0.30475  0.19739  0.26974  1.0000
  S   S5        1.0  0.37863  0.15230  0.25072  1.0000
  S   S6        1.0  0.34036  0.09286  0.06739  1.0000
  C   C4        1.0  0.34335  0.17647  0.14594  1.0000
  C   C5        1.0  0.35266  0.18411  0.11304  1.0000
  C   C6        1.0  0.35177  0.15895  0.08854  1.0000
  C   C7        1.0  0.34092  0.12601  0.09668  1.0000
  C   C8        1.0  0.33123  0.11851  0.12946  1.0000
  C   C9        1.0  0.33268  0.14351  0.15402  1.0000
  H   H1        1.0  0.36097  0.20953  0.10658  1.0000
  H   H2        1.0  0.35986  0.16495  0.06356  1.0000
  H   H3        1.0  0.32289  0.09311  0.13603  1.0000
  H   H4        1.0  0.32518  0.13737  0.17916  1.0000
  H   H5        1.0  0.42149  0.10166  0.29256  1.0000
  H   H6        1.0  0.46932  0.21034  0.22650  1.0000
  H   H7        1.0  0.45268  0.28217  0.14082  1.0000
  C   C10       1.0  0.48690  0.03012  0.11939  1.0000
  H   H8        1.0  0.20564  0.19309  0.13570  1.0000
  C   C11       1.0  0.12971  0.40623  0.32912  1.0000
  H   H9        1.0  0.44313  0.00363  0.99959  1.0000
  H   H10       1.0  0.45016  0.22786  0.11138  1.0000
  H   H11       1.0  0.25247  0.45261  0.24881  1.0000
  H   H12       1.0  0.38056  0.02501  0.10637  1.0000
  C   C12       1.0  0.25899  0.47177  0.29841  1.0000
  H   H13       1.0  0.10066  0.47143  0.21290  1.0000
  H   H14       1.0  0.45431  0.12649  0.07245  1.0000
  C   C13       1.0  0.47224  0.02342  0.08805  1.0000
  C   C14       1.0  0.18052  0.23982  0.01614  1.0000
  C   C15       1.0  0.25088  0.10567  0.03846  1.0000
  H   H15       1.0  0.20150  0.18591  0.07536  1.0000
  C   C16       1.0  0.15377  0.34063  0.02864  1.0000
  H   H16       1.0  0.26156  0.08885  0.05728  1.0000
  H   H17       1.0  0.17803  0.23712  0.04256  1.0000
  H   H18       1.0  0.50441  0.13222  0.03486  1.0000
  H   H19       1.0  0.50052  0.09215  0.15476  1.0000
  C   C17       1.0  0.23206  0.09251  0.01140  1.0000
  C   C18       1.0  0.22528  0.20572  0.11967  1.0000
  H   H20       1.0  0.30487  0.99496  0.03655  1.0000
  H   H21       1.0  0.48774  0.18202  0.15884  1.0000
  C   C19       1.0  0.49763  0.20444  0.23262  1.0000
  C   C20       1.0  0.14880  0.33783  0.06274  1.0000
  H   H22       1.0  0.44200  0.15082  0.19174  1.0000
  C   C21       1.0  0.09983  0.37919  0.06020  1.0000
  C   C22       1.0  0.47820  0.21480  0.03344  1.0000
  C   C23       1.0  0.25642  0.47477  0.26395  1.0000
  C   C24       1.0  0.45291  0.13180  0.09845  1.0000
  C   C25       1.0  0.43406  0.02186  0.08337  1.0000
  H   H23       1.0  0.18705  0.45606  0.28399  1.0000
  C   C26       1.0  0.41019  0.02547  0.11017  1.0000
  H   H24       1.0  0.07857  0.39391  0.07227  1.0000
  C   C27       1.0  0.29283  0.22105  0.00341  1.0000
  H   H25       1.0  0.42301  0.01806  0.05886  1.0000
  C   C28       1.0  0.21227  0.22878  0.99952  1.0000
  H   H26       1.0  0.29867  0.24830  0.06350  1.0000
  C   C29       1.0  0.42763  0.11357  0.11753  1.0000
  C   C30       1.0  0.30909  0.34455  0.26034  1.0000
  C   C31       1.0  0.47260  0.00007  0.99783  1.0000
  P   P1        1.0  0.25367  0.43088  0.31804  1.0000
  C   C32       1.0  0.25383  0.22483  0.13334  1.0000
  C   C33       1.0  0.27968  0.24056  0.11284  1.0000
  C   C34       1.0  0.10483  0.38213  0.02615  1.0000
  H   H27       1.0  0.16573  0.32059  0.07692  1.0000
  C   C35       1.0  0.03587  0.46735  0.02648  1.0000
  C   C36       1.0  0.14131  0.42978  0.30553  1.0000
  H   H28       1.0  0.22827  0.06545  0.00915  1.0000
  H   H29       1.0  0.27234  0.14992  0.06182  1.0000
  C   C37       1.0  0.07428  0.47171  0.02816  1.0000
  H   H30       1.0  0.41011  0.09498  0.10591  1.0000
  C   C38       1.0  0.49240  0.18444  0.04620  1.0000
  H   H31       1.0  0.09108  0.45296  0.04031  1.0000
  C   C39       1.0  0.47808  0.27010  0.13312  1.0000
  P   P2        1.0  0.24940  0.20774  0.02107  1.0000
  S   S7        1.0  0.01541  0.43052  0.04376  1.0000
  C   C40       1.0  0.25692  0.14046  0.04093  1.0000
  H   H32       1.0  0.30236  0.25454  0.12370  1.0000
  H   H33       1.0  0.25662  0.22680  0.15989  1.0000
  C   C41       1.0  0.42371  0.12027  0.15110  1.0000
  C   C42       1.0  0.24927  0.21710  0.06468  1.0000
  H   H34       1.0  0.47336  0.03576  0.17111  1.0000
  H   H35       1.0  0.40321  0.10682  0.16557  1.0000
  C   C43       1.0  0.40076  0.06015  0.32163  1.0000
  H   H36       1.0  0.40602  0.03283  0.16258  1.0000
  C   C44       1.0  0.42456  0.03024  0.14176  1.0000
  C   C45       1.0  0.42491  0.08678  0.31481  1.0000
  C   C46       1.0  0.47494  0.15685  0.11297  1.0000
  C   C47       1.0  0.27749  0.23678  0.07865  1.0000
  C   C48       1.0  0.32338  0.19940  0.00377  1.0000
  C   C49       1.0  0.27834  0.33790  0.28010  1.0000
  H   H37       1.0  0.11794  0.35501  0.10492  1.0000
  H   H38       1.0  0.34646  0.38261  0.24213  1.0000
  C   C50       1.0  0.47677  0.23931  0.11641  1.0000
  S   S8        1.0  0.37154  0.18712  0.32428  1.0000
  H   H39       1.0  0.23801  0.35799  0.31296  1.0000
  H   H40       1.0  0.17421  0.32493  0.01676  1.0000
  H   H41       1.0  0.32117  0.17412  0.01386  1.0000
  C   C51       1.0  0.44546  0.14507  0.16579  1.0000
  H   H42       1.0  0.03547  0.47545  0.10077  1.0000
  C   C52       1.0  0.13221  0.36328  0.01019  1.0000
  H   H43       1.0  0.49019  0.01933  0.06710  1.0000
  C   C53       1.0  0.01341  0.47586  0.11881  1.0000
  H   H44       1.0  0.08688  0.39879  0.01229  1.0000
  Fe  Fe5       1.0  0.35433  0.09524  0.01264  1.0000
  S   S9        1.0  0.31139  0.10447  0.30918  1.0000
  H   H45       1.0  0.47605  0.23709  0.04860  1.0000
  H   H46       1.0  0.31613  0.42923  0.27177  1.0000
  H   H47       1.0  0.12136  0.44150  0.28932  1.0000
  C   C54       1.0  0.20488  0.42297  0.32363  1.0000
  H   H48       1.0  0.26910  0.31206  0.28365  1.0000
  C   C55       1.0  0.24327  0.16257  0.01669  1.0000
  C   C56       1.0  0.46276  0.03234  0.14642  1.0000
  H   H49       1.0  0.32334  0.32385  0.24844  1.0000
  C   C57       1.0  0.32214  0.37763  0.25694  1.0000
  C   C58       1.0  0.27353  0.39757  0.29338  1.0000
  C   C59       1.0  0.17874  0.43805  0.30267  1.0000
  C   C60       1.0  0.30462  0.40403  0.27354  1.0000
  C   C61       1.0  0.26070  0.36420  0.29668  1.0000
  H   H50       1.0  0.37829  0.05462  0.30486  1.0000
  C   C62       1.0  0.47120  0.16300  0.14691  1.0000
  C   C63       1.0  0.49433  0.15610  0.02554  1.0000
  C   C64       1.0  0.46647  0.21672  0.00064  1.0000
  S   S10       1.0  0.32966  0.27897  0.32955  1.0000
  H   H51       1.0  0.12667  0.26240  0.01130  1.0000
  C   C65       1.0  0.15128  0.25418  0.99847  1.0000
  Fe  Fe6       1.0  0.18917  0.45786  0.45896  1.0000
  S   S11       1.0  0.15247  0.42723  0.42611  1.0000
  C   C66       1.0  0.50592  0.15265  0.37373  1.0000
  Fe  Fe7       1.0  0.18036  0.40861  0.51798  1.0000
  S   S12       1.0  0.14258  0.37485  0.48886  1.0000
  S   S13       1.0  0.19240  0.40968  0.57343  1.0000
  Fe  Fe8       1.0  0.18289  0.38199  0.44659  1.0000
  S   S14       1.0  0.19334  0.33541  0.41418  1.0000
  Fe  Fe9       1.0  0.11578  0.42260  0.47055  1.0000
  S   S15       1.0  0.05354  0.42914  0.46687  1.0000
  S   S16       1.0  0.22249  0.41314  0.47698  1.0000
  S   S17       1.0  0.15062  0.45577  0.50216  1.0000
  C   C67       1.0  0.33599  0.06198  0.41258  1.0000
  C   C68       1.0  0.31666  0.04261  0.38956  1.0000
  C   C69       1.0  0.30906  0.05597  0.35802  1.0000
  S   S18       1.0  0.38924  0.98684  0.51105  1.0000
  C   C70       1.0  0.34116  0.10748  0.37196  1.0000
  C   C71       1.0  0.34826  0.09439  0.40353  1.0000
  H   H52       1.0  0.49868  0.15093  0.50022  1.0000
  H   H53       1.0  0.36348  0.10952  0.42089  1.0000
  C   C72       1.0  0.06464  0.48033  0.38632  1.0000
  H   H54       1.0  0.43535  0.03454  0.39523  1.0000
  C   C73       1.0  0.23206  0.31991  0.39149  1.0000
  C   C74       1.0  0.22891  0.28876  0.37502  1.0000
  C   C75       1.0  0.25851  0.27554  0.35641  1.0000
  C   C76       1.0  0.26543  0.33763  0.38921  1.0000
  H   H55       1.0  0.20335  0.27469  0.37669  1.0000
  P   P3        1.0  0.06500  0.44971  0.63733  1.0000
  H   H56       1.0  0.26846  0.36147  0.40183  1.0000
  C   C77       1.0  0.19381  0.37927  0.60590  1.0000
  C   C78       1.0  0.19377  0.34441  0.60024  1.0000
  C   C79       1.0  0.19584  0.32156  0.62705  1.0000
  C   C80       1.0  0.44587  0.12649  0.49452  1.0000
  C   C81       1.0  0.19767  0.33325  0.65976  1.0000
  C   C82       1.0  0.19566  0.39080  0.63861  1.0000
  H   H57       1.0  0.19265  0.33509  0.57526  1.0000
  H   H58       1.0  0.19627  0.29469  0.62242  1.0000
  S   S19       1.0  0.34290  0.04789  0.45360  1.0000
  H   H59       1.0  0.19632  0.41754  0.64342  1.0000
  C   C83       1.0  0.07781  0.37050  0.55529  1.0000
  C   C84       1.0  0.09285  0.48179  0.36297  1.0000
  H   H60       1.0  0.43501  0.13569  0.51767  1.0000
  H   H61       1.0  0.39706  0.09774  0.48272  1.0000
  C   C85       1.0  0.11100  0.46489  0.64565  1.0000
  C   C86       1.0  0.31344  0.43191  0.41845  1.0000
  C   C87       1.0  0.26709  0.16459  0.35876  1.0000
  H   H62       1.0  0.35082  0.13241  0.36555  1.0000
  C   C88       1.0  0.06868  0.41837  0.60538  1.0000
  H   H63       1.0  0.47627  0.15581  0.37477  1.0000
  C   C89       1.0  0.45679  0.07676  0.36667  1.0000
  C   C90       1.0  0.23376  0.27196  0.46156  1.0000
  C   C91       1.0  0.25493  0.29974  0.47119  1.0000
  C   C92       1.0  0.29332  0.29717  0.47259  1.0000
  C   C93       1.0  0.31057  0.26679  0.46436  1.0000
  C   C94       1.0  0.28948  0.23890  0.45413  1.0000
  C   C95       1.0  0.25090  0.24162  0.45309  1.0000
  P   P4        1.0  0.31153  0.19915  0.44513  1.0000
  C   C96       1.0  0.31705  0.17519  0.48290  1.0000
  C   C97       1.0  0.28362  0.17653  0.41554  1.0000
  C   C98       1.0  0.25764  0.15235  0.42607  1.0000
  C   C99       1.0  0.24271  0.13946  0.36936  1.0000
  H   H64       1.0  0.03762  0.39933  0.52860  1.0000
  C   C100      1.0  0.40484  0.04138  0.35059  1.0000
  C   C101      1.0  0.28743  0.18313  0.38166  1.0000
  C   C102      1.0  0.31913  0.19172  0.51340  1.0000
  C   C103      1.0  0.32420  0.17317  0.54247  1.0000
  C   C104      1.0  0.32734  0.13801  0.54131  1.0000
  C   C105      1.0  0.32543  0.12139  0.51109  1.0000
  C   C106      1.0  0.32046  0.13986  0.48203  1.0000
  C   C107      1.0  0.35630  0.20686  0.42680  1.0000
  C   C108      1.0  0.38613  0.18538  0.43366  1.0000
  C   C109      1.0  0.42048  0.19106  0.41890  1.0000
  C   C110      1.0  0.42524  0.21798  0.39689  1.0000
  C   C111      1.0  0.39573  0.23950  0.38998  1.0000
  C   C112      1.0  0.36144  0.23404  0.40490  1.0000
  H   H65       1.0  0.20404  0.27436  0.45985  1.0000
  H   H66       1.0  0.24150  0.32345  0.47695  1.0000
  H   H67       1.0  0.30964  0.31883  0.47985  1.0000
  H   H68       1.0  0.34032  0.26512  0.46595  1.0000
  H   H69       1.0  0.23395  0.22053  0.44547  1.0000
  H   H70       1.0  0.25304  0.14759  0.45201  1.0000
  C   C113      1.0  0.23769  0.13356  0.40302  1.0000
  H   H71       1.0  0.32048  0.33858  0.36864  1.0000
  H   H72       1.0  0.30037  0.03619  0.64818  1.0000
  H   H73       1.0  0.30629  0.20223  0.37265  1.0000
  H   H74       1.0  0.31687  0.21890  0.51490  1.0000
  H   H75       1.0  0.32562  0.18612  0.56590  1.0000
  H   H76       1.0  0.33118  0.12361  0.56379  1.0000
  H   H77       1.0  0.32776  0.09409  0.51000  1.0000
  H   H78       1.0  0.31910  0.12643  0.45893  1.0000
  H   H79       1.0  0.38299  0.16407  0.45013  1.0000
  H   H80       1.0  0.44327  0.17434  0.42431  1.0000
  H   H81       1.0  0.45159  0.22197  0.38482  1.0000
  H   H82       1.0  0.39904  0.26000  0.37239  1.0000
  H   H83       1.0  0.33876  0.25068  0.39872  1.0000
  H   H84       1.0  0.29366  0.04107  0.34048  1.0000
  H   H85       1.0  0.11793  0.34755  0.58729  1.0000
  C   C114      1.0  0.03541  0.46909  0.47754  1.0000
  C   C115      1.0  0.48631  0.04947  0.63358  1.0000
  C   C116      1.0  0.43854  0.09304  0.44514  1.0000
  H   H86       1.0  0.21243  0.38751  0.36377  1.0000
  C   C117      1.0  0.49575  0.12297  0.45492  1.0000
  C   C118      1.0  0.29171  0.29347  0.35379  1.0000
  C   C119      1.0  0.09812  0.36776  0.58434  1.0000
  H   H87       1.0  0.23381  0.45829  0.38288  1.0000
  C   C120      1.0  0.26056  0.44643  0.38486  1.0000
  C   C121      1.0  0.45301  0.09485  0.33697  1.0000
  P   P5        1.0  0.49301  0.08699  0.39591  1.0000
  C   C122      1.0  0.47425  0.10195  0.43466  1.0000
  C   C123      1.0  0.29494  0.32452  0.37041  1.0000
  H   H88       1.0  0.30675  0.01773  0.39632  1.0000
  C   C124      1.0  0.04767  0.42048  0.57643  1.0000
  H   H89       1.0  0.42115  0.07667  0.43080  1.0000
  H   H90       1.0  0.14665  0.37274  0.36827  1.0000
  H   H91       1.0  0.35235  0.00775  0.62010  1.0000
  C   C125      1.0  0.09368  0.39161  0.60929  1.0000
  C   C126      1.0  0.32123  0.08850  0.34909  1.0000
  C   C127      1.0  0.05269  0.39686  0.55137  1.0000
  H   H92       1.0  0.45995  0.06216  0.63156  1.0000
  C   C128      1.0  0.42452  0.10520  0.47490  1.0000
  C   C129      1.0  0.48509  0.01903  0.50099  1.0000
  C   C130      1.0  0.01797  0.32630  0.61388  1.0000
  C   C131      1.0  0.27911  0.44740  0.41502  1.0000
  H   H93       1.0  0.49693  0.01896  0.36550  1.0000
  H   H94       1.0  0.22811  0.12433  0.35139  1.0000
  C   C132      1.0  0.32960  0.41582  0.39153  1.0000
  H   H95       1.0  0.35613  0.40356  0.39420  1.0000
  C   C133      1.0  0.43266  0.04959  0.37299  1.0000
  H   H96       1.0  0.08178  0.35238  0.53569  1.0000
  H   H97       1.0  0.11809  0.46780  0.36707  1.0000
  H   H98       1.0  0.13016  0.45895  0.59525  1.0000
  H   H99       1.0  0.27104  0.16899  0.33264  1.0000
  C   C134      1.0  0.35298  0.01134  0.64661  1.0000
  C   C135      1.0  0.15549  0.39114  0.34998  1.0000
  C   C136      1.0  0.32363  0.02728  0.66249  1.0000
  Fe  Fe10      1.0  0.35185  0.99273  0.46738  1.0000
  H   H100      1.0  0.04485  0.31544  0.60915  1.0000
  H   H101      1.0  0.45647  0.02122  0.49402  1.0000
  H   H102      1.0  0.21872  0.11408  0.41122  1.0000
  H   H103      1.0  0.48909  0.07073  0.51712  1.0000
  H   H104      1.0  0.06795  0.46496  0.40823  1.0000
  H   H105      1.0  0.26687  0.46026  0.43582  1.0000
  H   H106      1.0  0.32744  0.43240  0.44202  1.0000
  H   H107      1.0  0.11045  0.38952  0.63129  1.0000
  C   C137      1.0  0.13683  0.46744  0.61990  1.0000
  C   C138      1.0  0.48157  0.13522  0.48461  1.0000
  H   H108      1.0  0.32478  0.40283  0.34069  1.0000
  H   H109      1.0  0.38576  0.02100  0.35613  1.0000
  C   C139      1.0  0.27683  0.43080  0.35749  1.0000
  C   C140      1.0  0.31155  0.41544  0.36110  1.0000
  H   H110      1.0  0.02790  0.44049  0.57269  1.0000
  H   H111      1.0  0.19220  0.48102  0.60595  1.0000
  C   C141      1.0  0.19286  0.39962  0.34744  1.0000
  H   H112      1.0  0.46213  0.00014  0.57463  1.0000
  C   C142      1.0  0.49199  0.02519  0.65821  1.0000
  C   C143      1.0  0.50372  0.98847  0.49633  1.0000
  H   H113      1.0  0.40468  0.98580  0.65255  1.0000
  C   C144      1.0  0.17213  0.48030  0.62582  1.0000
  H   H114      1.0  0.25550  0.25163  0.34389  1.0000
  C   C145      1.0  0.50379  0.04733  0.51381  1.0000
  H   H115      1.0  0.02044  0.40005  0.37140  1.0000
  H   H116      1.0  0.47137  0.11531  0.33051  1.0000
  H   H117      1.0  0.10078  0.39966  0.33136  1.0000
  Fe  Fe11      1.0  0.20588  0.29356  0.81865  1.0000
  S   S20       1.0  0.24243  0.32311  0.78368  1.0000
  S   S21       1.0  0.21603  0.24898  0.85390  1.0000
  Fe  Fe12      1.0  0.13695  0.33379  0.79849  1.0000
  S   S22       1.0  0.16781  0.36664  0.76279  1.0000
  S   S23       1.0  0.07702  0.34344  0.81077  1.0000
  Fe  Fe13      1.0  0.19582  0.31903  0.74684  1.0000
  P   P6        1.0  0.35144  0.02088  0.76008  1.0000
  Fe  Fe14      1.0  0.21147  0.36883  0.80209  1.0000
  S   S24       1.0  0.23648  0.42059  0.81030  1.0000
  S   S25       1.0  0.16168  0.28560  0.78026  1.0000
  S   S26       1.0  0.17821  0.33985  0.83924  1.0000
  Fe  Fe15      1.0  0.36125  0.12968  0.94438  1.0000
  C   C146      1.0  0.35354  0.01868  0.71551  1.0000
  S   S27       1.0  0.35977  0.17838  0.91391  1.0000
  Fe  Fe16      1.0  0.41477  0.07346  0.96484  1.0000
  H   H118      1.0  0.25532  0.45821  0.74019  1.0000
  S   S28       1.0  0.47510  0.05930  0.96067  1.0000
  Fe  Fe17      1.0  0.33513  0.05691  0.94970  1.0000
  S   S29       1.0  0.29010  0.02258  0.93145  1.0000
  H   H119      1.0  0.29948  0.03695  0.81426  1.0000
  S   S30       1.0  0.37961  0.08174  0.91978  1.0000
  C   C147      1.0  0.19724  0.36805  0.66535  1.0000
  H   H120      1.0  0.11309  0.35486  0.89763  1.0000
  C   C148      1.0  0.25658  0.23040  0.87060  1.0000
  C   C149      1.0  0.25309  0.20043  0.88910  1.0000
  C   C150      1.0  0.28425  0.18434  0.90273  1.0000
  C   C151      1.0  0.31944  0.19812  0.89802  1.0000
  C   C152      1.0  0.32292  0.22838  0.87989  1.0000
  C   C153      1.0  0.29167  0.24451  0.86633  1.0000
  H   H121      1.0  0.22601  0.18970  0.89307  1.0000
  H   H122      1.0  0.28107  0.16128  0.91683  1.0000
  H   H123      1.0  0.34997  0.23937  0.87623  1.0000
  H   H124      1.0  0.29478  0.26768  0.85235  1.0000
  C   C154      1.0  0.23691  0.43965  0.84959  1.0000
  S   S31       1.0  0.31418  0.10537  0.97149  1.0000
  C   C155      1.0  0.18964  0.33178  0.92736  1.0000
  H   H125      1.0  0.23028  0.30639  0.89759  1.0000
  C   C156      1.0  0.23742  0.43613  0.90931  1.0000
  C   C157      1.0  0.23428  0.42039  0.87844  1.0000
  H   H126      1.0  0.24476  0.25361  0.73243  1.0000
  C   C158      1.0  0.08532  0.45261  0.93552  1.0000
  C   C159      1.0  0.22562  0.32275  0.91855  1.0000
  H   H127      1.0  0.23130  0.39326  0.87696  1.0000
  C   C160      1.0  0.02409  0.29060  0.73931  1.0000
  C   C161      1.0  0.05206  0.30482  0.75886  1.0000
  C   C162      1.0  0.04281  0.32451  0.78616  1.0000
  C   C163      1.0  0.22500  0.14903  0.98918  1.0000
  H   H128      1.0  0.46980  0.01938  0.67524  1.0000
  H   H129      1.0  0.08074  0.30059  0.75274  1.0000
  H   H130      1.0  0.06759  0.31610  0.87289  1.0000
  H   H131      1.0  0.09758  0.41101  0.69234  1.0000
  C   C164      1.0  0.11514  0.42910  0.80773  1.0000
  S   S32       1.0  0.20166  0.30381  0.69285  1.0000
  C   C165      1.0  0.49416  0.02340  0.98026  1.0000
  H   H132      1.0  0.08306  0.31714  0.99418  1.0000
  S   S33       1.0  0.37155  0.04469  0.99266  1.0000
  C   C166      1.0  0.23519  0.10018  0.69888  1.0000
  H   H133      1.0  0.23872  0.22466  0.95180  1.0000
  H   H134      1.0  0.10169  0.40914  0.79408  1.0000
  C   C167      1.0  0.05226  0.39391  0.72206  1.0000
  C   C168      1.0  0.30739  0.00350  0.77261  1.0000
  H   H135      1.0  0.21516  0.16511  0.96954  1.0000
  H   H136      1.0  0.03136  0.27529  0.71828  1.0000
  C   C169      1.0  0.28814  0.01670  0.79972  1.0000
  C   C170      1.0  0.25436  0.23495  0.75010  1.0000
  C   C171      1.0  0.10472  0.14620  0.77457  1.0000
  C   C172      1.0  0.09477  0.17800  0.78642  1.0000
  C   C173      1.0  0.12168  0.19943  0.79941  1.0000
  C   C174      1.0  0.15857  0.18926  0.80021  1.0000
  C   C175      1.0  0.16899  0.15770  0.78764  1.0000
  C   C176      1.0  0.14165  0.13595  0.77531  1.0000
  P   P7        1.0  0.21697  0.14515  0.78833  1.0000
  C   C177      1.0  0.22415  0.11412  0.75637  1.0000
  C   C178      1.0  0.24496  0.18213  0.77990  1.0000
  C   C179      1.0  0.23320  0.20610  0.75651  1.0000
  C   C180      1.0  0.29395  0.98936  0.90285  1.0000
  H   H137      1.0  0.24105  0.10822  0.67384  1.0000
  C   C181      1.0  0.29941  0.21649  0.79017  1.0000
  C   C182      1.0  0.27812  0.18774  0.79691  1.0000
  C   C183      1.0  0.23250  0.12418  0.72396  1.0000
  S   S34       1.0  0.40023  0.12337  0.98747  1.0000
  C   C184      1.0  0.33041  0.26436  0.97696  1.0000
  C   C185      1.0  0.22859  0.12676  0.82783  1.0000
  C   C186      1.0  0.26070  0.10721  0.83128  1.0000
  C   C187      1.0  0.26949  0.09253  0.86170  1.0000
  C   C188      1.0  0.24629  0.09717  0.88880  1.0000
  C   C189      1.0  0.21433  0.11657  0.88556  1.0000
  C   C190      1.0  0.20552  0.13139  0.85524  1.0000
  H   H138      1.0  0.08377  0.12960  0.76456  1.0000
  H   H139      1.0  0.15177  0.44476  0.88314  1.0000
  C   C191      1.0  0.38866  0.99655  0.77759  1.0000
  H   H140      1.0  0.17903  0.20627  0.81025  1.0000
  H   H141      1.0  0.14868  0.11127  0.76594  1.0000
  H   H142      1.0  0.20739  0.20285  0.74345  1.0000
  H   H143      1.0  0.02979  0.27844  0.90804  1.0000
  C   C192      1.0  0.14304  0.44928  0.85801  1.0000
  C   C193      1.0  0.46903  0.18849  0.98023  1.0000
  H   H144      1.0  0.28725  0.17059  0.81599  1.0000
  H   H145      1.0  0.23620  0.15055  0.71772  1.0000
  C   C194      1.0  0.01396  0.39256  0.72574  1.0000
  H   H146      1.0  0.27895  0.10342  0.81050  1.0000
  H   H147      1.0  0.29432  0.07757  0.86452  1.0000
  H   H148      1.0  0.25326  0.08586  0.91236  1.0000
  H   H149      1.0  0.19653  0.12046  0.90661  1.0000
  H   H150      1.0  0.18093  0.14673  0.85348  1.0000
  C   C195      1.0  0.18329  0.35347  0.95409  1.0000
  C   C196      1.0  0.10248  0.33832  0.94775  1.0000
  C   C197      1.0  0.25560  0.33512  0.93636  1.0000
  C   C198      1.0  0.06785  0.41110  0.69523  1.0000
  H   H151      1.0  0.35297  0.99099  0.89591  1.0000
  C   C199      1.0  0.42479  0.00945  0.77647  1.0000
  C   C200      1.0  0.22945  0.06599  0.70590  1.0000
  C   C201      1.0  0.09710  0.33827  0.91349  1.0000
  C   C202      1.0  0.35480  0.06357  0.77574  1.0000
  C   C203      1.0  0.36560  0.06883  0.80860  1.0000
  C   C204      1.0  0.36677  0.10147  0.82162  1.0000
  C   C205      1.0  0.35729  0.12914  0.80200  1.0000
  C   C206      1.0  0.34650  0.12421  0.76931  1.0000
  C   C207      1.0  0.34527  0.09158  0.75617  1.0000
  H   H152      1.0  0.33305  0.28932  0.96618  1.0000
  P   P8        1.0  0.13689  0.36574  0.96596  1.0000
  C   C208      1.0  0.38287  0.00238  0.69932  1.0000
  C   C209      1.0  0.15540  0.43398  0.95750  1.0000
  H   H153      1.0  0.03737  0.27946  0.96881  1.0000
  C   C210      1.0  0.15158  0.47997  0.84255  1.0000
  C   C211      1.0  0.21886  0.07960  0.76325  1.0000
  H   H154      1.0  0.27390  0.27142  0.99072  1.0000
  C   C212      1.0  0.07128  0.31642  0.89935  1.0000
  H   H155      1.0  0.20533  0.10376  0.96548  1.0000
  C   C213      1.0  0.12417  0.45945  0.79202  1.0000
  H   H156      1.0  0.23092  0.04746  0.68634  1.0000
  H   H157      1.0  0.11832  0.40003  0.85250  1.0000
  C   C214      1.0  0.21451  0.23292  0.96518  1.0000
  H   H158      1.0  0.45953  0.18984  0.95492  1.0000
  C   C215      1.0  0.28745  0.24015  0.76692  1.0000
  H   H159      1.0  0.43014  0.03436  0.76638  1.0000
  H   H160      1.0  0.37480  0.10539  0.84707  1.0000
  C   C216      1.0  0.25408  0.00305  0.80906  1.0000
  H   H161      1.0  0.13092  0.26805  0.95027  1.0000
  H   H162      1.0  0.33679  0.08850  0.73087  1.0000
  C   C217      1.0  0.04999  0.29508  0.91920  1.0000
  H   H163      1.0  0.48210  0.99986  0.78675  1.0000
  H   H164      1.0  0.11406  0.22415  0.80859  1.0000
  H   H165      1.0  0.16724  0.32158  0.91304  1.0000
  C   C218      1.0  0.09290  0.41874  0.94268  1.0000
  H   H166      1.0  0.23997  0.01262  0.83065  1.0000
  H   H167      1.0  0.10069  0.47621  0.69700  1.0000
  H   H168      1.0  0.33898  0.14576  0.75419  1.0000
  C   C219      1.0  0.32384  0.03080  0.69677  1.0000
  H   H169      1.0  0.06624  0.18616  0.78545  1.0000
  H   H170      1.0  0.05793  0.46008  0.92790  1.0000
  H   H171      1.0  0.21719  0.02916  0.74355  1.0000
  H   H172      1.0  0.30048  0.04230  0.70886  1.0000
  H   H173      1.0  0.06981  0.38106  0.73974  1.0000
  C   C220      1.0  0.45431  0.98999  0.78783  1.0000
  C   C221      1.0  0.08037  0.31722  0.96765  1.0000
  H   H174      1.0  0.19557  0.46468  0.76744  1.0000
  H   H175      1.0  0.07092  0.40043  0.94046  1.0000
  H   H176      1.0  0.35819  0.15439  0.81229  1.0000
  H   H177      1.0  0.27294  0.36633  0.97683  1.0000
  H   H178      1.0  0.32460  0.22102  0.80381  1.0000
  C   C222      1.0  0.15360  0.25755  0.96421  1.0000
  H   H179      1.0  0.21167  0.07116  0.78787  1.0000
  H   H180      1.0  0.37245  0.04763  0.82445  1.0000
  H   H181      1.0  0.30341  0.26289  0.76234  1.0000
  C   C223      1.0  0.12818  0.40899  0.95346  1.0000
  H   H182      1.0  0.28343  0.32855  0.92901  1.0000
  H   H183      1.0  0.23724  0.42096  0.93144  1.0000
  C   C224      1.0  0.22167  0.05568  0.73812  1.0000
  C   C225      1.0  0.05437  0.29562  0.95337  1.0000
  C   C226      1.0  0.04512  0.42747  0.67212  1.0000
  C   C227      1.0  0.12455  0.42397  0.84070  1.0000
  C   C228      1.0  0.18528  0.24709  0.94764  1.0000
  C   C229      1.0  0.14772  0.46776  0.95020  1.0000
  H   H184      1.0  0.38639  0.25023  0.96581  1.0000
  H   H185      1.0  0.18716  0.24978  0.92107  1.0000
  H   H186      1.0  0.18249  0.42790  0.96669  1.0000
  H   H187      1.0  0.19899  0.37748  0.69026  1.0000
  C   C230      1.0  0.21373  0.36535  0.97217  1.0000
  H   H188      1.0  0.44369  0.00137  0.91559  1.0000
  C   C231      1.0  0.24966  0.35629  0.96327  1.0000
  C   C232      1.0  0.29679  0.25390  0.99053  1.0000
  H   H189      1.0  0.11796  0.46229  0.76608  1.0000
  C   C233      1.0  0.24142  0.47483  0.85193  1.0000
  C   C234      1.0  0.11276  0.47708  0.93923  1.0000
  C   C235      1.0  0.24157  0.47131  0.91173  1.0000
  C   C236      1.0  0.12055  0.47669  0.67706  1.0000
  H   H190      1.0  0.03471  0.47408  0.84493  1.0000
  H   H191      1.0  0.40549  0.99136  0.71294  1.0000
  C   C237      1.0  0.21927  0.11415  0.98671  1.0000
  H   H192      1.0  0.48486  0.13618  0.97692  1.0000
  C   C238      1.0  0.24475  0.48339  0.74476  1.0000
  H   H193      1.0  0.20981  0.38194  0.99303  1.0000
  H   H194      1.0  0.45529  0.24011  0.99104  1.0000
  C   C239      1.0  0.36056  0.24249  0.97699  1.0000
  C   C240      1.0  0.38256  0.99894  0.66500  1.0000
  C   C241      1.0  0.48328  0.15827  0.99263  1.0000
  C   C242      1.0  0.35719  0.21030  0.99087  1.0000
  H   H195      1.0  0.38060  0.19345  0.99066  1.0000
  H   H196      1.0  0.02232  0.32081  0.66670  1.0000
  Fe  Fe18      1.0  0.21395  0.69538  0.24631  1.0000
  S   S35       1.0  0.20552  0.74266  0.27639  1.0000
  S   S36       1.0  0.22023  0.70105  0.19047  1.0000
  H   H197      1.0  0.13103  0.56531  0.04881  1.0000
  C   C243      1.0  0.07561  0.65206  0.30890  1.0000
  Fe  Fe19      1.0  0.23964  0.71803  0.31600  1.0000
  Fe  Fe20      1.0  0.15786  0.71497  0.29901  1.0000
  S   S37       1.0  0.10296  0.74084  0.30699  1.0000
  H   H198      1.0  0.47262  0.95388  0.02652  1.0000
  H   H199      1.0  0.04292  0.62163  0.27688  1.0000
  S   S38       1.0  0.16372  0.66974  0.26662  1.0000
  S   S39       1.0  0.25228  0.67253  0.28384  1.0000
  S   S40       1.0  0.23122  0.58392  0.08298  1.0000
  C   C244      1.0  0.25566  0.85723  0.19510  1.0000
  C   C245      1.0  0.09040  0.79727  0.11331  1.0000
  S   S41       1.0  0.19172  0.53788  0.01036  1.0000
  C   C246      1.0  0.22342  0.66804  0.16107  1.0000
  C   C247      1.0  0.22943  0.63443  0.17031  1.0000
  C   C248      1.0  0.23202  0.60913  0.14604  1.0000
  C   C249      1.0  0.22819  0.61701  0.11234  1.0000
  C   C250      1.0  0.22207  0.65062  0.10313  1.0000
  C   C251      1.0  0.22011  0.67599  0.12738  1.0000
  H   H200      1.0  0.23233  0.62800  0.19610  1.0000
  H   H201      1.0  0.23695  0.58325  0.15338  1.0000
  H   H202      1.0  0.21922  0.65708  0.07734  1.0000
  H   H203      1.0  0.21609  0.70195  0.12002  1.0000
  C   C252      1.0  0.07125  0.73527  0.27460  1.0000
  P   P9        1.0  0.05542  0.55170  0.29679  1.0000
  H   H204      1.0  0.06700  0.70761  0.19563  1.0000
  C   C253      1.0  0.05771  0.71682  0.21908  1.0000
  C   C254      1.0  0.08327  0.72326  0.24414  1.0000
  C   C255      1.0  0.10486  0.49579  0.22440  1.0000
  H   H205      1.0  0.11232  0.71920  0.23977  1.0000
  C   C256      1.0  0.08091  0.50661  0.24928  1.0000
  H   H206      1.0  0.06661  0.67517  0.29756  1.0000
  C   C257      1.0  0.43997  0.85113  0.04195  1.0000
  H   H207      1.0  0.26251  0.56037  0.25638  1.0000
  C   C258      1.0  0.11606  0.55852  0.25423  1.0000
  C   C259      1.0  0.09071  0.51921  0.12523  1.0000
  H   H208      1.0  0.20076  0.87677  0.18611  1.0000
  H   H209      1.0  0.20627  0.77055  0.19504  1.0000
  C   C260      1.0  0.25804  0.50657  0.24880  1.0000
  C   C261      1.0  0.26195  0.53561  0.26792  1.0000
  H   H210      1.0  0.07988  0.50648  0.14685  1.0000
  C   C262      1.0  0.12781  0.80276  0.11977  1.0000
  C   C263      1.0  0.27763  0.90167  0.14458  1.0000
  C   C264      1.0  0.24055  0.89979  0.15395  1.0000
  C   C265      1.0  0.28726  0.77951  0.25635  1.0000
  C   C266      1.0  0.11995  0.79692  0.21350  1.0000
  H   H211      1.0  0.03631  0.67292  0.13232  1.0000
  H   H212      1.0  0.32046  0.74042  0.27833  1.0000
  H   H213      1.0  0.02378  0.74881  0.30381  1.0000
  C   C267      1.0  0.19402  0.81643  0.22177  1.0000
  C   C268      1.0  0.02119  0.68223  0.11119  1.0000
  C   C269      1.0  0.24680  0.85000  0.26688  1.0000
  H   H214      1.0  0.36633  0.97724  0.05685  1.0000
  H   H215      1.0  0.06593  0.57232  0.06264  1.0000
  H   H216      1.0  0.20582  0.81923  0.29199  1.0000
  C   C270      1.0  0.26302  0.50116  0.31738  1.0000
  C   C271      1.0  0.47732  0.85335  0.03358  1.0000
  H   H217      1.0  0.12171  0.58258  0.26583  1.0000
  H   H218      1.0  0.29050  0.88374  0.25064  1.0000
  P   P10       1.0  0.24175  0.82876  0.22777  1.0000
  C   C272      1.0  0.01768  0.57688  0.15031  1.0000
  H   H219      1.0  0.14532  0.49841  0.13119  1.0000
  Fe  Fe21      1.0  0.21941  0.58550  0.02757  1.0000
  H   H220      1.0  0.16363  0.56300  0.22270  1.0000
  Fe  Fe22      1.0  0.20104  0.64934  0.30618  1.0000
  C   C273      1.0  0.48936  0.97195  0.01310  1.0000
  C   C274      1.0  0.15342  0.77722  0.11366  1.0000
  H   H221      1.0  0.03197  0.72021  0.03618  1.0000
  H   H222      1.0  0.33257  0.88307  0.15332  1.0000
  C   C275      1.0  0.14162  0.74619  0.10117  1.0000
  P   P11       1.0  0.08920  0.69875  0.08222  1.0000
  C   C276      1.0  0.06782  0.54006  0.10604  1.0000
  C   C277      1.0  0.10314  0.68918  0.04046  1.0000
  C   C278      1.0  0.06170  0.62145  0.29761  1.0000
  H   H223      1.0  0.26700  0.55549  0.31697  1.0000
  H   H224      1.0  0.49822  0.84381  0.05025  1.0000
  C   C279      1.0  0.13014  0.70857  0.02413  1.0000
  H   H225      1.0  0.06491  0.64728  0.03549  1.0000
  C   C280      1.0  0.08544  0.66295  0.02336  1.0000
  C   C281      1.0  0.27765  0.89128  0.30158  1.0000
  C   C282      1.0  0.10876  0.66977  0.11186  1.0000
  C   C283      1.0  0.11228  0.67989  0.14483  1.0000
  C   C284      1.0  0.12731  0.65816  0.16838  1.0000
  C   C285      1.0  0.13940  0.62619  0.15910  1.0000
  C   C286      1.0  0.13685  0.61618  0.12624  1.0000
  C   C287      1.0  0.12140  0.63774  0.10260  1.0000
  H   H226      1.0  0.18236  0.78115  0.11920  1.0000
  H   H227      1.0  0.16163  0.72629  0.09731  1.0000
  H   H228      1.0  0.14448  0.72879  0.03651  1.0000
  C   C288      1.0  0.04637  0.60876  0.19463  1.0000
  H   H229      1.0  0.04927  0.76226  0.09693  1.0000
  H   H230      1.0  0.13080  0.66658  0.19356  1.0000
  H   H231      1.0  0.15235  0.60979  0.17705  1.0000
  H   H232      1.0  0.14858  0.59232  0.11891  1.0000
  H   H233      1.0  0.12043  0.62969  0.07717  1.0000
  H   H234      1.0  0.22029  0.91554  0.14175  1.0000
  H   H235      1.0  0.31362  0.84421  0.19792  1.0000
  C   C289      1.0  0.14015  0.54745  0.22963  1.0000
  C   C290      1.0  0.37546  0.94192  0.01741  1.0000
  C   C291      1.0  0.01997  0.72178  0.22424  1.0000
  H   H236      1.0  0.01553  0.61265  0.08655  1.0000
  C   C292      1.0  0.03943  0.69613  0.08375  1.0000
  C   C293      1.0  0.01464  0.49244  0.01136  1.0000
  H   H237      1.0  0.01590  0.53531  0.23458  1.0000
  C   C294      1.0  0.09132  0.50042  0.01431  1.0000
  C   C295      1.0  0.31615  0.73425  0.22579  1.0000
  C   C296      1.0  0.30140  0.74710  0.19657  1.0000
  C   C297      1.0  0.27954  0.77614  0.19716  1.0000
  C   C298      1.0  0.27189  0.79238  0.22711  1.0000
  H   H238      1.0  0.33225  0.71124  0.22544  1.0000
  C   C299      1.0  0.22956  0.87770  0.17914  1.0000
  C   C300      1.0  0.08270  0.55648  0.07832  1.0000
  C   C301      1.0  0.30935  0.75061  0.25559  1.0000
  C   C302      1.0  0.08598  0.53829  0.26407  1.0000
  H   H239      1.0  0.43185  0.83954  0.06508  1.0000
  C   C303      1.0  0.22958  0.85580  0.32449  1.0000
  H   H240      1.0  0.13689  0.82662  0.12995  1.0000
  H   H241      1.0  0.17117  0.52816  0.08253  1.0000
  C   C304      1.0  0.14231  0.53121  0.08902  1.0000
  H   H242      1.0  0.10404  0.70494  0.15220  1.0000
  C   C305      1.0  0.10410  0.74040  0.09466  1.0000
  C   C306      1.0  0.27311  0.87579  0.27090  1.0000
  H   H243      1.0  0.29828  0.91086  0.30475  1.0000
  H   H244      1.0  0.28608  0.91883  0.12509  1.0000
  H   H245      1.0  0.09144  0.78894  0.21099  1.0000
  C   C307      1.0  0.18505  0.78673  0.20475  1.0000
  H   H246      1.0  0.07039  0.61477  0.20938  1.0000
  H   H247      1.0  0.07461  0.57155  0.16619  1.0000
  C   C308      1.0  0.12776  0.51467  0.11660  1.0000
  H   H248      1.0  0.07044  0.81688  0.11848  1.0000
  C   C309      1.0  0.07850  0.76620  0.10085  1.0000
  H   H249      1.0  0.30573  0.73379  0.17362  1.0000
  H   H250      1.0  0.26769  0.78525  0.17434  1.0000
  C   C310      1.0  0.03333  0.74017  0.28003  1.0000
  C   C311      1.0  0.04860  0.58421  0.16999  1.0000
  C   C312      1.0  0.07215  0.59115  0.31288  1.0000
  C   C313      1.0  0.30380  0.88153  0.16047  1.0000
  H   H251      1.0  0.05842  0.49033  0.25704  1.0000
  C   C314      1.0  0.29292  0.85943  0.18567  1.0000
  H   H252      1.0  0.01166  0.64550  0.21854  1.0000
  C   C315      1.0  0.01849  0.70888  0.05738  1.0000
  S   S42       1.0  0.19176  0.59282  0.31337  1.0000
  H   H253      1.0  0.15332  0.50775  0.19560  1.0000
  C   C316      1.0  0.16531  0.83671  0.23393  1.0000
  H   H254      1.0  0.14182  0.75342  0.18847  1.0000
  C   C317      1.0  0.12847  0.82685  0.22996  1.0000
  H   H255      1.0  0.17134  0.85996  0.24682  1.0000
  H   H256      1.0  0.28176  0.79107  0.27998  1.0000
  C   C318      1.0  0.14825  0.77694  0.20083  1.0000
  P   P12       1.0  0.02009  0.54611  0.11756  1.0000
  C   C319      1.0  0.48788  0.86861  0.00396  1.0000
  C   C320      1.0  0.22542  0.83981  0.29409  1.0000
  H   H257      1.0  0.10647  0.84208  0.24016  1.0000
  H   H258      1.0  0.25593  0.50881  0.22225  1.0000
  H   H259      1.0  0.12093  0.50307  0.01544  1.0000
  C   C321      1.0  0.11982  0.55227  0.07010  1.0000
  C   C322      1.0  0.13446  0.51622  0.21458  1.0000
  H   H260      1.0  0.40290  0.93568  0.02593  1.0000
  H   H261      1.0  0.38440  0.86317  0.02790  1.0000
  C   C323      1.0  0.35495  0.96575  0.03494  1.0000
  H   H262      1.0  0.11199  0.50396  0.31794  1.0000
  C   C324      1.0  0.25592  0.88129  0.32836  1.0000
  C   C325      1.0  0.41320  0.86441  0.02078  1.0000
  C   C326      1.0  0.32024  0.97566  0.02359  1.0000
  C   C327      1.0  0.26461  0.53286  0.30213  1.0000
  S   S43       1.0  0.17795  0.61890  0.00287  1.0000
  C   C328      1.0  0.01337  0.62608  0.19984  1.0000
  C   C329      1.0  0.03161  0.52152  0.99814  1.0000
  C   C330      1.0  0.07007  0.52561  0.99937  1.0000
  C   C331      1.0  0.00873  0.55902  0.28238  1.0000
  C   C332      1.0  0.00762  0.73314  0.25493  1.0000
  Fe  Fe23      1.0  0.34535  0.91578  0.45773  1.0000
  S   S44       1.0  0.31252  0.95369  0.48746  1.0000
  S   S45       1.0  0.30592  0.87889  0.43094  1.0000
  Fe  Fe24      1.0  0.41843  0.94893  0.48026  1.0000
  H   H263      1.0  0.26421  0.50004  0.34397  1.0000
  S   S46       1.0  0.48126  0.95227  0.47981  1.0000
  Fe  Fe25      1.0  0.35339  0.94389  0.52817  1.0000
  S   S47       1.0  0.33880  0.94287  0.58323  1.0000
  H   H264      1.0  0.06881  0.49226  0.57841  1.0000
  C   C333      1.0  0.49662  0.84727  0.53046  1.0000
  S   S48       1.0  0.38481  0.90471  0.49985  1.0000
  S   S49       1.0  0.38247  0.95613  0.43541  1.0000
  C   C334      1.0  0.34258  0.90902  0.61207  1.0000
  C   C335      1.0  0.35239  0.87631  0.60260  1.0000
  C   C336      1.0  0.35309  0.84993  0.62612  1.0000
  C   C337      1.0  0.10817  0.63433  0.43490  1.0000
  H   H265      1.0  0.41474  0.95490  0.57497  1.0000
  C   C338      1.0  0.33471  0.91516  0.64548  1.0000
  H   H266      1.0  0.35886  0.87122  0.57709  1.0000
  H   H267      1.0  0.35963  0.82461  0.61832  1.0000
  H   H268      1.0  0.21290  0.84791  0.34531  1.0000
  S   S50       1.0  0.28714  0.74479  0.34340  1.0000
  H   H269      1.0  0.26492  0.79154  0.63099  1.0000
  C   C339      1.0  0.33205  0.82395  0.39426  1.0000
  C   C340      1.0  0.30155  0.84158  0.40642  1.0000
  C   C341      1.0  0.26599  0.82936  0.39884  1.0000
  C   C342      1.0  0.26093  0.80011  0.37940  1.0000
  H   H270      1.0  0.35954  0.83310  0.39936  1.0000
  H   H271      1.0  0.24213  0.84278  0.40794  1.0000
  H   H272      1.0  0.23343  0.79112  0.37390  1.0000
  S   S51       1.0  0.21203  0.51013  0.44691  1.0000
  C   C343      1.0  0.18391  0.53712  0.35314  1.0000
  C   C344      1.0  0.18762  0.51842  0.38254  1.0000
  C   C345      1.0  0.20429  0.53311  0.41005  1.0000
  C   C346      1.0  0.21623  0.56688  0.40810  1.0000
  C   C347      1.0  0.21167  0.58584  0.37896  1.0000
  H   H273      1.0  0.17843  0.49247  0.38370  1.0000
  H   H274      1.0  0.22936  0.57835  0.42922  1.0000
  H   H275      1.0  0.22125  0.61171  0.37769  1.0000
  H   H276      1.0  0.06195  0.54858  0.49914  1.0000
  C   C348      1.0  0.04365  0.52776  0.49345  1.0000
  C   C349      1.0  0.04764  0.50238  0.59447  1.0000
  C   C350      1.0  0.43334  0.80460  0.64787  1.0000
  C   C351      1.0  0.09811  0.59190  0.33854  1.0000
  C   C352      1.0  0.26891  0.88585  0.53071  1.0000
  C   C353      1.0  0.24191  0.89374  0.50742  1.0000
  C   C354      1.0  0.22975  0.86911  0.48537  1.0000
  C   C355      1.0  0.24446  0.83649  0.48664  1.0000
  C   C356      1.0  0.27145  0.82830  0.51010  1.0000
  C   C357      1.0  0.28386  0.85339  0.53186  1.0000
  P   P13       1.0  0.29180  0.78667  0.51148  1.0000
  C   C358      1.0  0.26197  0.75648  0.49137  1.0000
  C   C359      1.0  0.33514  0.78666  0.48941  1.0000
  C   C360      1.0  0.35000  0.75608  0.47804  1.0000
  C   C361      1.0  0.38250  0.75597  0.45946  1.0000
  C   C362      1.0  0.40051  0.78633  0.45221  1.0000
  C   C363      1.0  0.38614  0.81679  0.46373  1.0000
  C   C364      1.0  0.35352  0.81700  0.48215  1.0000
  C   C365      1.0  0.23909  0.73472  0.50967  1.0000
  C   C366      1.0  0.21734  0.71060  0.49357  1.0000
  C   C367      1.0  0.21821  0.70817  0.45919  1.0000
  C   C368      1.0  0.24063  0.73001  0.44083  1.0000
  C   C369      1.0  0.26239  0.75404  0.45683  1.0000
  C   C370      1.0  0.29908  0.77511  0.55420  1.0000
  C   C371      1.0  0.32941  0.75522  0.56350  1.0000
  H   H277      1.0  0.12652  0.76078  0.37054  1.0000
  H   H278      1.0  0.14832  0.75110  0.47405  1.0000
  C   C372      1.0  0.43191  0.79545  0.61469  1.0000
  C   C373      1.0  0.27519  0.78726  0.57876  1.0000
  H   H279      1.0  0.27885  0.90511  0.54746  1.0000
  H   H280      1.0  0.23110  0.91919  0.50594  1.0000
  H   H281      1.0  0.20976  0.87560  0.46660  1.0000
  H   H282      1.0  0.23528  0.81815  0.46881  1.0000
  H   H283      1.0  0.30531  0.84797  0.54960  1.0000
  H   H284      1.0  0.33603  0.73236  0.48295  1.0000
  H   H285      1.0  0.39327  0.73238  0.45005  1.0000
  H   H286      1.0  0.42509  0.78631  0.43706  1.0000
  H   H287      1.0  0.39939  0.84047  0.45736  1.0000
  H   H288      1.0  0.34219  0.84100  0.48964  1.0000
  H   H289      1.0  0.23830  0.73604  0.53630  1.0000
  H   H290      1.0  0.20007  0.69353  0.50778  1.0000
  H   H291      1.0  0.20165  0.68932  0.44670  1.0000
  H   H292      1.0  0.24161  0.72810  0.41413  1.0000
  H   H293      1.0  0.27994  0.77052  0.44221  1.0000
  H   H294      1.0  0.34813  0.74529  0.54523  1.0000
  H   H295      1.0  0.12571  0.65619  0.43789  1.0000
  H   H296      1.0  0.25140  0.80241  0.57234  1.0000
  C   C374      1.0  0.31308  0.76165  0.62108  1.0000
  S   S52       1.0  0.19100  0.69280  0.34085  1.0000
  H   H297      1.0  0.02523  0.74023  0.46624  1.0000
  H   H298      1.0  0.25987  0.89293  0.35228  1.0000
  H   H299      1.0  0.45123  0.80560  0.56579  1.0000
  H   H300      1.0  0.15410  0.59982  0.43828  1.0000
  H   H301      1.0  0.10822  0.56891  0.34976  1.0000
  C   C375      1.0  0.06980  0.63766  0.43077  1.0000
  H   H302      1.0  0.07595  0.71929  0.37507  1.0000
  H   H303      1.0  0.01107  0.49826  0.40028  1.0000
  C   C376      1.0  0.02852  0.51952  0.35369  1.0000
  H   H304      1.0  0.46924  0.89266  0.51372  1.0000
  H   H305      1.0  0.16301  0.77662  0.41964  1.0000
  H   H306      1.0  0.43318  0.89508  0.57456  1.0000
  H   H307      1.0  0.13379  0.62309  0.36797  1.0000
  C   C377      1.0  0.13235  0.74411  0.45258  1.0000
  C   C378      1.0  0.47033  0.97387  0.57603  1.0000
  H   H308      1.0  0.03489  0.54313  0.56112  1.0000
  C   C379      1.0  0.10381  0.72041  0.45540  1.0000
  C   C380      1.0  0.48942  0.82603  0.46486  1.0000
  H   H309      1.0  0.11217  0.67670  0.34284  1.0000
  C   C381      1.0  0.45358  0.81256  0.59143  1.0000
  C   C382      1.0  0.49189  0.90578  0.57576  1.0000
  H   H310      1.0  0.49625  0.86808  0.64294  1.0000
  C   C383      1.0  0.10293  0.57342  0.43087  1.0000
  C   C384      1.0  0.02324  0.68556  0.46943  1.0000
  H   H311      1.0  0.03512  0.64144  0.36918  1.0000
  H   H312      1.0  0.04795  0.55405  0.42437  1.0000
  H   H313      1.0  0.42470  0.91755  0.64314  1.0000
  H   H314      1.0  0.31904  0.75742  0.64698  1.0000
  C   C385      1.0  0.44368  0.94837  0.57589  1.0000
  C   C386      1.0  0.47732  0.83867  0.60141  1.0000
  C   C387      1.0  0.45431  0.91446  0.57573  1.0000
  C   C388      1.0  0.09135  0.72599  0.39698  1.0000
  C   C389      1.0  0.34525  0.85606  0.65957  1.0000
  C   C390      1.0  0.47848  0.84778  0.63477  1.0000
  H   H315      1.0  0.46380  0.87449  0.45640  1.0000
  H   H316      1.0  0.48719  0.81820  0.43940  1.0000
  C   C391      1.0  0.12454  0.60233  0.43502  1.0000
  H   H317      1.0  0.11574  0.54866  0.43115  1.0000
  C   C392      1.0  0.32702  0.79451  0.37514  1.0000
  H   H318      1.0  0.35968  0.73318  0.60394  1.0000
  H   H319      1.0  0.09825  0.70889  0.47916  1.0000
  C   C393      1.0  0.11262  0.62270  0.34919  1.0000
  C   C394      1.0  0.19586  0.57087  0.35124  1.0000
  C   C395      1.0  0.29148  0.78247  0.36731  1.0000
  H   H320      1.0  0.20980  0.49943  0.66224  1.0000
  C   C396      1.0  0.12007  0.74956  0.39427  1.0000
  C   C397      1.0  0.05861  0.49648  0.48422  1.0000
  C   C398      1.0  0.04838  0.60839  0.42677  1.0000
  C   C399      1.0  0.08294  0.71132  0.42763  1.0000
  H   H321      1.0  0.35091  0.78110  0.36609  1.0000
  H   H322      1.0  0.41339  0.77556  0.60697  1.0000
  C   C400      1.0  0.06483  0.57648  0.42679  1.0000
  C   C401      1.0  0.14061  0.75855  0.42198  1.0000
  P   P14       1.0  0.50484  0.86186  0.57190  1.0000
  C   C402      1.0  0.47943  0.86804  0.50708  1.0000
  C   C403      1.0  0.47615  0.85762  0.47437  1.0000
  C   C404      1.0  0.28251  0.78094  0.61204  1.0000
  C   C405      1.0  0.10108  0.65281  0.33460  1.0000
  H   H323      1.0  0.32690  0.94027  0.65313  1.0000
  C   C406      1.0  0.33619  0.74838  0.59681  1.0000
  P   P15       1.0  0.04797  0.67889  0.43117  1.0000
  H   H324      1.0  0.01617  0.63247  0.48113  1.0000
  H   H325      1.0  0.47962  0.95478  0.64142  1.0000
  C   C407      1.0  0.01522  0.66160  0.37076  1.0000
  C   C408      1.0  0.45646  0.83085  0.65785  1.0000
  C   C409      1.0  0.01313  0.50162  0.64562  1.0000
  C   C410      1.0  0.03250  0.49911  0.38169  1.0000
  C   C411      1.0  0.02852  0.53128  0.58454  1.0000
  H   H326      1.0  0.01886  0.61032  0.42407  1.0000
  C   C412      1.0  0.03938  0.48670  0.62471  1.0000
  H   H327      1.0  0.08814  0.49365  0.48241  1.0000
  C   C413      1.0  0.50581  0.80476  0.48817  1.0000
  C   C414      1.0  0.08909  0.50217  0.33501  1.0000
  C   C415      1.0  0.01483  0.68350  0.39792  1.0000
  C   C416      1.0  0.01057  0.65813  0.48835  1.0000
  C   C417      1.0  0.18202  0.49051  0.65749  1.0000
  C   C418      1.0  0.01559  0.71855  0.48018  1.0000
  H   H328      1.0  0.17232  0.52526  0.33157  1.0000
  C   C419      1.0  0.05697  0.52136  0.33016  1.0000
  H   H329      1.0  0.15395  0.56139  0.72544  1.0000
  C   C420      1.0  0.42357  0.87964  0.99082  1.0000
  Fe  Fe26      1.0  0.22731  0.54131  0.96531  1.0000
  S   S53       1.0  0.18610  0.57192  0.93688  1.0000
  H   H330      1.0  0.31486  0.92798  0.95461  1.0000
  Fe  Fe27      1.0  0.21549  0.61746  0.95809  1.0000
  S   S54       1.0  0.21937  0.66625  0.92665  1.0000
  Fe  Fe28      1.0  0.15252  0.57115  0.98337  1.0000
  H   H331      1.0  0.24402  0.48976  0.82968  1.0000
  H   H332      1.0  0.50451  0.81582  0.95222  1.0000
  H   H333      1.0  0.40724  0.92010  0.81273  1.0000
  Fe  Fe29      1.0  0.33094  0.86855  0.80579  1.0000
  S   S55       1.0  0.37185  0.84210  0.83781  1.0000
  S   S56       1.0  0.29044  0.90746  0.82359  1.0000
  Fe  Fe30      1.0  0.35068  0.82829  0.74439  1.0000
  S   S57       1.0  0.39233  0.79727  0.77276  1.0000
  H   H334      1.0  0.42678  0.79085  0.85471  1.0000
  Fe  Fe31      1.0  0.35045  0.79437  0.81430  1.0000
  S   S58       1.0  0.34668  0.74658  0.84698  1.0000
  Fe  Fe32      1.0  0.40996  0.84679  0.79426  1.0000
  S   S59       1.0  0.46908  0.86509  0.80056  1.0000
  S   S60       1.0  0.30718  0.82091  0.78390  1.0000
  S   S61       1.0  0.37037  0.87772  0.76417  1.0000
  C   C421      1.0  0.29427  0.93721  0.85568  1.0000
  C   C422      1.0  0.26136  0.94755  0.87041  1.0000
  S   S62       1.0  0.09034  0.56263  0.98234  1.0000
  H   H335      1.0  0.47053  0.89404  0.96025  1.0000
  H   H336      1.0  0.20841  0.57320  0.76412  1.0000
  H   H337      1.0  0.10677  0.50345  0.93462  1.0000
  H   H338      1.0  0.23555  0.93592  0.86323  1.0000
  C   C423      1.0  0.06213  0.55014  0.71348  1.0000
  C   C424      1.0  0.41802  0.95689  0.93605  1.0000
  C   C425      1.0  0.35995  0.86650  0.94565  1.0000
  H   H339      1.0  0.03288  0.56288  0.93079  1.0000
  H   H340      1.0  0.46386  0.81570  0.74816  1.0000
  C   C426      1.0  0.25537  0.68805  0.90468  1.0000
  C   C427      1.0  0.29203  0.67694  0.90441  1.0000
  C   C428      1.0  0.31935  0.69516  0.88669  1.0000
  C   C429      1.0  0.31064  0.72471  0.86882  1.0000
  C   C430      1.0  0.27397  0.73583  0.86908  1.0000
  C   C431      1.0  0.24667  0.71767  0.88689  1.0000
  H   H341      1.0  0.29939  0.65432  0.91788  1.0000
  H   H342      1.0  0.34751  0.68617  0.88676  1.0000
  H   H343      1.0  0.26659  0.75837  0.85550  1.0000
  H   H344      1.0  0.21851  0.72663  0.88679  1.0000
  H   H345      1.0  0.40660  0.88968  0.69540  1.0000
  H   H346      1.0  0.24681  0.51777  0.88447  1.0000
  H   H347      1.0  0.16403  0.49636  0.70752  1.0000
  C   C432      1.0  0.41170  0.92209  0.93252  1.0000
  C   C433      1.0  0.08078  0.52582  0.76572  1.0000
  P   P16       1.0  0.15353  0.52453  0.78882  1.0000
  C   C434      1.0  0.45258  0.95768  0.88503  1.0000
  C   C435      1.0  0.15768  0.55837  0.81838  1.0000
  C   C436      1.0  0.12767  0.57971  0.82500  1.0000
  C   C437      1.0  0.13169  0.60680  0.84675  1.0000
  C   C438      1.0  0.16564  0.61284  0.86192  1.0000
  C   C439      1.0  0.19545  0.59147  0.85581  1.0000
  C   C440      1.0  0.19142  0.56410  0.83446  1.0000
  C   C441      1.0  0.12605  0.55323  0.73064  1.0000
  H   H348      1.0  0.16057  0.71628  0.97887  1.0000
  C   C442      1.0  0.19716  0.51951  0.76775  1.0000
  H   H349      1.0  0.49034  0.81120  0.84675  1.0000
  H   H350      1.0  0.08739  0.51328  0.85093  1.0000
  C   C443      1.0  0.48780  0.81040  0.93078  1.0000
  H   H351      1.0  0.43956  0.79805  0.95962  1.0000
  C   C444      1.0  0.25211  0.54409  0.74272  1.0000
  C   C445      1.0  0.11761  0.53528  0.75962  1.0000
  H   H352      1.0  0.10124  0.57573  0.81331  1.0000
  H   H353      1.0  0.10861  0.62334  0.85178  1.0000
  H   H354      1.0  0.16895  0.63393  0.87868  1.0000
  H   H355      1.0  0.22164  0.59609  0.86797  1.0000
  H   H356      1.0  0.21480  0.54763  0.83039  1.0000
  C   C446      1.0  0.24290  0.49074  0.88289  1.0000
  H   H357      1.0  0.02501  0.52533  0.74733  1.0000
  H   H358      1.0  0.42182  0.87830  0.90191  1.0000
  C   C447      1.0  0.33554  0.80922  0.94309  1.0000
  H   H359      1.0  0.30701  0.96471  0.73501  1.0000
  C   C448      1.0  0.31461  0.81789  0.91548  1.0000
  H   H360      1.0  0.29971  0.85760  0.88161  1.0000
  H   H361      1.0  0.29768  0.79899  0.90344  1.0000
  H   H362      1.0  0.40087  0.78453  0.91064  1.0000
  H   H363      1.0  0.08678  0.55749  0.89388  1.0000
  C   C449      1.0  0.26121  0.97322  0.89386  1.0000
  H   H364      1.0  0.35330  0.94441  0.85433  1.0000
  C   C450      1.0  0.42585  0.90527  0.90488  1.0000
  C   C451      1.0  0.31587  0.85084  0.90314  1.0000
  C   C452      1.0  0.46124  0.88172  0.98262  1.0000
  S   S63       1.0  0.25913  0.58648  0.98435  1.0000
  S   S64       1.0  0.24859  0.48944  0.95100  1.0000
  H   H365      1.0  0.32971  0.89409  0.69462  1.0000
  C   C453      1.0  0.09406  0.65670  0.99035  1.0000
  C   C454      1.0  0.44048  0.92230  0.66534  1.0000
  C   C455      1.0  0.06337  0.51615  0.86634  1.0000
  C   C456      1.0  0.44800  0.95762  0.80039  1.0000
  H   H366      1.0  0.04087  0.55569  0.69551  1.0000
  C   C457      1.0  0.49169  0.94980  0.69337  1.0000
  C   C458      1.0  0.44375  0.79663  0.87596  1.0000
  C   C459      1.0  0.33624  0.88896  0.66911  1.0000
  C   C460      1.0  0.45060  0.91216  0.72328  1.0000
  C   C461      1.0  0.06299  0.54118  0.89046  1.0000
  C   C462      1.0  0.38246  0.96417  0.79067  1.0000
  C   C463      1.0  0.42915  0.79305  0.90762  1.0000
  P   P17       1.0  0.38876  0.89844  0.96462  1.0000
  H   H367      1.0  0.24734  0.94049  0.75225  1.0000
  S   S65       1.0  0.34610  0.82190  0.68836  1.0000
  C   C464      1.0  0.49120  0.82651  0.74771  1.0000
  C   C465      1.0  0.33869  0.87490  0.91792  1.0000
  H   H368      1.0  0.33990  0.90004  0.90748  1.0000
  C   C466      1.0  0.21812  0.54798  0.75863  1.0000
  C   C467      1.0  0.32764  0.95252  0.86524  1.0000
  H   H369      1.0  0.26838  0.56612  0.73615  1.0000
  C   C468      1.0  0.48145  0.93333  0.72264  1.0000
  C   C469      1.0  0.29219  0.97616  0.75529  1.0000
  C   C470      1.0  0.35805  0.83340  0.95824  1.0000
  H   H370      1.0  0.35493  0.95347  0.79187  1.0000
  C   C471      1.0  0.12080  0.67622  0.97426  1.0000
  C   C472      1.0  0.44626  0.92303  0.88126  1.0000
  H   H371      1.0  0.45704  0.83821  0.68351  1.0000
  C   C473      1.0  0.41208  0.94501  0.80237  1.0000
  C   C474      1.0  0.25818  0.96250  0.76479  1.0000
  H   H372      1.0  0.21362  0.96427  0.79987  1.0000
  H   H373      1.0  0.12845  0.67067  0.94901  1.0000
  C   C475      1.0  0.09847  0.56037  0.70758  1.0000
  H   H374      1.0  0.49729  0.93621  0.74497  1.0000
  H   H375      1.0  0.45756  0.90963  0.86033  1.0000
  C   C476      1.0  0.43007  0.90669  0.69478  1.0000
  H   H376      1.0  0.16629  0.49902  0.85639  1.0000
  C   C477      1.0  0.48016  0.80745  0.87159  1.0000
  C   C478      1.0  0.05325  0.53302  0.74262  1.0000
  C   C479      1.0  0.32621  0.93758  0.97733  1.0000
  H   H377      1.0  0.44294  0.89951  0.74587  1.0000
  H   H378      1.0  0.23530  0.98101  0.90468  1.0000
  C   C480      1.0  0.03254  0.54424  0.91129  1.0000
  H   H379      1.0  0.07327  0.51274  0.78824  1.0000
  C   C481      1.0  0.45100  0.80043  0.93505  1.0000
  C   C482      1.0  0.21074  0.48719  0.76055  1.0000
  C   C483      1.0  0.32746  0.97883  0.88880  1.0000
  C   C484      1.0  0.36105  0.92729  0.98862  1.0000
  H   H380      1.0  0.33451  0.78354  0.95245  1.0000
  H   H381      1.0  0.47090  0.94216  0.80857  1.0000
  C   C485      1.0  0.50295  0.81305  0.89899  1.0000
  C   C486      1.0  0.13904  0.70192  0.99122  1.0000
  H   H382      1.0  0.27958  0.97013  0.98531  1.0000
  C   C487      1.0  0.26545  0.51179  0.73585  1.0000
  C   C488      1.0  0.50098  0.85129  0.77052  1.0000
  H   H383      1.0  0.37412  0.82582  0.97933  1.0000
  H   H384      1.0  0.29205  0.50868  0.72402  1.0000
  C   C489      1.0  0.15623  0.48870  0.68304  1.0000
  H   H385      1.0  0.40774  0.97046  0.95723  1.0000
  C   C490      1.0  0.47140  0.94353  0.66455  1.0000
  H   H386      1.0  0.46876  0.97147  0.86703  1.0000
  H   H387      1.0  0.01475  0.54104  0.98721  1.0000
  C   C491      1.0  0.43843  0.97459  0.91237  1.0000
  H   H388      1.0  0.41598  0.79180  0.66583  1.0000
  H   H389      1.0  0.10534  0.57373  0.68501  1.0000
  C   C492      1.0  0.23916  0.97589  0.79168  1.0000
  C   C493      1.0  0.30595  0.96162  0.99479  1.0000
  C   C494      1.0  0.03325  0.49429  0.86281  1.0000
  H   H390      1.0  0.16881  0.48688  0.95360  1.0000
  H   H391      1.0  0.08068  0.63613  0.97745  1.0000
  H   H392      1.0  0.00767  0.49142  0.66988  1.0000
  C   C495      1.0  0.14167  0.48548  0.80954  1.0000
  Fe  Fe33      1.0  0.95324  0.42295  0.04030  1.0000
  C   C496      1.0  0.74036  0.08186  0.27235  1.0000
  Fe  Fe34      1.0  0.88268  0.38706  0.06728  1.0000
  C   C497      1.0  0.83539  0.16090  0.04642  1.0000
  S   S66       1.0  0.85806  0.35809  0.11135  1.0000
  Fe  Fe35      1.0  0.87968  0.45915  0.04030  1.0000
  C   C498      1.0  0.60027  0.13797  0.12691  1.0000
  H   H393      1.0  0.51928  0.13042  0.19980  1.0000
  S   S67       1.0  0.91281  0.43525  0.08039  1.0000
  Fe  Fe36      1.0  0.73592  0.19780  0.17546  1.0000
  S   S68       1.0  0.75343  0.15535  0.20920  1.0000
  S   S69       1.0  0.77404  0.21715  0.13423  1.0000
  Fe  Fe37      1.0  0.65554  0.19249  0.19931  1.0000
  S   S70       1.0  0.66721  0.14993  0.23437  1.0000
  S   S71       1.0  0.59802  0.21179  0.18824  1.0000
  Fe  Fe38      1.0  0.71773  0.17979  0.24773  1.0000
  S   S72       1.0  0.73984  0.18499  0.30007  1.0000
  Fe  Fe39      1.0  0.70170  0.12872  0.19342  1.0000
  S   S73       1.0  0.69741  0.07206  0.18621  1.0000
  S   S74       1.0  0.70382  0.22459  0.21510  1.0000
  S   S75       1.0  0.68631  0.16892  0.15721  1.0000
  C   C499      1.0  0.72241  0.33556  0.07804  1.0000
  C   C500      1.0  0.99700  0.44532  0.12828  1.0000
  H   H394      1.0  0.80099  0.33533  0.05025  1.0000
  H   H395      1.0  0.87835  0.13916  0.07684  1.0000
  C   C501      1.0  0.69907  0.05382  0.14678  1.0000
  C   C502      1.0  0.69515  0.01870  0.14380  1.0000
  P   P18       1.0  0.50738  0.18147  0.08874  1.0000
  C   C503      1.0  0.70626  0.02247  0.08492  1.0000
  C   C504      1.0  0.70866  0.05775  0.08776  1.0000
  C   C505      1.0  0.70537  0.07338  0.11864  1.0000
  H   H396      1.0  0.78459  0.10608  0.29872  1.0000
  H   H397      1.0  0.92902  0.47565  0.17762  1.0000
  H   H398      1.0  0.71349  0.07314  0.06618  1.0000
  H   H399      1.0  0.70875  0.10043  0.12079  1.0000
  H   H400      1.0  0.78644  0.04332  0.14337  1.0000
  C   C506      1.0  0.68539  0.38102  0.03400  1.0000
  C   C507      1.0  0.56304  0.20419  0.21775  1.0000
  C   C508      1.0  0.57125  0.19000  0.24843  1.0000
  C   C509      1.0  0.54279  0.18278  0.27094  1.0000
  C   C510      1.0  0.68842  0.17247  0.03276  1.0000
  H   H401      1.0  0.59957  0.18490  0.25496  1.0000
  H   H402      1.0  0.64730  0.09160  0.28685  1.0000
  C   C511      1.0  0.83416  0.31894  0.11658  1.0000
  C   C512      1.0  0.83593  0.29290  0.09341  1.0000
  C   C513      1.0  0.81732  0.26206  0.09930  1.0000
  C   C514      1.0  0.79682  0.25671  0.12837  1.0000
  C   C515      1.0  0.79492  0.28277  0.15147  1.0000
  C   C516      1.0  0.81358  0.31359  0.14562  1.0000
  H   H403      1.0  0.85206  0.29634  0.07121  1.0000
  H   H404      1.0  0.81897  0.24208  0.08135  1.0000
  H   H405      1.0  0.77925  0.27914  0.17392  1.0000
  H   H406      1.0  0.81213  0.33341  0.16382  1.0000
  H   H407      1.0  0.64680  0.11654  0.10168  1.0000
  C   C517      1.0  0.59016  0.10188  0.29280  1.0000
  H   H408      1.0  0.64074  0.03057  0.04686  1.0000
  H   H409      1.0  0.54056  0.99782  0.18945  1.0000
  H   H410      1.0  0.69027  0.00350  0.16553  1.0000
  H   H411      1.0  0.00659  0.42185  0.11767  1.0000
  H   H412      1.0  0.75803  0.07097  0.02709  1.0000
  H   H413      1.0  0.57980  0.00884  0.32152  1.0000
  P   P19       1.0  0.80302  0.12662  0.05330  1.0000
  H   H414      1.0  0.56943  0.22570  0.10892  1.0000
  C   C518      1.0  0.75714  0.14261  0.04565  1.0000
  C   C519      1.0  0.73703  0.15791  0.07111  1.0000
  C   C520      1.0  0.70284  0.17278  0.06465  1.0000
  C   C521      1.0  0.69869  0.00303  0.11295  1.0000
  C   C522      1.0  0.61796  0.04740  0.30465  1.0000
  H   H415      1.0  0.68012  0.33682  0.00317  1.0000
  C   C523      1.0  0.63166  0.36787  0.00060  1.0000
  H   H416      1.0  0.60889  0.06517  0.00486  1.0000
  H   H417      1.0  0.95357  0.42157  0.15637  1.0000
  C   C524      1.0  0.81852  0.32981  0.99998  1.0000
  H   H418      1.0  0.57121  0.27941  0.13871  1.0000
  C   C525      1.0  0.80567  0.11222  0.09556  1.0000
  C   C526      1.0  0.79597  0.07891  0.10396  1.0000
  H   H419      1.0  0.69277  0.05658  0.25312  1.0000
  H   H420      1.0  0.59337  0.12807  0.28567  1.0000
  C   C527      1.0  0.55216  0.16168  0.09224  1.0000
  C   C528      1.0  0.52624  0.21199  0.21019  1.0000
  H   H421      1.0  0.67996  0.42565  0.06442  1.0000
  H   H422      1.0  0.74793  0.15906  0.09590  1.0000
  H   H423      1.0  0.68781  0.18499  0.08439  1.0000
  H   H424      1.0  0.54682  0.08842  0.01646  1.0000
  C   C529      1.0  0.66716  0.40969  0.04607  1.0000
  C   C530      1.0  0.77434  0.46322  0.06577  1.0000
  C   C531      1.0  0.65970  0.99288  0.27189  1.0000
  H   H425      1.0  0.77200  0.01444  0.27376  1.0000
  C   C532      1.0  0.63176  0.41774  0.03488  1.0000
  H   H426      1.0  0.78733  0.06116  0.08531  1.0000
  C   C533      1.0  0.81545  0.13479  0.12069  1.0000
  C   C534      1.0  0.79395  0.33972  0.02468  1.0000
  H   H427      1.0  0.52476  0.04567  0.31731  1.0000
  C   C535      1.0  0.81603  0.12411  0.15353  1.0000
  C   C536      1.0  0.59582  0.06050  0.02847  1.0000
  H   H428      1.0  0.58661  0.40319  0.00346  1.0000
  C   C537      1.0  0.70024  0.31629  0.13151  1.0000
  C   C538      1.0  0.70545  0.28278  0.12200  1.0000
  C   C539      1.0  0.71849  0.27554  0.09040  1.0000
  C   C540      1.0  0.61374  0.04087  0.05214  1.0000
  H   H429      1.0  0.51988  0.22401  0.18697  1.0000
  C   C541      1.0  0.70828  0.34261  0.10950  1.0000
  H   H430      1.0  0.62208  0.07784  0.20888  1.0000
  C   C542      1.0  0.54867  0.99003  0.13713  1.0000
  C   C543      1.0  0.51209  0.28472  0.14090  1.0000
  H   H431      1.0  0.73677  0.29549  0.04408  1.0000
  H   H432      1.0  0.60362  0.03880  0.16456  1.0000
  H   H433      1.0  0.58011  0.12371  0.22618  1.0000
  H   H434      1.0  0.69027  0.32181  0.15609  1.0000
  H   H435      1.0  0.70005  0.26239  0.13929  1.0000
  H   H436      1.0  0.72319  0.24952  0.08339  1.0000
  H   H437      1.0  0.90359  0.23627  0.03506  1.0000
  H   H438      1.0  0.70377  0.36845  0.11714  1.0000
  C   C544      1.0  0.56088  0.07366  0.03510  1.0000
  C   C545      1.0  0.58296  0.03471  0.31318  1.0000
  H   H439      1.0  0.77691  0.37545  0.10842  1.0000
  H   H440      1.0  0.61111  0.13266  0.15122  1.0000
  S   S76       1.0  0.92710  0.37220  0.03141  1.0000
  C   C546      1.0  0.63618  0.99824  0.24487  1.0000
  C   C547      1.0  0.56617  0.15399  0.12358  1.0000
  C   C548      1.0  0.62107  0.08101  0.29391  1.0000
  C   C549      1.0  0.79425  0.45859  0.09486  1.0000
  C   C550      1.0  0.76190  0.08821  0.30013  1.0000
  H   H441      1.0  0.55124  0.16112  0.14558  1.0000
  H   H442      1.0  0.81006  0.47934  0.10496  1.0000
  C   C551      1.0  0.74237  0.14225  0.01366  1.0000
  C   C552      1.0  0.82586  0.18867  0.02649  1.0000
  C   C553      1.0  0.60759  0.13793  0.06777  1.0000
  C   C554      1.0  0.69220  0.13903  0.32907  1.0000
  H   H443      1.0  0.82332  0.14191  0.17268  1.0000
  C   C555      1.0  0.62064  0.12936  0.09902  1.0000
  H   H444      1.0  0.81147  0.42294  0.13199  1.0000
  C   C556      1.0  0.57382  0.15459  0.06434  1.0000
  H   H445      1.0  0.84432  0.31774  0.00647  1.0000
  C   C557      1.0  0.66706  0.35975  0.01177  1.0000
  H   H446      1.0  0.83767  0.01396  0.09829  1.0000
  S   S77       1.0  0.84718  0.41179  0.02849  1.0000
  C   C558      1.0  0.61409  0.39695  0.01203  1.0000
  C   C559      1.0  0.77488  0.40003  0.09678  1.0000
  C   C560      1.0  0.69993  0.04561  0.30486  1.0000
  C   C561      1.0  0.95323  0.47568  0.16194  1.0000
  C   C562      1.0  0.80574  0.09110  0.16174  1.0000
  C   C563      1.0  0.54363  0.23797  0.11488  1.0000
  C   C564      1.0  0.79473  0.42697  0.11022  1.0000
  H   H447      1.0  0.62362  0.13140  0.04621  1.0000
  C   C565      1.0  0.59510  0.08017  0.19762  1.0000
  C   C566      1.0  0.57144  0.10601  0.20750  1.0000
  C   C567      1.0  0.53714  0.10985  0.19238  1.0000
  C   C568      1.0  0.52652  0.08796  0.16710  1.0000
  C   C569      1.0  0.54965  0.06127  0.15769  1.0000
  C   C570      1.0  0.58447  0.05808  0.17256  1.0000
  P   P20       1.0  0.53634  0.03250  0.12539  1.0000
  H   H448      1.0  0.99792  0.42312  0.31813  1.0000
  C   C571      1.0  0.55542  0.08912  0.30102  1.0000
  H   H449      1.0  0.51667  0.07743  0.07007  1.0000
  P   P21       1.0  0.65817  0.02046  0.30725  1.0000
  H   H450      1.0  0.80471  0.08330  0.18735  1.0000
  C   C572      1.0  0.84933  0.08702  0.01400  1.0000
  C   C573      1.0  0.96704  0.44520  0.14997  1.0000
  H   H451      1.0  0.56501  0.16183  0.03993  1.0000
  C   C574      1.0  0.89478  0.18736  0.05732  1.0000
  H   H452      1.0  0.94609  0.46289  0.31691  1.0000
  C   C575      1.0  0.56057  0.04543  0.08841  1.0000
  C   C576      1.0  0.54364  0.06683  0.06528  1.0000
  C   C577      1.0  0.79569  0.06853  0.13695  1.0000
  C   C578      1.0  0.77616  0.99639  0.25412  1.0000
  H   H453      1.0  0.82174  0.16098  0.11518  1.0000
  C   C579      1.0  0.59639  0.03356  0.08214  1.0000
  H   H454      1.0  0.74026  0.44001  0.02906  1.0000
  C   C580      1.0  0.55177  0.05546  0.31102  1.0000
  H   H455      1.0  0.54933  0.17198  0.29467  1.0000
  H   H456      1.0  0.92129  0.18712  0.06962  1.0000
  H   H457      1.0  0.67985  0.13702  0.30507  1.0000
  C   C581      1.0  0.75410  0.40466  0.06797  1.0000
  C   C582      1.0  0.72677  0.30176  0.06840  1.0000
  H   H458      1.0  0.53147  0.10549  0.29990  1.0000
  C   C583      1.0  0.54481  0.26869  0.13172  1.0000
  C   C584      1.0  0.75455  0.43630  0.05218  1.0000
  H   H459      1.0  0.74680  0.09412  0.24917  1.0000
  C   C585      1.0  0.81333  0.09192  0.02591  1.0000
  C   C586      1.0  0.76098  0.35622  0.01655  1.0000
  H   H460      1.0  0.75012  0.02740  0.21713  1.0000
  S   S78       1.0  0.71511  0.00332  0.04654  1.0000
  P   P22       1.0  0.73044  0.36957  0.04912  1.0000
  C   C587      1.0  0.70970  0.06053  0.27467  1.0000
  C   C588      1.0  0.88486  0.21504  0.03782  1.0000
  C   C589      1.0  0.87029  0.16030  0.06145  1.0000
  C   C590      1.0  0.50957  0.22288  0.10733  1.0000
  C   C591      1.0  0.76404  0.00375  0.22221  1.0000
  S   S79       1.0  0.92172  0.44915  0.00062  1.0000
  C   C592      1.0  0.78583  0.06830  0.01784  1.0000
  H   H461      1.0  0.66213  0.18440  0.02779  1.0000
  H   H462      1.0  0.61790  0.44000  0.04416  1.0000
  H   H463      1.0  0.79926  0.19001  0.01457  1.0000
  H   H464      1.0  0.61067  0.01791  0.09995  1.0000
  C   C593      1.0  0.85055  0.21556  0.02221  1.0000
  H   H465      1.0  0.61570  0.01808  0.24521  1.0000
  C   C594      1.0  0.70804  0.15698  0.00732  1.0000
  H   H466      1.0  0.87127  0.10445  0.02010  1.0000
  H   H467      1.0  0.51313  0.30810  0.15465  1.0000
  C   C595      1.0  0.79397  0.04064  0.99787  1.0000
  C   C596      1.0  0.82394  0.98967  0.09944  1.0000
  H   H468      1.0  0.84278  0.23717  0.00730  1.0000
  H   H469      1.0  0.75960  0.98647  0.17237  1.0000
  H   H470      1.0  0.81221  0.98850  0.04739  1.0000
  H   H471      1.0  0.79489  0.47574  0.29471  1.0000
  C   C597      1.0  0.84116  0.48290  0.32729  1.0000
  C   C598      1.0  0.93825  0.46329  0.36994  1.0000
  Fe  Fe40      1.0  0.62692  0.08604  0.53010  1.0000
  S   S80       1.0  0.65012  0.05058  0.49346  1.0000
  S   S81       1.0  0.56445  0.08259  0.53614  1.0000
  Fe  Fe41      1.0  0.70368  0.11624  0.54498  1.0000
  S   S82       1.0  0.73093  0.08070  0.50828  1.0000
  S   S83       1.0  0.74537  0.15050  0.57283  1.0000
  Fe  Fe42      1.0  0.68383  0.09406  0.47445  1.0000
  S   S84       1.0  0.67798  0.09440  0.41837  1.0000
  Fe  Fe43      1.0  0.69437  0.04035  0.53034  1.0000
  H   H472      1.0  0.58845  0.02260  0.45568  1.0000
  S   S85       1.0  0.65801  0.13111  0.50959  1.0000
  S   S86       1.0  0.66976  0.07420  0.56870  1.0000
  C   C599      1.0  0.69492  0.12168  0.38696  1.0000
  C   C600      1.0  0.67930  0.11908  0.35544  1.0000
  C   C601      1.0  0.85300  0.36421  0.56556  1.0000
  H   H473      1.0  0.83253  0.41129  0.43981  1.0000
  C   C602      1.0  0.73730  0.16414  0.36520  1.0000
  C   C603      1.0  0.72387  0.14456  0.39188  1.0000
  H   H474      1.0  0.65703  0.10144  0.35143  1.0000
  H   H475      1.0  0.76003  0.18143  0.36901  1.0000
  H   H476      1.0  0.73628  0.14678  0.41599  1.0000
  C   C604      1.0  0.54152  0.04580  0.52145  1.0000
  C   C605      1.0  0.88533  0.34527  0.57021  1.0000
  H   H477      1.0  0.52368  0.12981  0.44802  1.0000
  H   H478      1.0  0.82130  0.22782  0.64010  1.0000
  C   C606      1.0  0.76486  0.24444  0.63949  1.0000
  C   C607      1.0  0.72932  0.23700  0.62736  1.0000
  C   C608      1.0  0.72279  0.20867  0.60696  1.0000
  C   C609      1.0  0.75178  0.18709  0.59830  1.0000
  C   C610      1.0  0.78732  0.19447  0.61052  1.0000
  C   C611      1.0  0.79386  0.22286  0.63087  1.0000
  C   C612      1.0  0.91052  0.42290  0.52969  1.0000
  H   H479      1.0  0.69535  0.20367  0.59777  1.0000
  C   C613      1.0  0.64915  0.13499  0.62669  1.0000
  H   H480      1.0  0.57028  0.04651  0.59616  1.0000
  C   C614      1.0  0.56617  0.17672  0.36286  1.0000
  C   C615      1.0  0.83044  0.44996  0.59300  1.0000
  C   C616      1.0  0.84442  0.43098  0.61956  1.0000
  C   C617      1.0  0.87243  0.44435  0.63919  1.0000
  C   C618      1.0  0.65237  0.01671  0.37537  1.0000
  C   C619      1.0  0.75040  0.45217  0.65481  1.0000
  C   C620      1.0  0.73590  0.39362  0.61794  1.0000
  H   H481      1.0  0.78948  0.30748  0.59411  1.0000
  C   C621      1.0  0.53699  0.99148  0.39295  1.0000
  C   C622      1.0  0.52195  0.12123  0.38103  1.0000
  C   C623      1.0  0.51634  0.02028  0.38557  1.0000
  C   C624      1.0  0.65505  0.99811  0.34613  1.0000
  H   H482      1.0  0.55078  0.07266  0.44466  1.0000
  H   H483      1.0  0.85405  0.38974  0.55625  1.0000
  H   H484      1.0  0.96218  0.41818  0.59977  1.0000
  H   H485      1.0  0.80097  0.45561  0.47258  1.0000
  C   C625      1.0  0.81606  0.31793  0.58699  1.0000
  C   C626      1.0  0.68270  0.12707  0.64175  1.0000
  C   C627      1.0  0.81940  0.46260  0.45260  1.0000
  H   H486      1.0  0.59207  0.12114  0.62084  1.0000
  C   C628      1.0  0.94730  0.34555  0.52191  1.0000
  C   C629      1.0  0.72162  0.16127  0.33360  1.0000
  C   C630      1.0  0.83736  0.43773  0.43427  1.0000
  H   H487      1.0  0.92205  0.36538  0.63157  1.0000
  H   H488      1.0  0.90692  0.29738  0.58756  1.0000
  H   H489      1.0  0.51025  0.07580  0.59194  1.0000
  H   H490      1.0  0.79390  0.36558  0.57092  1.0000
  C   C631      1.0  0.92895  0.40801  0.55648  1.0000
  C   C632      1.0  0.54845  0.04071  0.61363  1.0000
  C   C633      1.0  0.56815  0.02187  0.43623  1.0000
  C   C634      1.0  0.92868  0.47841  0.54844  1.0000
  H   H491      1.0  0.84596  0.27360  0.60177  1.0000
  H   H492      1.0  0.97893  0.39028  0.50897  1.0000
  H   H493      1.0  0.73072  0.37094  0.60378  1.0000
  C   C635      1.0  0.54668  0.05034  0.42977  1.0000
  C   C636      1.0  0.99564  0.33665  0.58759  1.0000
  H   H494      1.0  0.65057  0.04400  0.37459  1.0000
  C   C637      1.0  0.95533  0.45337  0.34042  1.0000
  C   C638      1.0  0.56055  0.11800  0.37928  1.0000
  C   C639      1.0  0.84362  0.48265  0.58642  1.0000
  C   C640      1.0  0.55999  0.01504  0.51756  1.0000
  C   C641      1.0  0.86147  0.44696  0.40877  1.0000
  C   C642      1.0  0.51457  0.05723  0.61130  1.0000
  C   C643      1.0  0.88245  0.31238  0.58316  1.0000
  C   C644      1.0  0.74622  0.45409  0.62046  1.0000
  H   H495      1.0  0.70669  0.14249  0.63638  1.0000
  C   C645      1.0  0.93817  0.31258  0.51220  1.0000
  C   C646      1.0  0.86821  0.48124  0.40180  1.0000
  H   H496      1.0  0.83379  0.40594  0.62467  1.0000
  C   C647      1.0  0.73967  0.39145  0.65208  1.0000
  C   C648      1.0  0.97074  0.34326  0.65249  1.0000
  H   H497      1.0  0.00596  0.36584  0.45894  1.0000
  H   H498      1.0  0.58326  0.19802  0.35560  1.0000
  C   C649      1.0  0.00543  0.32943  0.64630  1.0000
  H   H499      1.0  0.91986  0.29705  0.52690  1.0000
  C   C650      1.0  0.65376  0.00048  0.40594  1.0000
  C   C651      1.0  0.95104  0.44973  0.39989  1.0000
  C   C652      1.0  0.80804  0.03746  0.60853  1.0000
  C   C653      1.0  0.78156  0.06026  0.59720  1.0000
  C   C654      1.0  0.75707  0.07521  0.61937  1.0000
  C   C655      1.0  0.98663  0.35108  0.47353  1.0000
  C   C656      1.0  0.88589  0.47693  0.63250  1.0000
  C   C657      1.0  0.90986  0.45800  0.52604  1.0000
  H   H500      1.0  0.70658  0.25337  0.63372  1.0000
  H   H501      1.0  0.65347  0.01542  0.42827  1.0000
  H   H502      1.0  0.96194  0.47970  0.59212  1.0000
  C   C658      1.0  0.97742  0.31825  0.46405  1.0000
  H   H503      1.0  0.89630  0.40737  0.51183  1.0000
  P   P23       1.0  0.93039  0.36253  0.56036  1.0000
  C   C659      1.0  0.58244  0.14579  0.37060  1.0000
  H   H504      1.0  0.81001  0.17801  0.60424  1.0000
  H   H505      1.0  0.97881  0.45268  0.47406  1.0000
  H   H506      1.0  0.61215  0.14351  0.37014  1.0000
  H   H507      1.0  0.72860  0.01001  0.59894  1.0000
  H   H508      1.0  0.64771  0.15602  0.60955  1.0000
  H   H509      1.0  0.80947  0.43924  0.57731  1.0000
  C   C660      1.0  0.94768  0.42876  0.57893  1.0000
  C   C661      1.0  0.84796  0.29877  0.59132  1.0000
  H   H510      1.0  0.59584  0.07298  0.66001  1.0000
  H   H511      1.0  0.73619  0.42664  0.57562  1.0000
  H   H512      1.0  0.89443  0.46951  0.50609  1.0000
  C   C662      1.0  0.73890  0.42494  0.60217  1.0000
  C   C663      1.0  0.94873  0.35432  0.62637  1.0000
  H   H513      1.0  0.77969  0.06626  0.57117  1.0000
  H   H514      1.0  0.73667  0.09246  0.60998  1.0000
  C   C664      1.0  0.55410  0.01617  0.63791  1.0000
  C   C665      1.0  0.97143  0.36478  0.50217  1.0000
  C   C666      1.0  0.96073  0.35062  0.59371  1.0000
  H   H515      1.0  0.93846  0.45678  0.42307  1.0000
  H   H516      1.0  0.87492  0.42738  0.39463  1.0000
  C   C667      1.0  0.81858  0.35059  0.57402  1.0000
  C   C668      1.0  0.94784  0.46378  0.57462  1.0000
  H   H517      1.0  0.82656  0.02548  0.59119  1.0000
  H   H518      1.0  0.58037  0.00334  0.63837  1.0000
  H   H519      1.0  0.71630  0.04018  0.35621  1.0000
  H   H520      1.0  0.57414  0.09440  0.38487  1.0000
  H   H521      1.0  0.94599  0.27358  0.47598  1.0000
  C   C669      1.0  0.95307  0.29908  0.48329  1.0000
  C   C670      1.0  0.52054  0.04987  0.40429  1.0000
  C   C671      1.0  0.81054  0.03019  0.64218  1.0000
  C   C672      1.0  0.61788  0.11533  0.63306  1.0000
  C   C673      1.0  0.52596  0.00830  0.66054  1.0000
  H   H522      1.0  0.76933  0.07822  0.35187  1.0000
  H   H523      1.0  0.98933  0.30759  0.44191  1.0000
  C   C674      1.0  0.54125  0.98663  0.50487  1.0000
  H   H524      1.0  0.58879  0.01309  0.52416  1.0000
  C   C675      1.0  0.52788  0.18007  0.36418  1.0000
  C   C676      1.0  0.99704  0.47369  0.47901  1.0000
  C   C677      1.0  0.56269  0.99221  0.41845  1.0000
  H   H525      1.0  0.51513  0.20380  0.35731  1.0000
  C   C678      1.0  0.99741  0.41747  0.37088  1.0000
  C   C679      1.0  0.98042  0.42694  0.40028  1.0000
  H   H526      1.0  0.99037  0.41689  0.42349  1.0000
  H   H527      1.0  0.00563  0.33349  0.56268  1.0000
  C   C680      1.0  0.75325  0.07253  0.33007  1.0000
  H   H528      1.0  0.83112  0.01256  0.65097  1.0000
  C   C681      1.0  0.62015  0.08793  0.65479  1.0000
  H   H529      1.0  0.98838  0.43441  0.65642  1.0000
  C   C682      1.0  0.72257  0.05112  0.33245  1.0000
  C   C683      1.0  0.75909  0.06792  0.65312  1.0000
  H   H530      1.0  0.74926  0.47780  0.60746  1.0000
  H   H531      1.0  0.82652  0.47215  0.34811  1.0000
  C   C684      1.0  0.98482  0.43061  0.34095  1.0000
  H   H532      1.0  0.52833  0.98516  0.57679  1.0000
  C   C685      1.0  0.68550  0.09912  0.66300  1.0000
  Fe  Fe44      1.0  0.83886  0.34482  0.75711  1.0000
  S   S87       1.0  0.84313  0.29017  0.74150  1.0000
  S   S88       1.0  0.81705  0.36880  0.80446  1.0000
  C   C686      1.0  0.78259  0.19202  0.70789  1.0000
  H   H533      1.0  0.91824  0.43730  0.74831  1.0000
  Fe  Fe45      1.0  0.81970  0.30672  0.69231  1.0000
  H   H534      1.0  0.90670  0.43890  0.92196  1.0000
  Fe  Fe46      1.0  0.89793  0.30622  0.71987  1.0000
  S   S89       1.0  0.95228  0.27856  0.72149  1.0000
  S   S90       1.0  0.81110  0.36057  0.70981  1.0000
  S   S91       1.0  0.89503  0.35891  0.73887  1.0000
  H   H535      1.0  0.94892  0.32021  0.78017  1.0000
  H   H536      1.0  0.72304  0.06164  0.80117  1.0000
  S   S92       1.0  0.89767  0.37044  0.94425  1.0000
  H   H537      1.0  0.54920  0.03615  0.96445  1.0000
  S   S93       1.0  0.89175  0.42125  0.67211  1.0000
  H   H538      1.0  0.89132  0.40684  0.79631  1.0000
  C   C687      1.0  0.84083  0.37036  0.84268  1.0000
  C   C688      1.0  0.82635  0.39000  0.86848  1.0000
  C   C689      1.0  0.84382  0.39111  0.89951  1.0000
  C   C690      1.0  0.87582  0.37228  0.90514  1.0000
  C   C691      1.0  0.89055  0.35306  0.87920  1.0000
  C   C692      1.0  0.87333  0.35222  0.84810  1.0000
  H   H539      1.0  0.80125  0.40414  0.86451  1.0000
  H   H540      1.0  0.83210  0.40587  0.91926  1.0000
  H   H541      1.0  0.91530  0.33841  0.88328  1.0000
  H   H542      1.0  0.88483  0.33704  0.82851  1.0000
  H   H543      1.0  0.82973  0.32922  0.94786  1.0000
  H   H544      1.0  0.79460  0.21674  0.71230  1.0000
  H   H545      1.0  0.69975  0.15180  0.71012  1.0000
  C   C693      1.0  0.74631  0.42060  0.67051  1.0000
  H   H546      1.0  0.80606  0.11494  0.67839  1.0000
  C   C694      1.0  0.97818  0.43168  0.90061  1.0000
  C   C695      1.0  0.54252  0.04394  0.76745  1.0000
  H   H547      1.0  0.78947  0.04030  0.69050  1.0000
  C   C696      1.0  0.91169  0.42655  0.80009  1.0000
  H   H548      1.0  0.61167  0.98978  0.69505  1.0000
  H   H549      1.0  0.72797  0.20738  0.72182  1.0000
  S   S94       1.0  0.87506  0.31933  0.66998  1.0000
  H   H550      1.0  0.73103  0.10052  0.75400  1.0000
  C   C697      1.0  0.74494  0.18672  0.71321  1.0000
  C   C698      1.0  0.86893  0.47851  0.93383  1.0000
  Fe  Fe47      1.0  0.86804  0.37149  0.69077  1.0000
  H   H551      1.0  0.77268  0.35991  0.93309  1.0000
  H   H552      1.0  0.82008  0.44666  0.69288  1.0000
  H   H553      1.0  0.65481  0.05817  0.68596  1.0000
  C   C699      1.0  0.92679  0.44376  0.77312  1.0000
  P   P24       1.0  0.96344  0.46923  0.87907  1.0000
  C   C700      1.0  0.90015  0.46528  0.91833  1.0000
  C   C701      1.0  0.77818  0.35385  0.95869  1.0000
  C   C702      1.0  0.72501  0.07417  0.74943  1.0000
  H   H554      1.0  0.96382  0.48306  0.75723  1.0000
  H   H555      1.0  0.71228  0.01759  0.68735  1.0000
  C   C703      1.0  0.78871  0.13445  0.68862  1.0000
  H   H556      1.0  0.99609  0.40463  0.97881  1.0000
  H   H557      1.0  0.71046  0.00077  0.79180  1.0000
  C   C704      1.0  0.78652  0.04569  0.66447  1.0000
  C   C705      1.0  0.92284  0.43461  0.83205  1.0000
  C   C706      1.0  0.53233  0.01834  0.97806  1.0000
  C   C707      1.0  0.94961  0.45970  0.83735  1.0000
  H   H558      1.0  0.68241  0.46097  0.68485  1.0000
  C   C708      1.0  0.99119  0.40756  0.70220  1.0000
  C   C709      1.0  0.72222  0.06192  0.71713  1.0000
  H   H559      1.0  0.84861  0.42675  0.74440  1.0000
  H   H560      1.0  0.82508  0.44632  0.79837  1.0000
  H   H561      1.0  0.83596  0.01465  0.97037  1.0000
  C   C710      1.0  0.77977  0.47821  0.71713  1.0000
  C   C711      1.0  0.71338  0.01788  0.77101  1.0000
  H   H562      1.0  0.56554  0.03582  0.81582  1.0000
  H   H563      1.0  0.91074  0.42102  0.85268  1.0000
  C   C712      1.0  0.72052  0.05218  0.77626  1.0000
  C   C713      1.0  0.98372  0.43294  0.93480  1.0000
  C   C714      1.0  0.95261  0.46949  0.77820  1.0000
  H   H564      1.0  0.96070  0.34490  0.67762  1.0000
  H   H565      1.0  0.00183  0.37915  0.74637  1.0000
  C   C715      1.0  0.55869  0.02446  0.79233  1.0000
  H   H566      1.0  0.99819  0.34499  0.81498  1.0000
  H   H567      1.0  0.96147  0.40534  0.70448  1.0000
  C   C716      1.0  0.99357  0.37202  0.90144  1.0000
  C   C717      1.0  0.82624  0.44482  0.74538  1.0000
  H   H568      1.0  0.83352  0.17033  0.69101  1.0000
  C   C718      1.0  0.82973  0.03617  0.98583  1.0000
  H   H569      1.0  0.98142  0.39958  0.85740  1.0000
  C   C719      1.0  0.75080  0.12895  0.69372  1.0000
  C   C720      1.0  0.80988  0.45602  0.71620  1.0000
  C   C721      1.0  0.98426  0.40121  0.88387  1.0000
  C   C722      1.0  0.97758  0.31611  0.77397  1.0000
  C   C723      1.0  0.98678  0.29646  0.74660  1.0000
  P   P25       1.0  0.72940  0.08944  0.68205  1.0000
  H   H570      1.0  0.61776  0.35150  0.98324  1.0000
  H   H571      1.0  0.99704  0.34837  0.88850  1.0000
  C   C724      1.0  0.72910  0.15526  0.70638  1.0000
  C   C725      1.0  0.53387  0.02937  0.73705  1.0000
  C   C726      1.0  0.81045  0.33657  0.96698  1.0000
  C   C727      1.0  0.71465  0.02749  0.71210  1.0000
  C   C728      1.0  0.81293  0.45589  0.77577  1.0000
  H   H572      1.0  0.69692  0.15680  0.98256  1.0000
  C   C729      1.0  0.99739  0.37318  0.93568  1.0000
  C   C730      1.0  0.96373  0.47776  0.81022  1.0000
  H   H573      1.0  0.85218  0.46243  0.94958  1.0000
  H   H574      1.0  0.98008  0.45635  0.94810  1.0000
  C   C731      1.0  0.65382  0.07967  0.66956  1.0000
  H   H575      1.0  0.88517  0.05579  0.98464  1.0000
  H   H576      1.0  0.74829  0.41825  0.69703  1.0000
  C   C732      1.0  0.71044  0.00555  0.73891  1.0000
  H   H577      1.0  0.53691  0.07046  0.77169  1.0000
  C   C733      1.0  0.56625  0.99036  0.78684  1.0000
  C   C734      1.0  0.54139  0.99510  0.73134  1.0000
  C   C735      1.0  0.75364  0.36397  0.98339  1.0000
  C   C736      1.0  0.85740  0.05934  0.99390  1.0000
  Fe  Fe48      1.0  0.89327  0.39928  0.99287  1.0000
  H   H578      1.0  0.52178  0.04508  0.71809  1.0000
  S   S95       1.0  0.77111  0.28088  0.66518  1.0000
  C   C737      1.0  0.80449  0.16586  0.69577  1.0000
  H   H579      1.0  0.72946  0.37828  0.97652  1.0000
  C   C738      1.0  0.99302  0.40372  0.95228  1.0000
  C   C739      1.0  0.78342  0.47852  0.77695  1.0000
  H   H580      1.0  0.00334  0.35042  0.94946  1.0000
  H   H581      1.0  0.75769  0.13126  0.99346  1.0000
  C   C740      1.0  0.54906  0.99071  0.99377  1.0000
  H   H582      1.0  0.57851  0.98771  0.99228  1.0000
  H   H583      1.0  0.77246  0.02246  0.99208  1.0000
  C   C741      1.0  0.00552  0.32989  0.79382  1.0000
  C   C742      1.0  0.00663  0.42428  0.67509  1.0000
  H   H584      1.0  0.73751  0.36706  0.66430  1.0000
  Fe  Fe49      1.0  0.87211  0.64916  0.19272  1.0000
  S   S96       1.0  0.89351  0.68941  0.15870  1.0000
  S   S97       1.0  0.87459  0.59237  0.18271  1.0000
  Fe  Fe50      1.0  0.86720  0.69782  0.25136  1.0000
  S   S98       1.0  0.88821  0.74169  0.22088  1.0000
  S   S99       1.0  0.86405  0.70728  0.30682  1.0000
  Fe  Fe51      1.0  0.85009  0.72363  0.18059  1.0000
  S   S100      1.0  0.82876  0.76588  0.14607  1.0000
  Fe  Fe52      1.0  0.92925  0.70506  0.20106  1.0000
  S   S101      1.0  0.98975  0.71403  0.19121  1.0000
  S   S102      1.0  0.82568  0.68180  0.21267  1.0000
  S   S103      1.0  0.91112  0.66278  0.23373  1.0000
  Fe  Fe53      1.0  0.61024  0.92351  0.02661  1.0000
  S   S104      1.0  0.54828  0.93194  0.03090  1.0000
  Fe  Fe54      1.0  0.67559  0.87799  0.04660  1.0000
  H   H585      1.0  0.95735  0.52960  0.16062  1.0000
  S   S105      1.0  0.68465  0.83179  0.08005  1.0000
  Fe  Fe55      1.0  0.68755  0.95312  0.03517  1.0000
  C   C743      1.0  0.87525  0.84659  0.17060  1.0000
  S   S106      1.0  0.64991  0.92443  0.06927  1.0000
  H   H586      1.0  0.69668  0.97588  0.11096  1.0000
  C   C744      1.0  0.87690  0.51099  0.27251  1.0000
  C   C745      1.0  0.78811  0.78314  0.12763  1.0000
  C   C746      1.0  0.75262  0.77115  0.13479  1.0000
  C   C747      1.0  0.72146  0.78617  0.11981  1.0000
  C   C748      1.0  0.72518  0.81359  0.09776  1.0000
  C   C749      1.0  0.76066  0.82555  0.09056  1.0000
  C   C750      1.0  0.79182  0.81028  0.10523  1.0000
  H   H587      1.0  0.74918  0.75027  0.15178  1.0000
  H   H588      1.0  0.69422  0.77653  0.12546  1.0000
  H   H589      1.0  0.76412  0.84623  0.07336  1.0000
  H   H590      1.0  0.81910  0.81954  0.09911  1.0000
  C   C751      1.0  0.87192  0.57165  0.14400  1.0000
  C   C752      1.0  0.86332  0.58863  0.11469  1.0000
  C   C753      1.0  0.85969  0.57044  0.08496  1.0000
  C   C754      1.0  0.86532  0.53529  0.08409  1.0000
  C   C755      1.0  0.87509  0.51863  0.11327  1.0000
  C   C756      1.0  0.87788  0.53663  0.14302  1.0000
  H   H591      1.0  0.85855  0.61558  0.11506  1.0000
  H   H592      1.0  0.85213  0.58365  0.06260  1.0000
  H   H593      1.0  0.96387  0.71773  0.03818  1.0000
  H   H594      1.0  0.88408  0.52322  0.16558  1.0000
  C   C757      1.0  0.90188  0.89587  0.19643  1.0000
  H   H595      1.0  0.97843  0.73689  0.25917  1.0000
  C   C758      1.0  0.99365  0.56188  0.08313  1.0000
  C   C759      1.0  0.96305  0.55855  0.23849  1.0000
  H   H596      1.0  0.82655  0.50088  0.24620  1.0000
  C   C760      1.0  0.78804  0.95003  0.20313  1.0000
  H   H597      1.0  0.51693  0.87118  0.99798  1.0000
  S   S107      1.0  0.71587  0.90707  0.01447  1.0000
  H   H598      1.0  0.66949  0.93853  0.19267  1.0000
  C   C761      1.0  0.78957  0.92639  0.10199  1.0000
  C   C762      1.0  0.93953  0.57841  0.25745  1.0000
  C   C763      1.0  0.98266  0.68079  0.11196  1.0000
  H   H599      1.0  0.95468  0.55155  0.21387  1.0000
  C   C764      1.0  0.81000  0.97521  0.07069  1.0000
  C   C765      1.0  0.90493  0.86232  0.18622  1.0000
  P   P26       1.0  0.79600  0.92028  0.17037  1.0000
  H   H600      1.0  0.72548  0.81785  0.20183  1.0000
  H   H601      1.0  0.91313  0.58641  0.24752  1.0000
  H   H602      1.0  0.81985  0.85153  0.15316  1.0000
  H   H603      1.0  0.96873  0.67062  0.13342  1.0000
  H   H604      1.0  0.87767  0.82062  0.16244  1.0000
  C   C766      1.0  0.95020  0.58842  0.28892  1.0000
  C   C767      1.0  0.96201  0.69349  0.08570  1.0000
  H   H605      1.0  0.93029  0.84844  0.19025  1.0000
  C   C768      1.0  0.97616  0.60851  0.04731  1.0000
  C   C769      1.0  0.82003  0.97285  0.12963  1.0000
  H   H606      1.0  0.81190  0.91832  0.24110  1.0000
  C   C770      1.0  0.86892  0.91352  0.19145  1.0000
  H   H607      1.0  0.78290  0.93207  0.04953  1.0000
  H   H608      1.0  0.86719  0.93961  0.19914  1.0000
  C   C771      1.0  0.56512  0.93279  0.12169  1.0000
  C   C772      1.0  0.96925  0.54070  0.06601  1.0000
  H   H609      1.0  0.83374  0.63862  0.30633  1.0000
  H   H610      1.0  0.65593  0.94745  0.32594  1.0000
  C   C773      1.0  0.83855  0.89749  0.17670  1.0000
  C   C774      1.0  0.72494  0.84165  0.18854  1.0000
  C   C775      1.0  0.69415  0.85022  0.16964  1.0000
  C   C776      1.0  0.69376  0.88051  0.15190  1.0000
  C   C777      1.0  0.72444  0.90195  0.15247  1.0000
  C   C778      1.0  0.75620  0.89274  0.17012  1.0000
  C   C779      1.0  0.75567  0.86306  0.18921  1.0000
  C   C780      1.0  0.76964  0.98054  0.19684  1.0000
  C   C781      1.0  0.94854  0.55342  0.03974  1.0000
  C   C782      1.0  0.69057  0.94837  0.24130  1.0000
  H   H611      1.0  0.55592  0.93906  0.20483  1.0000
  H   H612      1.0  0.57121  0.91449  0.10261  1.0000
  H   H613      1.0  0.67101  0.83292  0.16793  1.0000
  H   H614      1.0  0.89040  0.52208  0.25121  1.0000
  C   C783      1.0  0.96960  0.50627  0.15248  1.0000
  H   H615      1.0  0.77926  0.85585  0.20396  1.0000
  C   C784      1.0  0.82299  0.48488  0.29696  1.0000
  C   C785      1.0  0.84232  0.86416  0.16556  1.0000
  H   H616      1.0  0.99249  0.58719  0.32574  1.0000
  H   H617      1.0  0.92965  0.53695  0.02674  1.0000
  H   H618      1.0  0.92296  0.51904  0.30476  1.0000
  H   H619      1.0  0.97877  0.63475  0.04010  1.0000
  C   C786      1.0  0.98254  0.61877  0.18052  1.0000
  H   H620      1.0  0.62241  0.98351  0.19534  1.0000
  C   C787      1.0  0.79891  0.94227  0.23547  1.0000
  C   C788      1.0  0.95187  0.58728  0.03045  1.0000
  C   C789      1.0  0.00041  0.50656  0.13149  1.0000
  H   H621      1.0  0.96030  0.58941  0.14106  1.0000
  H   H622      1.0  0.95700  0.63232  0.18433  1.0000
  H   H623      1.0  0.71201  0.92942  0.23962  1.0000
  H   H624      1.0  0.93209  0.60456  0.30308  1.0000
  H   H625      1.0  0.92508  0.90816  0.20820  1.0000
  H   H626      1.0  0.55594  0.97289  0.08703  1.0000
  H   H627      1.0  0.67017  0.88665  0.13664  1.0000
  C   C790      1.0  0.89517  0.50914  0.30283  1.0000
  C   C791      1.0  0.79325  0.94343  0.07192  1.0000
  H   H628      1.0  0.72364  0.92523  0.13843  1.0000
  C   C792      1.0  0.97993  0.70755  0.05839  1.0000
  C   C793      1.0  0.66668  0.95351  0.21480  1.0000
  H   H629      1.0  0.93211  0.69282  0.08681  1.0000
  H   H630      1.0  0.57176  0.89732  0.16154  1.0000
  H   H631      1.0  0.77698  0.90155  0.10230  1.0000
  S   S108      1.0  0.85796  0.51277  0.04672  1.0000
  C   C794      1.0  0.80183  0.94152  0.13124  1.0000
  C   C795      1.0  0.55639  0.94669  0.17917  1.0000
  H   H632      1.0  0.93543  0.59704  0.01031  1.0000
  C   C796      1.0  0.68750  0.96835  0.26953  1.0000
  H   H633      1.0  0.80218  0.95967  0.28565  1.0000
  C   C797      1.0  0.98441  0.57847  0.30154  1.0000
  C   C798      1.0  0.55661  0.96602  0.11286  1.0000
  H   H634      1.0  0.96601  0.51435  0.07271  1.0000
  C   C799      1.0  0.56525  0.92315  0.15483  1.0000
  C   C800      1.0  0.63980  0.97865  0.21646  1.0000
  C   C801      1.0  0.52775  0.96726  0.01126  1.0000
  H   H635      1.0  0.98506  0.48986  0.01037  1.0000
  C   C802      1.0  0.98462  0.59439  0.15586  1.0000
  C   C803      1.0  0.99768  0.54917  0.25062  1.0000
  C   C804      1.0  0.99690  0.59591  0.07362  1.0000
  H   H636      1.0  0.87922  0.49166  0.11324  1.0000
  H   H637      1.0  0.70716  0.96501  0.28935  1.0000
  H   H638      1.0  0.99094  0.64956  0.32366  1.0000
  C   C805      1.0  0.79324  0.96553  0.26081  1.0000
  C   C806      1.0  0.84081  0.49899  0.26961  1.0000
  C   C807      1.0  0.54791  0.98001  0.17037  1.0000
  S   S109      1.0  0.63206  0.87469  0.00667  1.0000
  H   H639      1.0  0.83108  0.98436  0.15167  1.0000
  H   H640      1.0  0.77527  0.48752  0.05335  1.0000
  H   H641      1.0  0.94482  0.69537  0.32585  1.0000
  Fe  Fe56      1.0  0.85281  0.55369  0.53524  1.0000
  S   S110      1.0  0.89717  0.58278  0.56144  1.0000
  C   C808      1.0  0.98891  0.70986  0.39850  1.0000
  Fe  Fe57      1.0  0.85681  0.59872  0.47351  1.0000
  S   S111      1.0  0.90163  0.63088  0.49510  1.0000
  S   S112      1.0  0.83301  0.60033  0.42164  1.0000
  Fe  Fe58      1.0  0.92650  0.58189  0.51261  1.0000
  H   H642      1.0  0.61423  0.81106  0.62523  1.0000
  Fe  Fe59      1.0  0.86797  0.62909  0.54213  1.0000
  S   S113      1.0  0.86410  0.67750  0.57256  1.0000
  S   S114      1.0  0.88426  0.54991  0.48778  1.0000
  S   S115      1.0  0.82125  0.59995  0.51921  1.0000
  C   C809      1.0  0.75115  0.90080  0.50432  1.0000
  C   C810      1.0  0.91899  0.53450  0.38107  1.0000
  C   C811      1.0  0.75639  0.87273  0.52479  1.0000
  H   H643      1.0  0.70437  0.88735  0.61261  1.0000
  S   S116      1.0  0.68410  0.82408  0.65875  1.0000
  H   H644      1.0  0.83830  0.59521  0.61530  1.0000
  C   C812      1.0  0.72498  0.93230  0.63583  1.0000
  C   C813      1.0  0.71002  0.91395  0.60964  1.0000
  H   H645      1.0  0.80223  0.76201  0.64191  1.0000
  C   C814      1.0  0.72345  0.98332  0.60183  1.0000
  C   C815      1.0  0.82829  0.74854  0.47786  1.0000
  C   C816      1.0  0.82502  0.49666  0.44503  1.0000
  C   C817      1.0  0.73172  0.96697  0.63173  1.0000
  H   H646      1.0  0.69252  0.91563  0.55879  1.0000
  C   C818      1.0  0.82619  0.69267  0.59619  1.0000
  C   C819      1.0  0.79375  0.67390  0.60043  1.0000
  C   C820      1.0  0.76459  0.68685  0.61968  1.0000
  C   C821      1.0  0.76736  0.71871  0.63477  1.0000
  C   C822      1.0  0.79968  0.73754  0.63040  1.0000
  C   C823      1.0  0.82893  0.72453  0.61129  1.0000
  H   H647      1.0  0.79118  0.64941  0.58896  1.0000
  H   H648      1.0  0.98002  0.64216  0.53128  1.0000
  H   H649      1.0  0.85390  0.73921  0.60823  1.0000
  H   H650      1.0  0.57815  0.96976  0.42470  1.0000
  C   C824      1.0  0.85708  0.67641  0.33807  1.0000
  C   C825      1.0  0.78800  0.56620  0.61615  1.0000
  C   C826      1.0  0.84319  0.62997  0.39001  1.0000
  C   C827      1.0  0.86002  0.66105  0.39661  1.0000
  C   C828      1.0  0.86639  0.68431  0.37080  1.0000
  H   H651      1.0  0.74715  0.81072  0.46726  1.0000
  H   H652      1.0  0.55593  0.96314  0.50162  1.0000
  H   H653      1.0  0.86731  0.66744  0.42164  1.0000
  H   H654      1.0  0.87827  0.70871  0.37626  1.0000
  C   C829      1.0  0.94444  0.59824  0.40135  1.0000
  H   H655      1.0  0.95258  0.50861  0.48835  1.0000
  H   H656      1.0  0.83677  0.69460  0.47706  1.0000
  H   H657      1.0  0.67028  0.74752  0.61237  1.0000
  H   H658      1.0  0.65703  0.91906  0.38000  1.0000
  C   C830      1.0  0.74873  0.83575  0.47787  1.0000
  C   C831      1.0  0.70895  0.77279  0.58037  1.0000
  C   C832      1.0  0.99012  0.66594  0.34488  1.0000
  C   C833      1.0  0.84132  0.64491  0.33135  1.0000
  H   H659      1.0  0.84195  0.84298  0.65172  1.0000
  C   C834      1.0  0.65612  0.94637  0.37866  1.0000
  H   H660      1.0  0.91419  0.61804  0.36023  1.0000
  H   H661      1.0  0.59613  0.87217  0.65640  1.0000
  C   C835      1.0  0.65581  0.96532  0.40765  1.0000
  C   C836      1.0  0.00535  0.53219  0.49556  1.0000
  H   H662      1.0  0.98810  0.72758  0.41860  1.0000
  C   C837      1.0  0.87146  0.49606  0.60627  1.0000
  H   H663      1.0  0.76097  0.87708  0.55074  1.0000
  C   C838      1.0  0.70996  0.96482  0.57522  1.0000
  C   C839      1.0  0.65571  0.96266  0.34794  1.0000
  C   C840      1.0  0.67426  0.75978  0.58870  1.0000
  C   C841      1.0  0.95394  0.56934  0.41917  1.0000
  C   C842      1.0  0.94141  0.53764  0.40907  1.0000
  C   C843      1.0  0.96371  0.71392  0.37271  1.0000
  H   H664      1.0  0.61818  0.75212  0.57300  1.0000
  C   C844      1.0  0.62965  0.84424  0.58519  1.0000
  H   H665      1.0  0.81565  0.80088  0.48502  1.0000
  C   C845      1.0  0.98208  0.50525  0.48755  1.0000
  H   H666      1.0  0.88197  0.52111  0.60135  1.0000
  H   H667      1.0  0.54794  0.82115  0.61964  1.0000
  H   H668      1.0  0.56943  0.88671  0.53628  1.0000
  H   H669      1.0  0.84790  0.75344  0.45822  1.0000
  S   S117      1.0  0.98791  0.57154  0.50890  1.0000
  H   H670      1.0  0.94377  0.73427  0.37324  1.0000
  C   C846      1.0  0.96427  0.69196  0.34593  1.0000
  H   H671      1.0  0.96510  0.70032  0.54894  1.0000
  C   C847      1.0  0.78424  0.52154  0.65748  1.0000
  C   C848      1.0  0.00116  0.54494  0.60467  1.0000
  H   H672      1.0  0.95302  0.62298  0.40979  1.0000
  C   C849      1.0  0.90902  0.56383  0.36363  1.0000
  H   H673      1.0  0.82081  0.59811  0.35195  1.0000
  C   C850      1.0  0.92242  0.59542  0.37339  1.0000
  C   C851      1.0  0.84921  0.50595  0.41968  1.0000
  C   C852      1.0  0.79723  0.70894  0.51404  1.0000
  H   H674      1.0  0.94814  0.51588  0.42396  1.0000
  H   H675      1.0  0.98845  0.74931  0.51662  1.0000
  C   C853      1.0  0.78613  0.81513  0.57458  1.0000
  P   P27       1.0  0.76026  0.80330  0.53834  1.0000
  H   H676      1.0  0.68878  0.80261  0.50364  1.0000
  C   C854      1.0  0.82388  0.80757  0.57709  1.0000
  C   C855      1.0  0.84392  0.81752  0.60486  1.0000
  C   C856      1.0  0.82649  0.83520  0.63020  1.0000
  C   C857      1.0  0.78900  0.84281  0.62785  1.0000
  C   C858      1.0  0.76883  0.83267  0.60029  1.0000
  H   H677      1.0  0.77562  0.85676  0.64737  1.0000
  C   C859      1.0  0.57900  0.87069  0.55626  1.0000
  C   C860      1.0  0.50766  0.96543  0.57729  1.0000
  C   C861      1.0  0.82325  0.57477  0.62714  1.0000
  C   C862      1.0  0.76843  0.53994  0.63139  1.0000
  C   C863      1.0  0.98178  0.69634  0.52708  1.0000
  H   H678      1.0  0.73982  0.83883  0.59887  1.0000
  C   C864      1.0  0.61688  0.86546  0.56016  1.0000
  H   H679      1.0  0.65900  0.84008  0.58813  1.0000
  H   H680      1.0  0.54761  0.92612  0.57832  1.0000
  C   C865      1.0  0.78392  0.76894  0.51814  1.0000
  H   H681      1.0  0.90761  0.48740  0.64759  1.0000
  C   C866      1.0  0.55366  0.85569  0.57816  1.0000
  C   C867      1.0  0.56667  0.83384  0.60283  1.0000
  C   C868      1.0  0.60450  0.82796  0.60608  1.0000
  H   H682      1.0  0.83795  0.79382  0.55784  1.0000
  C   C869      1.0  0.70312  0.93007  0.57926  1.0000
  C   C870      1.0  0.83389  0.62206  0.35728  1.0000
  H   H683      1.0  0.85318  0.53248  0.41427  1.0000
  H   H684      1.0  0.52308  0.79902  0.53853  1.0000
  H   H685      1.0  0.00372  0.53433  0.35113  1.0000
  H   H686      1.0  0.81088  0.51604  0.45902  1.0000
  S   S118      1.0  0.82440  0.50604  0.55349  1.0000
  H   H687      1.0  0.74381  0.98117  0.65165  1.0000
  C   C871      1.0  0.82204  0.71536  0.48840  1.0000
  H   H688      1.0  0.77595  0.57980  0.59560  1.0000
  C   C872      1.0  0.64502  0.76227  0.56648  1.0000
  C   C873      1.0  0.74366  0.86392  0.45745  1.0000
  C   C874      1.0  0.68513  0.79106  0.52759  1.0000
  H   H689      1.0  0.73146  0.76996  0.59761  1.0000
  H   H690      1.0  0.74081  0.53425  0.62293  1.0000
  C   C875      1.0  0.75534  0.83989  0.51174  1.0000
  H   H691      1.0  0.62777  0.77987  0.51868  1.0000
  C   C876      1.0  0.77833  0.73556  0.52896  1.0000
  H   H692      1.0  0.63633  0.87784  0.54374  1.0000
  H   H693      1.0  0.76001  0.72996  0.54936  1.0000
  C   C877      1.0  0.71464  0.78884  0.54991  1.0000
  C   C878      1.0  0.65044  0.77795  0.53594  1.0000
  H   H694      1.0  0.87293  0.81135  0.60680  1.0000
  H   H695      1.0  0.73969  0.67207  0.62285  1.0000
  H   H696      1.0  0.75175  0.92606  0.51465  1.0000
  C   C879      1.0  0.83919  0.55675  0.65312  1.0000
  H   H697      1.0  0.79329  0.68329  0.52285  1.0000
  H   H698      1.0  0.73871  0.86054  0.43135  1.0000
  H   H699      1.0  0.97006  0.57156  0.44144  1.0000
  C   C880      1.0  0.74483  0.89644  0.47069  1.0000
  H   H700      1.0  0.74072  0.91835  0.45503  1.0000
  C   C881      1.0  0.99481  0.72386  0.50878  1.0000
  C   C882      1.0  0.80962  0.77530  0.49288  1.0000
  H   H701      1.0  0.98597  0.56699  0.59641  1.0000
  H   H702      1.0  0.65682  0.95291  0.43151  1.0000
  H   H703      1.0  0.92790  0.50566  0.54584  1.0000
  S   S119      1.0  0.70395  0.98375  0.53605  1.0000
  H   H704      1.0  0.53268  0.96842  0.37924  1.0000
  H   H705      1.0  0.51608  0.78025  0.48081  1.0000
  P   P28       1.0  0.90072  0.49347  0.37001  1.0000
  C   C883      1.0  0.50959  0.81539  0.52084  1.0000
  C   C884      1.0  0.99004  0.66354  0.51705  1.0000
  H   H706      1.0  0.97266  0.54112  0.65109  1.0000
  C   C885      1.0  0.51849  0.93159  0.57751  1.0000
  C   C886      1.0  0.99366  0.53028  0.63535  1.0000
  H   H707      1.0  0.88982  0.56285  0.34329  1.0000
  S   S120      1.0  0.72965  0.73353  0.65880  1.0000
  C   C887      1.0  0.87740  0.49517  0.33056  1.0000
  H   H708      1.0  0.86679  0.56306  0.66123  1.0000
  H   H709      1.0  0.63627  0.71305  0.66196  1.0000
  H   H710      1.0  0.65849  0.89661  0.66216  1.0000
  H   H711      1.0  0.82002  0.72792  0.71788  1.0000
  S   S121      1.0  0.75247  0.82179  0.71235  1.0000
  H   H712      1.0  0.97974  0.52460  0.92520  1.0000
  Fe  Fe60      1.0  0.64570  0.82063  0.70224  1.0000
  S   S122      1.0  0.67391  0.86099  0.73150  1.0000
  S   S123      1.0  0.58445  0.81278  0.69444  1.0000
  C   C888      1.0  0.54128  0.92649  0.87628  1.0000
  Fe  Fe61      1.0  0.70882  0.81923  0.75197  1.0000
  S   S124      1.0  0.72119  0.80961  0.80604  1.0000
  C   C889      1.0  0.71392  0.61869  0.78321  1.0000
  S   S125      1.0  0.67740  0.77874  0.72571  1.0000
  H   H713      1.0  0.73999  0.63162  0.78681  1.0000
  Fe  Fe62      1.0  0.67054  0.90670  0.97616  1.0000
  S   S126      1.0  0.67019  0.90929  0.92006  1.0000
  H   H714      1.0  0.56475  0.93046  0.95731  1.0000
  S   S127      1.0  0.64620  0.95524  0.99444  1.0000
  C   C890      1.0  0.70702  0.83747  0.83763  1.0000
  C   C891      1.0  0.69067  0.86854  0.83037  1.0000
  C   C892      1.0  0.67952  0.89003  0.85601  1.0000
  C   C893      1.0  0.68488  0.88090  0.88915  1.0000
  C   C894      1.0  0.70143  0.84990  0.89648  1.0000
  C   C895      1.0  0.71233  0.82823  0.87078  1.0000
  H   H715      1.0  0.68686  0.87616  0.80501  1.0000
  H   H716      1.0  0.66687  0.91402  0.85015  1.0000
  H   H717      1.0  0.70619  0.84282  0.92186  1.0000
  H   H718      1.0  0.72519  0.80432  0.87660  1.0000
  C   C896      1.0  0.55279  0.82862  0.72359  1.0000
  C   C897      1.0  0.56241  0.85414  0.74577  1.0000
  C   C898      1.0  0.53660  0.86532  0.76930  1.0000
  C   C899      1.0  0.67886  0.56650  0.78333  1.0000
  H   H719      1.0  0.61639  0.54835  0.70455  1.0000
  H   H720      1.0  0.58980  0.86498  0.74503  1.0000
  H   H721      1.0  0.98294  0.49834  0.81362  1.0000
  C   C900      1.0  0.57226  0.95071  0.68214  1.0000
  S   S128      1.0  0.73608  0.91309  0.67398  1.0000
  H   H722      1.0  0.54439  0.88465  0.78670  1.0000
  C   C901      1.0  0.68190  0.63695  0.77537  1.0000
  C   C902      1.0  0.64819  0.61970  0.77238  1.0000
  P   P29       1.0  0.68341  0.68247  0.77249  1.0000
  C   C903      1.0  0.64827  0.69614  0.74370  1.0000
  C   C904      1.0  0.67467  0.70071  0.81263  1.0000
  C   C905      1.0  0.66608  0.73515  0.81538  1.0000
  C   C906      1.0  0.65974  0.74956  0.84625  1.0000
  C   C907      1.0  0.66152  0.72971  0.87468  1.0000
  C   C908      1.0  0.66983  0.69535  0.87225  1.0000
  C   C909      1.0  0.67648  0.68087  0.84138  1.0000
  C   C910      1.0  0.65579  0.69780  0.70976  1.0000
  C   C911      1.0  0.61316  0.70569  0.75506  1.0000
  C   C912      1.0  0.72801  0.69580  0.75675  1.0000
  C   C913      1.0  0.74512  0.72524  0.76853  1.0000
  C   C914      1.0  0.77828  0.73661  0.75473  1.0000
  H   H723      1.0  0.83312  0.51638  0.68791  1.0000
  H   H724      1.0  0.73359  0.55918  0.69376  1.0000
  C   C915      1.0  0.74534  0.67745  0.73150  1.0000
  H   H725      1.0  0.62295  0.63332  0.76728  1.0000
  H   H726      1.0  0.66519  0.75118  0.79372  1.0000
  H   H727      1.0  0.65424  0.77639  0.84814  1.0000
  H   H728      1.0  0.65692  0.74113  0.89857  1.0000
  H   H729      1.0  0.67153  0.68003  0.89437  1.0000
  H   H730      1.0  0.68325  0.65432  0.84018  1.0000
  C   C916      1.0  0.70938  0.54306  0.69390  1.0000
  H   H731      1.0  0.60629  0.70399  0.78097  1.0000
  H   H732      1.0  0.73284  0.74001  0.78792  1.0000
  H   H733      1.0  0.79057  0.75992  0.76343  1.0000
  H   H734      1.0  0.73254  0.65501  0.72150  1.0000
  H   H735      1.0  0.66389  0.81436  0.96052  1.0000
  H   H736      1.0  0.58585  0.73311  0.97038  1.0000
  H   H737      1.0  0.53445  0.88070  0.84860  1.0000
  Fe  Fe63      1.0  0.71805  0.78414  0.68410  1.0000
  H   H738      1.0  0.54474  0.76094  0.93018  1.0000
  C   C917      1.0  0.51702  0.81518  0.72442  1.0000
  C   C918      1.0  0.61020  0.82261  0.80786  1.0000
  C   C919      1.0  0.63452  0.91174  0.66771  1.0000
  C   C920      1.0  0.54165  0.89140  0.87228  1.0000
  H   H739      1.0  0.70547  0.97885  0.73475  1.0000
  C   C921      1.0  0.91251  0.51980  0.89340  1.0000
  H   H740      1.0  0.50932  0.79559  0.70723  1.0000
  H   H741      1.0  0.92890  0.53596  0.87748  1.0000
  H   H742      1.0  0.54915  0.96775  0.91027  1.0000
  H   H743      1.0  0.87394  0.55929  0.90547  1.0000
  H   H744      1.0  0.83594  0.52277  0.94216  1.0000
  C   C922      1.0  0.55760  0.78235  0.83964  1.0000
  H   H745      1.0  0.56512  0.86895  0.95075  1.0000
  C   C923      1.0  0.60786  0.96420  0.68631  1.0000
  H   H746      1.0  0.56433  0.94934  0.75250  1.0000
  C   C924      1.0  0.63887  0.94479  0.67887  1.0000
  C   C925      1.0  0.57105  0.77309  0.80872  1.0000
  C   C926      1.0  0.54948  0.94060  0.90695  1.0000
  C   C927      1.0  0.55108  0.87028  0.89880  1.0000
  H   H747      1.0  0.67253  0.58443  0.70369  1.0000
  H   H748      1.0  0.64528  0.75998  0.98603  1.0000
  H   H749      1.0  0.63099  0.83786  0.79567  1.0000
  H   H750      1.0  0.60681  0.85505  0.84999  1.0000
  H   H751      1.0  0.56012  0.72655  0.74181  1.0000
  H   H752      1.0  0.53796  0.76597  0.85196  1.0000
  H   H753      1.0  0.60727  0.78642  0.76849  1.0000
  H   H754      1.0  0.62328  0.84255  0.92030  1.0000
  H   H755      1.0  0.56097  0.75035  0.79717  1.0000
  P   P30       1.0  0.53251  0.97608  0.69170  1.0000
  C   C928      1.0  0.58682  0.71826  0.73301  1.0000
  C   C929      1.0  0.67480  0.55747  0.69969  1.0000
  C   C930      1.0  0.55810  0.91963  0.93358  1.0000
  C   C931      1.0  0.59516  0.72108  0.69951  1.0000
  C   C932      1.0  0.63780  0.80279  0.95390  1.0000
  C   C933      1.0  0.85975  0.51247  0.92954  1.0000
  H   H756      1.0  0.53443  0.94265  0.85565  1.0000
  C   C934      1.0  0.57034  0.77317  0.93703  1.0000
  C   C935      1.0  0.58007  0.80470  0.92358  1.0000
  C   C936      1.0  0.61451  0.81887  0.93136  1.0000
  P   P31       1.0  0.55074  0.82509  0.89368  1.0000
  C   C937      1.0  0.56895  0.81276  0.85415  1.0000
  H   H757      1.0  0.74363  0.50673  0.74921  1.0000
  C   C938      1.0  0.88131  0.53304  0.90903  1.0000
  C   C939      1.0  0.55863  0.88461  0.92965  1.0000
  C   C940      1.0  0.62947  0.71048  0.68785  1.0000
  C   C941      1.0  0.77862  0.68881  0.71785  1.0000
  C   C942      1.0  0.59715  0.79333  0.79269  1.0000
  C   C943      1.0  0.59620  0.83236  0.83851  1.0000
  C   C944      1.0  0.79491  0.71854  0.72925  1.0000
  C   C945      1.0  0.55777  0.97574  0.75647  1.0000
  C   C946      1.0  0.59375  0.75712  0.95955  1.0000
  C   C947      1.0  0.64673  0.58459  0.77632  1.0000
  C   C948      1.0  0.62731  0.77210  0.96823  1.0000
  H   H758      1.0  0.73729  0.56960  0.79262  1.0000
  H   H759      1.0  0.68233  0.69058  0.70003  1.0000
  C   C949      1.0  0.59929  0.89802  0.66416  1.0000
  H   H760      1.0  0.62061  0.57141  0.77407  1.0000
  C   C950      1.0  0.71244  0.58355  0.78679  1.0000
  C   C951      1.0  0.64621  0.50239  0.69507  1.0000
  H   H761      1.0  0.67768  0.53929  0.78629  1.0000
  Fe  Fe64      1.0  0.71514  0.86138  0.68982  1.0000
  H   H762      1.0  0.79103  0.67537  0.69745  1.0000
  H   H763      1.0  0.57523  0.73202  0.68270  1.0000
  H   H764      1.0  0.66637  0.95519  0.68178  1.0000
  C   C952      1.0  0.64321  0.53715  0.70023  1.0000
  C   C953      1.0  0.92284  0.48609  0.89885  1.0000
  C   C954      1.0  0.81993  0.53011  0.66812  1.0000
  C   C955      1.0  0.76683  0.48971  0.74774  1.0000
  C   C956      1.0  0.71252  0.50824  0.68799  1.0000
  C   C957      1.0  0.68072  0.48793  0.68898  1.0000
  C   C958      1.0  0.56818  0.91736  0.67123  1.0000
  C   C959      1.0  0.00227  0.52260  0.90779  1.0000
  H   H765      1.0  0.77297  0.48674  0.80060  1.0000
  P   P32       1.0  0.75706  0.48999  0.67916  1.0000
  H   H766      1.0  0.54125  0.90595  0.66852  1.0000
  C   C960      1.0  0.00189  0.49811  0.88280  1.0000
  H   H767      1.0  0.57914  0.97528  0.80600  1.0000
  H   H768      1.0  0.62172  0.48660  0.69549  1.0000
