data_image0
_chemical_formula_structural       FeS2FeS2FeSFeS3CPFeSHCFeS2FeS2FeSFeS3HSFeS2CH2C2HC6H4C3H2CHCH2C9H4C6H4C4H2C3H5CHCHC2HCSC3H2CH2CHC7H2FeC2HC3HC3H3SCH2PC9HC2HCH9CPC2HC9H7C5HCH4CSCHC7PC5H9C4H3C2HCH3CH2CHCH2CHC2HCHCH2C6HCHCH3C3H2C2H5C2HC5H2C3H3SC3FeSFeS2FeS2FeSFeS3HSHCFeSFeS2FeS2FeSFeS3C3H2C3HCH3CHC6H4C6H4C3HCHC2H2C6H5C4HC2H4CH3C2HC2H2C2H3C2H2CH2C2H2C4H3CHCPC10HC2HC2H7C2HCH2C7H5C3H2C2HC2HCSHCPCHCPC5HC2HC2H6PCHCHCHCHC3HCP2HC7HC10HC3HCH3C2HCH7C2H3CHC6H3C7HC2H2CHC3H3SHC2HCH2CSCHC2H4CH2FeCFeHCHC4HC3H2CHCH2CH2C3HCH3PHCHC4H3C2SHFeSFeSFeS2FeS2FeSFeS3FeS2FeS2FeSFeS3FeSFeC2SH2C2HC2H3C3H2C6H4C6H4C2HCHC4HC6H4CH3C4SHCH2C3SHSPHC2HC3HCH2CPCHC2HCH3C5HCH3CH2C2H2C3PC8PC4HC4HC8H7CH7C3HC2H3C5HC3HCHC2FeHC2HCHCH2CH2C3HCH2C2HC2H3CHC6HCPHC5HC2H2CH3C3HCH4C5HCHC4HC5H5CH2SH7CH3CH2CHCHCH2C4H2CHPHCH2C2H7C3HCHC3H3CH2CHC3HCHCH2CHC2H2CHFeS2HFeS2FeS2FeSFeS3FeS2FeS2FeSFeS3FeSFeS3C3HC7H4C7H2C7H4C8H2C6H7CH2C2PC10HC2H2C3H9CHSC2H5CHCHCH4C4H2CHCH2CHPCHC3HC3H2SCHCH5C2H4CH3CHCHC3HCHC3HCH2C3H3C5H5CHC4HC3H2CHC4H2C3HCHC2HCH5CHC2H4C2H2C5H3PH6C4H4C2H2CPC14HCHSHCHPCHCHFeC2HC6HCH2CH7C2FeS2HFeS2FeS2FeSFeS3FeS2FeS2FeSFeS4CFeSHSCHSC2H3C2H2C7H4C6H4C3HC3H2C7H9C3HCH4C2H2SC3HC4H9PCHC3HCHCHCHC3HC2HCH2C3HC4HFeC2HC2H2C7PC15H3CH2CH8CH2C2HC4H2C2H4CHPC2HCPHCHCHC3H2CH2C2HC2HCH4CH2C3H2CHCHCH2CH5CHCH2PHC4H2CHC2HC3H4C6PC8HC4FeHCH2C3HC2H2CHCSC3HCHC3HC3H6C4HCH2C2HCHC2H4CH4C3SCFeSH2FeS2FeS2FeSFeS4HC2FeSFeS2FeS2FeSFeS3C3HCHC2PHC6H4C3HC6H4C3H4C2HC6H5CHPH2C2HCPHCH3C3H4C7HC2H2CH2C6HC4HC3HC3HCH6CH2CHC2SHPC3PC13H3CH4CH3C5HC2H2C2H2C2H5C7H2CHCH2CH2C2HCH2CH2C6HPC3H2C6PC10HC2H2CH7CH3C3H3CH2PC3HCH3CHC4H3CH8C2H3C2HC2HCHCHC2HCHCH2SC2HC3H3SHCHFeSFeS2FeS2FeSFeS3C2FeS3FeS2FeS2FeSFeS3HC3HC3HC7H4C4H2C7H5CSH2C2H2C7H6CH3C2H2C3H2CH5C2PC6HC5H2C6H2CH3CHC2H2SCHC2H5CHPHC2FeH3CH2C6H2CHC2HC3HC4HC3H3CP2H3CHCH3CHCH2PC2HC2H2C6HC3SH2CHCFeHCHC6PC7H2C5HCHCH11CH3C2HCH2CHC2HPC7HCHCHC8HC3HC2HCHCHCH5CHC3H2C2H2CHCH2CHC3H3CHCHC2HCH2C4HC2HC2H2C2H6CHCHC2HCFeSCSHSFeS2HFeS2FeS2FeSFeS3FeS2FeS2FeSFeS3CHCH2CHCH2C6H4CHC2HC2H2C7H4C2HC2HC6H4C2H2C7PC7FeHCHC8H11CH9PC9H3CH3C6PC3HFeC3SHC4H3C2H4CHCH2C2H3CSC2HC5HCSC3SCH4C3H4CHC2HC8HC3H3CH2CFeC7PC18HCH19C2H3CSC2H2CHCHPC4H2C2HFeCHC3H2C2H2C2HCHCHC5HC2H3CHCH5CHCH6CH3CHC3FeS2FeS2FeSFeS3HSCSC2HSHSFeSFeS2FeS2FeSFeS3C2H2C3H3C6H5CHFeC10H4C6H4C2H3C3H3C6PCH3C3H2C2H2C2H3CHCHCPC2HC3H2CHC2HCH2C2H2C5H2CH3CH2CHCH3CHC2H5C2HC6H2C2PCH3C2PC10PHC6HC3H6CHC3H3C3H4C2H2CHC2H2CHC4H2CHCHCHCH2CHCH2C2H2CHCHC4H5CH3CHPC2FeH2C13HC2HC3HC2HCHCHC2H2C2HC2H2CH2CPSCH3CH3C2HC2HC3H2CH3C3H2SHC2H2CHSCH5C2SH2FeSCSFeSHSFeS2FeS2FeSFeS3FeS2FeS2FeSFeS3HC2H3CHCHC6H4CHCH2C4HC6H6C9H4C2H4C2HC2PH2C6H2C8H7CHC2HC2HC4H5C3HCHCHCHCH2SHC3H3CH2PHC2H2C6PC18H20C2HC4HC5H2C6H6C3H6C3SHCH2PHC4HC2H2PH2C3H3C2HC5H3C3SH2C3FeH2C2HC6HCHCH2CHC4HC2H3C5HFeCH4C4H2C3HFeS2FeS2FeSFeS5FeSFeSFeS2FeS2FeSFeS3FeSCS2HC2HCHC6H4CH2CH2CH3C4HC8H4C6H7C3HC2H2CHC2HC2PH2C3FeC2PHC2HCH2CHC2HC6PC4HC13H8CH3C3H3CH2C3H2C2H3C3HCH2CH4C4H4C6HC4HC2H3C3H5C4H2CH2C3H3C6PC12HCHC3H5CH4CH4CSC3H3PCHCHCHCHC5HCHCH3CH8CHCHCHC2HC2H2C3H2CHCH2C2HCHPH2C2HC5PH2CH3FeC2HC2H2CHC2FeS2FeS2FeSFeS3FeSFeS3FeS2FeS2FeSFeS3FeSC2HSHC2H2C6H4CHC2HC2HCHCH2C8H4C6H5CH2C4H2CHC3HC2H4C5HPHCHC3H5C2H5CH5CH2CSHC4HC4HC2H3SH6CHC7H4CPC8HCH3C4H4CHC2HC2HC2H2CHCHC6HC2HC2H2PC2H2FeHCH2PC3HCHCHC2H2C2HC2HC2H2C3HCHCH2CHC4HCH4CPC6PC18HCH12C2HCH2C3H3C2H3C5H3CHCH2C4HCH3CSCFeSC2FeS2FeS2FeSFeS3FeS2FeS2FeSFeS3H2FeS2H2CHC6H4C3H2C2H3C6H4C3H2C3H2C6H4CHC2H3CH2CHC2H2CH2C2HCHCH2CHPC3HCHCH3C7H2CHC2PH6CH2CH2CH2C3H4C3HCPC21HCH6C2HPH5CH2C3H2C6HC2HC3HC4HCHCH5C2H4CH2CH4CH2C8H4CHC3HC4HCHC3HSC6HCHC4PC16PHSH4C2HCH2CFeHCFeHSC2H5C3SH3FeSFeS2FeS2FeSFeS3CSHSFeSFeS2FeS2FeSFeS3CHC2H2C2HC7H5C2HC6H4C3HCHCH2C7H4C2H2CSHC2HCH5CHCH2C2H2C3SCHC4H2C3H2CHCHCHC2H2CH2C2HCH2CHC3H2C3H3CHCHCHCHPC12HPC2H6CH2C3HC2H2C2FeC2HCHCH2C2H2C6HC2HC3H10PCPHC4HCHC2HC2H5C3PC3HC3H2C2HC2HC4HC2HCHC2H2FeCHC2H5C2HCH2CHCH3C6H3C3HC7HCH9SH3CHC2H2FeSCSFeS2FeS2FeSFeS4C2HFeSFeS2FeS2FeSFeS3CHCH2C2H3C6H4C5HC7H4CHC2HC2H2C7H6C2HCH4CHCHCH2C2H3C3HCHSC2HC2HCSH2C2PC8HCH3CHC2HC4HCHC2H2CHC2HC2FeHC3H3C3HCHCH4C2H4CHC3H5CHCH3FeHC2HCS2H2C2HC2HCH3CHC2HCHCHC6PCPHPCHC9H2CH5CHCHCHCH5C2H4C3HCHCHCSCHCH2CH4C2H2C6HCH2C4H3CH3CHCHC3HC2HSFeS3FeSHCS2FeS2FeS2FeSFeS3FeS2FeS2FeSFeS3HPCH2C3HC7H4CHC2HCH2C8H4C2H2CHC6H7FeC2HC2PC7H3CHC6HCHCH4C5PH2C2HC4H2CHC7H3CH4CSH3C2FeH3C2HCH3C2HCHCH2C2HC2H3CHC3HCH2CH2CH2CHC2HCHC2HCPCHCHC3HC10H2C3HC2H3CHCHC2H4C4HCPCHC2H3CPHC8HC8H8CHCH2CH4CHC3H2CH3C5HCH2C2H2C4H2CHCHCHCHPHC4HC2HPHC8HCHC3H2C2H4
_chemical_formula_sum              "Fe192 S384 C2880 P96 H2304"
_cell_length_a       65.4574
_cell_length_b       65.7509
_cell_length_c       65.5789
_cell_angle_alpha    87.7347
_cell_angle_beta     87.61
_cell_angle_gamma    87.4122

_space_group_name_H-M_alt    "P 1"
_space_group_IT_number       1

loop_
  _space_group_symop_operation_xyz
  'x, y, z'

loop_
  _atom_site_type_symbol
  _atom_site_label
  _atom_site_symmetry_multiplicity
  _atom_site_fract_x
  _atom_site_fract_y
  _atom_site_fract_z
  _atom_site_occupancy
  Fe  Fe1       1.0  0.37801  0.09775  0.27085  1.0000
  S   S1        1.0  0.37128  0.09499  0.23755  1.0000
  S   S2        1.0  0.35065  0.08992  0.29289  1.0000
  Fe  Fe2       1.0  0.42404  0.10417  0.25933  1.0000
  S   S3        1.0  0.41974  0.10096  0.22587  1.0000
  S   S4        1.0  0.45450  0.11570  0.26898  1.0000
  Fe  Fe3       1.0  0.39165  0.12143  0.23033  1.0000
  S   S5        1.0  0.38446  0.15162  0.21233  1.0000
  Fe  Fe4       1.0  0.40001  0.07480  0.23605  1.0000
  S   S6        1.0  0.40159  0.04535  0.21857  1.0000
  S   S7        1.0  0.39638  0.12558  0.26382  1.0000
  S   S8        1.0  0.40629  0.07653  0.26932  1.0000
  C   C1        1.0  0.37460  0.03903  0.30679  1.0000
  P   P1        1.0  0.46699  0.18148  0.21022  1.0000
  Fe  Fe5       1.0  0.40030  0.22354  0.10856  1.0000
  S   S9        1.0  0.40213  0.19069  0.12231  1.0000
  H   H1        1.0  0.35024  0.06449  0.34975  1.0000
  C   C2        1.0  0.49742  0.17669  0.23891  1.0000
  Fe  Fe6       1.0  0.26796  0.10353  0.38695  1.0000
  S   S10       1.0  0.24371  0.09226  0.36761  1.0000
  S   S11       1.0  0.29757  0.11699  0.37310  1.0000
  Fe  Fe7       1.0  0.24319  0.09266  0.42682  1.0000
  S   S12       1.0  0.21803  0.07986  0.40942  1.0000
  S   S13       1.0  0.23397  0.09021  0.46065  1.0000
  Fe  Fe8       1.0  0.24321  0.06525  0.39001  1.0000
  S   S14       1.0  0.24861  0.03334  0.37764  1.0000
  Fe  Fe9       1.0  0.22075  0.10814  0.38918  1.0000
  S   S15       1.0  0.19206  0.12629  0.37839  1.0000
  S   S16       1.0  0.26828  0.07604  0.40874  1.0000
  S   S17       1.0  0.24502  0.12144  0.40711  1.0000
  H   H2        1.0  0.16262  0.09746  0.47824  1.0000
  S   S18       1.0  0.08262  0.22104  0.42489  1.0000
  Fe  Fe10      1.0  0.11364  0.22395  0.40884  1.0000
  S   S19       1.0  0.14094  0.20216  0.41694  1.0000
  S   S20       1.0  0.04096  0.22791  0.38006  1.0000
  C   C3        1.0  0.47009  0.21954  0.18974  1.0000
  H   H3        1.0  0.20170  0.24162  0.46632  1.0000
  H   H4        1.0  0.39517  0.22695  0.25470  1.0000
  C   C4        1.0  0.44549  0.03553  0.28596  1.0000
  C   C5        1.0  0.38749  0.23351  0.01419  1.0000
  H   H5        1.0  0.45671  0.06696  0.22508  1.0000
  C   C6        1.0  0.17762  0.14669  0.39015  1.0000
  C   C7        1.0  0.15907  0.15379  0.38169  1.0000
  C   C8        1.0  0.14762  0.17060  0.38970  1.0000
  C   C9        1.0  0.15462  0.18071  0.40624  1.0000
  C   C10       1.0  0.17310  0.17351  0.41484  1.0000
  C   C11       1.0  0.18455  0.15666  0.40687  1.0000
  H   H6        1.0  0.15352  0.14623  0.36879  1.0000
  H   H7        1.0  0.13326  0.17558  0.38324  1.0000
  H   H8        1.0  0.17867  0.18114  0.42766  1.0000
  H   H9        1.0  0.19881  0.15149  0.41351  1.0000
  C   C12       1.0  0.24144  0.00915  0.38771  1.0000
  C   C13       1.0  0.49384  0.20646  0.12020  1.0000
  C   C14       1.0  0.22673  0.00686  0.40364  1.0000
  H   H10       1.0  0.28069  0.14551  0.46193  1.0000
  H   H11       1.0  0.21936  0.02022  0.41032  1.0000
  C   C15       1.0  0.24622  0.09668  0.48287  1.0000
  H   H12       1.0  0.22114  0.20997  0.47658  1.0000
  C   C16       1.0  0.09705  0.23576  0.21801  1.0000
  H   H13       1.0  0.27476  0.10469  0.46794  1.0000
  H   H14       1.0  0.39715  0.00678  0.20055  1.0000
  C   C17       1.0  0.26458  0.15975  0.43681  1.0000
  C   C18       1.0  0.31883  0.00966  0.25103  1.0000
  C   C19       1.0  0.10956  0.20534  0.48415  1.0000
  C   C20       1.0  0.33592  0.09834  0.31492  1.0000
  C   C21       1.0  0.34173  0.11420  0.32679  1.0000
  C   C22       1.0  0.32978  0.11978  0.34437  1.0000
  C   C23       1.0  0.31184  0.10965  0.35041  1.0000
  C   C24       1.0  0.30599  0.09388  0.33849  1.0000
  C   C25       1.0  0.31793  0.08828  0.32094  1.0000
  H   H15       1.0  0.35547  0.12212  0.32248  1.0000
  H   H16       1.0  0.33452  0.13201  0.35341  1.0000
  H   H17       1.0  0.29225  0.08599  0.34280  1.0000
  H   H18       1.0  0.31312  0.07609  0.31191  1.0000
  C   C26       1.0  0.39090  0.16222  0.18749  1.0000
  C   C27       1.0  0.38543  0.18284  0.18308  1.0000
  C   C28       1.0  0.38914  0.19187  0.16343  1.0000
  C   C29       1.0  0.39820  0.18033  0.14775  1.0000
  C   C30       1.0  0.40414  0.15982  0.15226  1.0000
  C   C31       1.0  0.40065  0.15084  0.17201  1.0000
  H   H19       1.0  0.37788  0.19176  0.19491  1.0000
  H   H20       1.0  0.38457  0.20763  0.16023  1.0000
  H   H21       1.0  0.41118  0.15070  0.14030  1.0000
  H   H22       1.0  0.40497  0.13497  0.17509  1.0000
  C   C32       1.0  0.40128  0.02019  0.22948  1.0000
  C   C33       1.0  0.46960  0.00408  0.26807  1.0000
  C   C34       1.0  0.40372  0.01613  0.25034  1.0000
  C   C35       1.0  0.45832  0.04419  0.20233  1.0000
  H   H23       1.0  0.40544  0.02859  0.26031  1.0000
  H   H24       1.0  0.36382  0.02222  0.27003  1.0000
  C   C36       1.0  0.47940  0.10394  0.26654  1.0000
  C   C37       1.0  0.48253  0.08335  0.26227  1.0000
  C   C38       1.0  0.23174  0.16562  0.46528  1.0000
  H   H25       1.0  0.46953  0.07432  0.25999  1.0000
  H   H26       1.0  0.25218  0.15038  0.48687  1.0000
  H   H27       1.0  0.46423  0.02280  0.17861  1.0000
  H   H28       1.0  0.14771  0.15557  0.32073  1.0000
  H   H29       1.0  0.16678  0.17605  0.47125  1.0000
  C   C39       1.0  0.46237  0.02083  0.25607  1.0000
  H   H30       1.0  0.44010  0.21225  0.27410  1.0000
  C   C40       1.0  0.45300  0.01915  0.29808  1.0000
  H   H31       1.0  0.20796  0.13639  0.45179  1.0000
  C   C41       1.0  0.49218  0.17074  0.13039  1.0000
  C   C42       1.0  0.25297  0.03085  0.45293  1.0000
  H   H32       1.0  0.36557  0.21802  0.99727  1.0000
  C   C43       1.0  0.35017  0.01385  0.26831  1.0000
  S   S21       1.0  0.10037  0.23618  0.37921  1.0000
  C   C44       1.0  0.17345  0.22667  0.46327  1.0000
  C   C45       1.0  0.19525  0.19076  0.47540  1.0000
  C   C46       1.0  0.99901  0.22587  0.37947  1.0000
  H   H33       1.0  0.27710  0.15708  0.42574  1.0000
  H   H34       1.0  0.27252  0.05492  0.45982  1.0000
  C   C47       1.0  0.16897  0.12323  0.49598  1.0000
  H   H35       1.0  0.46533  0.22175  0.11246  1.0000
  H   H36       1.0  0.10250  0.21932  0.47782  1.0000
  C   C48       1.0  0.46154  0.19002  0.12033  1.0000
  H   H37       1.0  0.44954  0.01864  0.31439  1.0000
  C   C49       1.0  0.46441  0.15168  0.18102  1.0000
  C   C50       1.0  0.34192  0.07724  0.37841  1.0000
  C   C51       1.0  0.49649  0.11549  0.26971  1.0000
  C   C52       1.0  0.46279  0.13162  0.17505  1.0000
  C   C53       1.0  0.01268  0.22722  0.41304  1.0000
  C   C54       1.0  0.19412  0.22728  0.46763  1.0000
  C   C55       1.0  0.24620  0.16915  0.43058  1.0000
  H   H38       1.0  0.25963  0.05471  0.33685  1.0000
  H   H39       1.0  0.21549  0.17870  0.43939  1.0000
  Fe  Fe11      1.0  0.06953  0.23579  0.39640  1.0000
  C   C56       1.0  0.26294  0.04298  0.46607  1.0000
  C   C57       1.0  0.01600  0.22684  0.39183  1.0000
  H   H40       1.0  0.34412  0.22635  0.12031  1.0000
  C   C58       1.0  0.32448  0.00143  0.36286  1.0000
  C   C59       1.0  0.46497  0.00344  0.28919  1.0000
  C   C60       1.0  0.26660  0.15321  0.45718  1.0000
  H   H41       1.0  0.44297  0.03923  0.20590  1.0000
  C   C61       1.0  0.44340  0.19857  0.17881  1.0000
  C   C62       1.0  0.17140  0.11095  0.47905  1.0000
  C   C63       1.0  0.11246  0.18833  0.47208  1.0000
  H   H42       1.0  0.28845  0.04466  0.35829  1.0000
  H   H43       1.0  0.48211  0.22245  0.19994  1.0000
  H   H44       1.0  0.47121  0.22214  0.01257  1.0000
  S   S22       1.0  0.42867  0.23380  0.09096  1.0000
  C   C64       1.0  0.18268  0.23043  0.40485  1.0000
  H   H45       1.0  0.29849  0.99837  0.42148  1.0000
  H   H46       1.0  0.38080  0.22916  0.02900  1.0000
  P   P2        1.0  0.18080  0.21606  0.34462  1.0000
  C   C65       1.0  0.20449  0.20071  0.34462  1.0000
  C   C66       1.0  0.22228  0.20737  0.33413  1.0000
  C   C67       1.0  0.24041  0.19520  0.33435  1.0000
  C   C68       1.0  0.24093  0.17636  0.34503  1.0000
  C   C69       1.0  0.22333  0.16968  0.35551  1.0000
  C   C70       1.0  0.20523  0.18178  0.35531  1.0000
  C   C71       1.0  0.15944  0.20012  0.34158  1.0000
  C   C72       1.0  0.36643  0.00720  0.33499  1.0000
  C   C73       1.0  0.16211  0.18193  0.33105  1.0000
  H   H47       1.0  0.44527  0.19078  0.11776  1.0000
  C   C74       1.0  0.23629  0.01388  0.48211  1.0000
  C   C75       1.0  0.25025  0.15605  0.47137  1.0000
  H   H48       1.0  0.12579  0.22594  0.23079  1.0000
  C   C76       1.0  0.49003  0.04152  0.18206  1.0000
  H   H49       1.0  0.22226  0.22183  0.32572  1.0000
  H   H50       1.0  0.25409  0.20031  0.32619  1.0000
  H   H51       1.0  0.25493  0.16686  0.34515  1.0000
  H   H52       1.0  0.22364  0.15500  0.36372  1.0000
  H   H53       1.0  0.19175  0.17634  0.36349  1.0000
  H   H54       1.0  0.46442  0.16385  0.16949  1.0000
  H   H55       1.0  0.33002  0.08745  0.40750  1.0000
  H   H56       1.0  0.17706  0.17689  0.32502  1.0000
  H   H57       1.0  0.42549  0.21155  0.15421  1.0000
  C   C77       1.0  0.39361  0.22642  0.22200  1.0000
  P   P3        1.0  0.20970  0.16778  0.48281  1.0000
  C   C78       1.0  0.48599  0.06605  0.20875  1.0000
  C   C79       1.0  0.49271  0.18321  0.21890  1.0000
  H   H58       1.0  0.19421  0.20601  0.38651  1.0000
  C   C80       1.0  0.44843  0.18518  0.23099  1.0000
  C   C81       1.0  0.41609  0.17707  0.24823  1.0000
  C   C82       1.0  0.41973  0.19046  0.26354  1.0000
  C   C83       1.0  0.43737  0.20174  0.26230  1.0000
  C   C84       1.0  0.45159  0.19928  0.24595  1.0000
  C   C85       1.0  0.46645  0.13955  0.21626  1.0000
  C   C86       1.0  0.46527  0.11954  0.21023  1.0000
  C   C87       1.0  0.17064  0.23277  0.30623  1.0000
  C   C88       1.0  0.43795  0.21368  0.16417  1.0000
  H   H59       1.0  0.49184  0.07791  0.21760  1.0000
  H   H60       1.0  0.40222  0.16860  0.24892  1.0000
  H   H61       1.0  0.40880  0.19209  0.27631  1.0000
  H   H62       1.0  0.49703  0.08261  0.11735  1.0000
  H   H63       1.0  0.46514  0.20818  0.24513  1.0000
  H   H64       1.0  0.46760  0.14229  0.23236  1.0000
  H   H65       1.0  0.46552  0.10723  0.22171  1.0000
  C   C89       1.0  0.47033  0.03495  0.18689  1.0000
  C   C90       1.0  0.33062  0.07523  0.39685  1.0000
  C   C91       1.0  0.20505  0.20937  0.47348  1.0000
  C   C92       1.0  0.12591  0.17608  0.33578  1.0000
  C   C93       1.0  0.17457  0.19023  0.47068  1.0000
  H   H66       1.0  0.46097  0.12856  0.15914  1.0000
  C   C94       1.0  0.18538  0.11595  0.46317  1.0000
  H   H67       1.0  0.13729  0.22024  0.35696  1.0000
  H   H68       1.0  0.23168  0.00713  0.45075  1.0000
  H   H69       1.0  0.48569  0.17088  0.24946  1.0000
  H   H70       1.0  0.33900  0.03440  0.24456  1.0000
  C   C95       1.0  0.47119  0.17168  0.12688  1.0000
  S   S23       1.0  0.37930  0.23631  0.08402  1.0000
  C   C96       1.0  0.46005  0.20104  0.19122  1.0000
  H   H71       1.0  0.10794  0.19906  0.35183  1.0000
  C   C97       1.0  0.22982  0.17200  0.44470  1.0000
  C   C98       1.0  0.29241  0.03514  0.30027  1.0000
  C   C99       1.0  0.27471  0.04443  0.30900  1.0000
  C   C100      1.0  0.27338  0.04761  0.32995  1.0000
  C   C101      1.0  0.28984  0.04185  0.34213  1.0000
  C   C102      1.0  0.30782  0.03283  0.33344  1.0000
  C   C103      1.0  0.30877  0.02905  0.31248  1.0000
  P   P4        1.0  0.32904  0.02538  0.34929  1.0000
  C   C104      1.0  0.33053  0.04460  0.36815  1.0000
  C   C105      1.0  0.34190  0.06204  0.36410  1.0000
  C   C106      1.0  0.31946  0.05787  0.40113  1.0000
  C   C107      1.0  0.31925  0.04269  0.38681  1.0000
  C   C108      1.0  0.35661  0.03974  0.31902  1.0000
  H   H72       1.0  0.29353  0.03282  0.28399  1.0000
  H   H73       1.0  0.26204  0.04927  0.29958  1.0000
  H   H74       1.0  0.10786  0.18919  0.45634  1.0000
  H   H75       1.0  0.32222  0.02174  0.30544  1.0000
  H   H76       1.0  0.31039  0.05653  0.41527  1.0000
  H   H77       1.0  0.30968  0.02985  0.39006  1.0000
  H   H78       1.0  0.34587  0.05260  0.31707  1.0000
  H   H79       1.0  0.37755  0.05141  0.29580  1.0000
  H   H80       1.0  0.18765  0.10623  0.45019  1.0000
  C   C109      1.0  0.46613  0.05974  0.21321  1.0000
  C   C110      1.0  0.47285  0.20742  0.11716  1.0000
  C   C111      1.0  0.17737  0.22897  0.36847  1.0000
  C   C112      1.0  0.38799  0.23361  0.24129  1.0000
  H   H81       1.0  0.18863  0.22344  0.41874  1.0000
  H   H82       1.0  0.11304  0.16660  0.33394  1.0000
  H   H83       1.0  0.24446  0.17371  0.41465  1.0000
  C   C113      1.0  0.12183  0.17040  0.48010  1.0000
  C   C114      1.0  0.14543  0.16988  0.32835  1.0000
  H   H84       1.0  0.44385  0.04878  0.25554  1.0000
  C   C115      1.0  0.18572  0.22049  0.38643  1.0000
  H   H85       1.0  0.46223  0.15828  0.12937  1.0000
  H   H86       1.0  0.46141  0.10006  0.18519  1.0000
  H   H87       1.0  0.35089  0.00277  0.38144  1.0000
  C   C116      1.0  0.40510  0.24488  0.01292  1.0000
  H   H88       1.0  0.43454  0.18500  0.18041  1.0000
  H   H89       1.0  0.05012  0.21099  0.49357  1.0000
  C   C117      1.0  0.34952  0.23974  0.16943  1.0000
  H   H90       1.0  0.16229  0.21919  0.30428  1.0000
  C   C118      1.0  0.19698  0.13318  0.46416  1.0000
  H   H91       1.0  0.25506  0.03319  0.43651  1.0000
  H   H92       1.0  0.02557  0.22792  0.42274  1.0000
  C   C119      1.0  0.18141  0.23517  0.32401  1.0000
  H   H93       1.0  0.49359  0.07780  0.15478  1.0000
  C   C120      1.0  0.39909  0.00379  0.21671  1.0000
  C   C121      1.0  0.46444  0.23468  0.17517  1.0000
  H   H94       1.0  0.38877  0.22922  0.18984  1.0000
  C   C122      1.0  0.45002  0.03626  0.26495  1.0000
  H   H95       1.0  0.12440  0.15738  0.47053  1.0000
  C   C123      1.0  0.12305  0.19438  0.34585  1.0000
  H   H96       1.0  0.49423  0.13141  0.27312  1.0000
  H   H97       1.0  0.44324  0.20249  0.00033  1.0000
  C   C124      1.0  0.34416  0.22132  0.17944  1.0000
  C   C125      1.0  0.33911  0.20475  0.16816  1.0000
  C   C126      1.0  0.33927  0.20649  0.14685  1.0000
  C   C127      1.0  0.34403  0.22492  0.13684  1.0000
  C   C128      1.0  0.38845  0.02234  0.30851  1.0000
  C   C129      1.0  0.34897  0.24151  0.14809  1.0000
  H   H98       1.0  0.09561  0.22189  0.20989  1.0000
  C   C130      1.0  0.16379  0.20815  0.46459  1.0000
  H   H99       1.0  0.40228  0.02174  0.29884  1.0000
  C   C131      1.0  0.38429  0.00634  0.32248  1.0000
  H   H100      1.0  0.35005  0.09101  0.37482  1.0000
  H   H101      1.0  0.40510  0.21410  0.22041  1.0000
  H   H102      1.0  0.30817  0.01480  0.23951  1.0000
  C   C132      1.0  0.26627  0.10320  0.48239  1.0000
  C   C133      1.0  0.38423  0.23493  0.20471  1.0000
  C   C134      1.0  0.25973  0.04050  0.48724  1.0000
  H   H103      1.0  0.43620  0.04771  0.29283  1.0000
  H   H104      1.0  0.14800  0.20767  0.46043  1.0000
  C   C135      1.0  0.11403  0.23804  0.22982  1.0000
  C   C136      1.0  0.44852  0.23164  0.16228  1.0000
  H   H105      1.0  0.34414  0.21956  0.19592  1.0000
  H   H106      1.0  0.33568  0.19037  0.17592  1.0000
  H   H107      1.0  0.33594  0.19349  0.13808  1.0000
  H   H108      1.0  0.00140  0.22549  0.36307  1.0000
  H   H109      1.0  0.22523  0.00313  0.48791  1.0000
  C   C137      1.0  0.43035  0.17441  0.23200  1.0000
  C   C138      1.0  0.19463  0.14562  0.48110  1.0000
  H   H110      1.0  0.46608  0.02189  0.23986  1.0000
  C   C139      1.0  0.33617  0.02069  0.25382  1.0000
  C   C140      1.0  0.35247  0.02402  0.33350  1.0000
  C   C141      1.0  0.13975  0.20633  0.34881  1.0000
  C   C142      1.0  0.46306  0.11556  0.18968  1.0000
  C   C143      1.0  0.46570  0.15581  0.20175  1.0000
  H   H111      1.0  0.16492  0.24046  0.45854  1.0000
  H   H112      1.0  0.42719  0.16385  0.22036  1.0000
  C   C144      1.0  0.24641  0.02587  0.49551  1.0000
  C   C145      1.0  0.23973  0.01624  0.46096  1.0000
  C   C146      1.0  0.49792  0.05728  0.19282  1.0000
  H   H113      1.0  0.44418  0.24330  0.15094  1.0000
  H   H114      1.0  0.16188  0.24626  0.27723  1.0000
  H   H115      1.0  0.26714  0.05060  0.49688  1.0000
  S   S24       1.0  0.41188  0.21431  0.90370  1.0000
  C   C147      1.0  0.31543  0.23927  0.86536  1.0000
  C   C148      1.0  0.16147  0.21371  0.52477  1.0000
  C   C149      1.0  0.38771  0.23239  0.97685  1.0000
  Fe  Fe12      1.0  0.39382  0.22599  0.87706  1.0000
  S   S25       1.0  0.39016  0.21013  0.84689  1.0000
  Fe  Fe13      1.0  0.26070  0.10652  0.57373  1.0000
  S   S26       1.0  0.22699  0.10425  0.57981  1.0000
  S   S27       1.0  0.27646  0.11114  0.54233  1.0000
  Fe  Fe14      1.0  0.27007  0.10382  0.61995  1.0000
  S   S28       1.0  0.23642  0.10174  0.62916  1.0000
  S   S29       1.0  0.29983  0.09968  0.63781  1.0000
  Fe  Fe15      1.0  0.23578  0.07977  0.60340  1.0000
  S   S30       1.0  0.21891  0.05015  0.60344  1.0000
  Fe  Fe16      1.0  0.23010  0.12649  0.60462  1.0000
  S   S31       1.0  0.21203  0.15747  0.60228  1.0000
  S   S32       1.0  0.26930  0.08064  0.59550  1.0000
  S   S33       1.0  0.26389  0.12987  0.59730  1.0000
  H   H116      1.0  0.36619  0.06299  0.64371  1.0000
  S   S34       1.0  0.09563  0.23686  0.58515  1.0000
  H   H117      1.0  0.30154  0.17037  0.67047  1.0000
  C   C150      1.0  0.14811  0.16271  0.54546  1.0000
  Fe  Fe17      1.0  0.11245  0.23621  0.61446  1.0000
  S   S35       1.0  0.12689  0.20535  0.62572  1.0000
  Fe  Fe18      1.0  0.39067  0.11059  0.77870  1.0000
  S   S36       1.0  0.39011  0.13226  0.75141  1.0000
  S   S37       1.0  0.38948  0.12034  0.81206  1.0000
  Fe  Fe19      1.0  0.39724  0.07291  0.75154  1.0000
  S   S38       1.0  0.39767  0.09279  0.72270  1.0000
  S   S39       1.0  0.40556  0.03958  0.74489  1.0000
  Fe  Fe20      1.0  0.41730  0.11311  0.73967  1.0000
  S   S40       1.0  0.44639  0.12740  0.72662  1.0000
  Fe  Fe21      1.0  0.37045  0.10959  0.73701  1.0000
  S   S41       1.0  0.33969  0.11850  0.72256  1.0000
  S   S42       1.0  0.41860  0.09239  0.76744  1.0000
  S   S43       1.0  0.36915  0.08891  0.76537  1.0000
  C   C151      1.0  0.47095  0.11688  0.73276  1.0000
  C   C152      1.0  0.47320  0.09868  0.74437  1.0000
  C   C153      1.0  0.26371  0.19420  0.87689  1.0000
  H   H118      1.0  0.45986  0.09063  0.74964  1.0000
  H   H119      1.0  0.47938  0.04323  0.78377  1.0000
  C   C154      1.0  0.38197  0.01432  0.77074  1.0000
  C   C155      1.0  0.39709  0.01588  0.75509  1.0000
  C   C156      1.0  0.40604  0.99794  0.74703  1.0000
  H   H120      1.0  0.37493  0.02801  0.77708  1.0000
  C   C157      1.0  0.26951  0.01453  0.55197  1.0000
  H   H121      1.0  0.29631  0.02939  0.77063  1.0000
  H   H122      1.0  0.43789  0.08922  0.80866  1.0000
  H   H123      1.0  0.00710  0.21852  0.56963  1.0000
  C   C158      1.0  0.26119  0.02956  0.53842  1.0000
  H   H124      1.0  0.48708  0.14083  0.71654  1.0000
  C   C159      1.0  0.18784  0.17004  0.60837  1.0000
  C   C160      1.0  0.18467  0.19066  0.60214  1.0000
  C   C161      1.0  0.16614  0.20159  0.60712  1.0000
  C   C162      1.0  0.15038  0.19206  0.61834  1.0000
  C   C163      1.0  0.15346  0.17136  0.62437  1.0000
  C   C164      1.0  0.17200  0.16039  0.61940  1.0000
  H   H125      1.0  0.19675  0.19837  0.59367  1.0000
  H   H126      1.0  0.16425  0.21755  0.60275  1.0000
  H   H127      1.0  0.14147  0.16378  0.63314  1.0000
  H   H128      1.0  0.17411  0.14458  0.62433  1.0000
  C   C165      1.0  0.31026  0.10432  0.66190  1.0000
  C   C166      1.0  0.33133  0.10019  0.66443  1.0000
  C   C167      1.0  0.34048  0.10364  0.68307  1.0000
  C   C168      1.0  0.32871  0.11168  0.69940  1.0000
  C   C169      1.0  0.30758  0.11558  0.69695  1.0000
  C   C170      1.0  0.29837  0.11175  0.67845  1.0000
  H   H129      1.0  0.34070  0.09450  0.65177  1.0000
  H   H130      1.0  0.35674  0.10063  0.68460  1.0000
  H   H131      1.0  0.29827  0.12176  0.70945  1.0000
  H   H132      1.0  0.28211  0.11470  0.67698  1.0000
  C   C171      1.0  0.25066  0.02233  0.61310  1.0000
  C   C172      1.0  0.23078  0.02538  0.60619  1.0000
  C   C173      1.0  0.04853  0.23712  0.53736  1.0000
  H   H133      1.0  0.25950  0.03533  0.61604  1.0000
  C   C174      1.0  0.40488  0.24432  0.97571  1.0000
  H   H134      1.0  0.46658  0.14388  0.82885  1.0000
  C   C175      1.0  0.26450  0.10556  0.51961  1.0000
  C   C176      1.0  0.24446  0.09905  0.52002  1.0000
  H   H135      1.0  0.49086  0.18735  0.75152  1.0000
  H   H136      1.0  0.23593  0.09732  0.53441  1.0000
  C   C177      1.0  0.39124  0.18483  0.83782  1.0000
  C   C178      1.0  0.39285  0.18216  0.81660  1.0000
  C   C179      1.0  0.39300  0.16257  0.80849  1.0000
  C   C180      1.0  0.39109  0.14532  0.82151  1.0000
  C   C181      1.0  0.38969  0.14796  0.84275  1.0000
  C   C182      1.0  0.38987  0.16755  0.85087  1.0000
  H   H137      1.0  0.39381  0.19538  0.80630  1.0000
  H   H138      1.0  0.39402  0.16087  0.79213  1.0000
  H   H139      1.0  0.38820  0.13477  0.85300  1.0000
  H   H140      1.0  0.38860  0.16927  0.86719  1.0000
  H   H141      1.0  0.29041  0.00782  0.57608  1.0000
  C   C183      1.0  0.45674  0.06488  0.79569  1.0000
  C   C184      1.0  0.27543  0.15289  0.64466  1.0000
  C   C185      1.0  0.47666  0.05676  0.79253  1.0000
  C   C186      1.0  0.11604  0.20445  0.50424  1.0000
  H   H142      1.0  0.12309  0.14281  0.54229  1.0000
  C   C187      1.0  0.35834  0.15483  0.65758  1.0000
  C   C188      1.0  0.35085  0.15459  0.67785  1.0000
  H   H143      1.0  0.37420  0.15036  0.65416  1.0000
  H   H144      1.0  0.36076  0.14966  0.69012  1.0000
  H   H145      1.0  0.44578  0.12243  0.85268  1.0000
  H   H146      1.0  0.09967  0.17765  0.60734  1.0000
  C   C189      1.0  0.49319  0.06640  0.80017  1.0000
  H   H147      1.0  0.27715  0.06820  0.65982  1.0000
  H   H148      1.0  0.29479  0.21140  0.64399  1.0000
  H   H149      1.0  0.30819  0.06366  0.67987  1.0000
  C   C190      1.0  0.29913  0.05061  0.67759  1.0000
  C   C191      1.0  0.26827  0.04938  0.53855  1.0000
  H   H150      1.0  0.12913  0.17699  0.58281  1.0000
  C   C192      1.0  0.11129  0.18626  0.55661  1.0000
  C   C193      1.0  0.35850  0.18368  0.89791  1.0000
  H   H151      1.0  0.45158  0.23013  0.94032  1.0000
  H   H152      1.0  0.23389  0.16994  0.56529  1.0000
  C   C194      1.0  0.48286  0.18704  0.78380  1.0000
  C   C195      1.0  0.30473  0.21483  0.63078  1.0000
  H   H153      1.0  0.23362  0.19199  0.62584  1.0000
  H   H154      1.0  0.23886  0.13824  0.54623  1.0000
  H   H155      1.0  0.14251  0.11167  0.55396  1.0000
  C   C196      1.0  0.14798  0.21801  0.55938  1.0000
  C   C197      1.0  0.31731  0.16598  0.66659  1.0000
  H   H156      1.0  0.25556  0.03892  0.65482  1.0000
  H   H157      1.0  0.21025  0.00878  0.55396  1.0000
  C   C198      1.0  0.31204  0.15681  0.60413  1.0000
  H   H158      1.0  0.20682  0.20026  0.51345  1.0000
  H   H159      1.0  0.18300  0.23574  0.51350  1.0000
  C   C199      1.0  0.33003  0.18988  0.82634  1.0000
  C   C200      1.0  0.14844  0.20744  0.54118  1.0000
  H   H160      1.0  0.30017  0.15457  0.55407  1.0000
  H   H161      1.0  0.27392  0.00025  0.62303  1.0000
  C   C201      1.0  0.30645  0.14999  0.56866  1.0000
  C   C202      1.0  0.02248  0.22036  0.51040  1.0000
  C   C203      1.0  0.46289  0.03273  0.73369  1.0000
  C   C204      1.0  0.30461  0.16311  0.58500  1.0000
  H   H162      1.0  0.32559  0.13139  0.62164  1.0000
  H   H163      1.0  0.37071  0.19038  0.90568  1.0000
  H   H164      1.0  0.29535  0.00029  0.69118  1.0000
  C   C205      1.0  0.17281  0.24110  0.54450  1.0000
  H   H165      1.0  0.26995  0.19716  0.61621  1.0000
  C   C206      1.0  0.34530  0.16056  0.64177  1.0000
  P   P5        1.0  0.47184  0.18781  0.82532  1.0000
  C   C207      1.0  0.46947  0.17983  0.79946  1.0000
  C   C208      1.0  0.45766  0.17203  0.84349  1.0000
  C   C209      1.0  0.45785  0.15086  0.84132  1.0000
  C   C210      1.0  0.44632  0.13862  0.85492  1.0000
  C   C211      1.0  0.43524  0.14732  0.87129  1.0000
  C   C212      1.0  0.43575  0.16824  0.87409  1.0000
  C   C213      1.0  0.44692  0.18060  0.86028  1.0000
  C   C214      1.0  0.45300  0.16821  0.79437  1.0000
  C   C215      1.0  0.45088  0.16274  0.77419  1.0000
  C   C216      1.0  0.46461  0.16951  0.75881  1.0000
  H   H166      1.0  0.22763  0.13719  0.51083  1.0000
  C   C217      1.0  0.48863  0.12684  0.72569  1.0000
  C   C218      1.0  0.46175  0.21378  0.82451  1.0000
  H   H167      1.0  0.26145  0.06148  0.52914  1.0000
  C   C219      1.0  0.44054  0.21772  0.82439  1.0000
  C   C220      1.0  0.21939  0.04255  0.52822  1.0000
  H   H168      1.0  0.34738  0.00616  0.73514  1.0000
  H   H169      1.0  0.42606  0.13791  0.88167  1.0000
  H   H170      1.0  0.42713  0.17498  0.88675  1.0000
  H   H171      1.0  0.44148  0.16362  0.80575  1.0000
  H   H172      1.0  0.43840  0.15342  0.77036  1.0000
  H   H173      1.0  0.46282  0.16524  0.74318  1.0000
  H   H174      1.0  0.35134  0.16073  0.62614  1.0000
  C   C221      1.0  0.07771  0.18674  0.58477  1.0000
  C   C222      1.0  0.33362  0.18581  0.87131  1.0000
  H   H175      1.0  0.43018  0.20530  0.82544  1.0000
  C   C223      1.0  0.31544  0.13044  0.57141  1.0000
  H   H176      1.0  0.32289  0.23982  0.96235  1.0000
  H   H177      1.0  0.15926  0.24326  0.57483  1.0000
  C   C224      1.0  0.49011  0.09700  0.85895  1.0000
  C   C225      1.0  0.32669  0.20384  0.60227  1.0000
  C   C226      1.0  0.28144  0.05329  0.66636  1.0000
  C   C227      1.0  0.46985  0.09253  0.81391  1.0000
  C   C228      1.0  0.26605  0.18428  0.62616  1.0000
  C   C229      1.0  0.17348  0.23058  0.52639  1.0000
  C   C230      1.0  0.48283  0.02450  0.72994  1.0000
  H   H178      1.0  0.45206  0.02509  0.74388  1.0000
  H   H179      1.0  0.08870  0.19510  0.53428  1.0000
  H   H180      1.0  0.06489  0.18746  0.59576  1.0000
  H   H181      1.0  0.29683  0.17787  0.58287  1.0000
  H   H182      1.0  0.15829  0.11925  0.50837  1.0000
  C   C231      1.0  0.34114  0.17369  0.78820  1.0000
  C   C232      1.0  0.23985  0.16441  0.64359  1.0000
  C   C233      1.0  0.32687  0.22650  0.85201  1.0000
  H   H183      1.0  0.20420  0.01046  0.59695  1.0000
  H   H184      1.0  0.18000  0.06905  0.50542  1.0000
  C   C234      1.0  0.28464  0.01931  0.56522  1.0000
  C   C235      1.0  0.13890  0.14380  0.54629  1.0000
  H   H185      1.0  0.30320  0.04284  0.57549  1.0000
  C   C236      1.0  0.09730  0.18122  0.59130  1.0000
  C   C237      1.0  0.49777  0.18690  0.83381  1.0000
  H   H186      1.0  0.34161  0.22770  0.58469  1.0000
  C   C238      1.0  0.23196  0.15178  0.53891  1.0000
  S   S44       1.0  0.46369  0.23279  0.89737  1.0000
  H   H187      1.0  0.33105  0.14093  0.89911  1.0000
  C   C239      1.0  0.16021  0.23471  0.56101  1.0000
  P   P6        1.0  0.32120  0.19987  0.85067  1.0000
  C   C240      1.0  0.35182  0.16451  0.90432  1.0000
  H   H188      1.0  0.34974  0.14620  0.80521  1.0000
  C   C241      1.0  0.12808  0.16936  0.50029  1.0000
  P   P7        1.0  0.13311  0.18557  0.53872  1.0000
  C   C242      1.0  0.48976  0.05342  0.70676  1.0000
  C   C243      1.0  0.31300  0.19912  0.61865  1.0000
  C   C244      1.0  0.20055  0.06433  0.55224  1.0000
  C   C245      1.0  0.19004  0.06362  0.51736  1.0000
  C   C246      1.0  0.28370  0.05399  0.55151  1.0000
  H   H189      1.0  0.25678  0.19380  0.89220  1.0000
  C   C247      1.0  0.11402  0.18097  0.57732  1.0000
  C   C248      1.0  0.33804  0.16975  0.82507  1.0000
  H   H190      1.0  0.11399  0.21790  0.51331  1.0000
  C   C249      1.0  0.45334  0.08276  0.80642  1.0000
  C   C250      1.0  0.16829  0.16374  0.55177  1.0000
  H   H191      1.0  0.30570  0.01351  0.73782  1.0000
  H   H192      1.0  0.07314  0.22568  0.51763  1.0000
  H   H193      1.0  0.19442  0.14701  0.56393  1.0000
  H   H194      1.0  0.25047  0.13653  0.65881  1.0000
  H   H195      1.0  0.17829  0.11378  0.56476  1.0000
  H   H196      1.0  0.49133  0.22748  0.82181  1.0000
  P   P8        1.0  0.24007  0.02419  0.52273  1.0000
  C   C251      1.0  0.22919  0.16967  0.54964  1.0000
  H   H197      1.0  0.44396  0.05752  0.78954  1.0000
  C   C252      1.0  0.01410  0.23072  0.52737  1.0000
  H   H198      1.0  0.32107  0.21719  0.80878  1.0000
  C   C253      1.0  0.12503  0.18632  0.51261  1.0000
  H   H199      1.0  0.49505  0.19683  0.78718  1.0000
  C   C254      1.0  0.18734  0.07113  0.53697  1.0000
  H   H200      1.0  0.28682  0.14136  0.64913  1.0000
  C   C255      1.0  0.09145  0.19137  0.55011  1.0000
  C   C256      1.0  0.29210  0.01502  0.68383  1.0000
  C   C257      1.0  0.32253  0.12396  0.59048  1.0000
  H   H201      1.0  0.33400  0.19190  0.59327  1.0000
  C   C258      1.0  0.28124  0.17022  0.63310  1.0000
  P   P9        1.0  0.30784  0.17301  0.62562  1.0000
  P   P10       1.0  0.32766  0.02834  0.70077  1.0000
  H   H202      1.0  0.32862  0.10850  0.59290  1.0000
  C   C259      1.0  0.34932  0.04082  0.68883  1.0000
  C   C260      1.0  0.34953  0.04740  0.66819  1.0000
  C   C261      1.0  0.36636  0.05744  0.65948  1.0000
  C   C262      1.0  0.38324  0.06058  0.67118  1.0000
  C   C263      1.0  0.38342  0.05338  0.69150  1.0000
  C   C264      1.0  0.36651  0.04367  0.70035  1.0000
  C   C265      1.0  0.30503  0.03129  0.68581  1.0000
  H   H203      1.0  0.31622  0.12006  0.55893  1.0000
  C   C266      1.0  0.26924  0.03681  0.66359  1.0000
  C   C267      1.0  0.25484  0.15008  0.65007  1.0000
  C   C268      1.0  0.23538  0.09475  0.50172  1.0000
  C   C269      1.0  0.32071  0.03992  0.72470  1.0000
  C   C270      1.0  0.32525  0.06023  0.72777  1.0000
  C   C271      1.0  0.31970  0.06918  0.74628  1.0000
  C   C272      1.0  0.30943  0.05803  0.76179  1.0000
  C   C273      1.0  0.30443  0.03797  0.75867  1.0000
  C   C274      1.0  0.30988  0.02898  0.74012  1.0000
  C   C275      1.0  0.32456  0.16570  0.64613  1.0000
  H   H204      1.0  0.28892  0.06939  0.55159  1.0000
  C   C276      1.0  0.44575  0.21497  0.96952  1.0000
  C   C277      1.0  0.21996  0.18702  0.54036  1.0000
  C   C278      1.0  0.32082  0.13707  0.60680  1.0000
  H   H205      1.0  0.05958  0.19614  0.55917  1.0000
  C   C279      1.0  0.29178  0.03901  0.56495  1.0000
  H   H206      1.0  0.39621  0.06852  0.66453  1.0000
  H   H207      1.0  0.39665  0.05535  0.70053  1.0000
  H   H208      1.0  0.36686  0.03845  0.71625  1.0000
  C   C280      1.0  0.47674  0.23837  0.98359  1.0000
  C   C281      1.0  0.24544  0.18144  0.63156  1.0000
  H   H209      1.0  0.46694  0.10659  0.82176  1.0000
  C   C282      1.0  0.33041  0.16033  0.68235  1.0000
  H   H210      1.0  0.32463  0.15983  0.69809  1.0000
  H   H211      1.0  0.33301  0.06928  0.71592  1.0000
  H   H212      1.0  0.32337  0.08484  0.74855  1.0000
  H   H213      1.0  0.30526  0.06502  0.77615  1.0000
  H   H214      1.0  0.35315  0.22468  0.83088  1.0000
  H   H215      1.0  0.13540  0.15539  0.50607  1.0000
  H   H216      1.0  0.21730  0.20070  0.54896  1.0000
  C   C283      1.0  0.37889  0.22722  0.99619  1.0000
  C   C284      1.0  0.07477  0.19173  0.56417  1.0000
  H   H217      1.0  0.22380  0.16196  0.64719  1.0000
  H   H218      1.0  0.13809  0.21368  0.57230  1.0000
  H   H219      1.0  0.17561  0.17814  0.55221  1.0000
  C   C285      1.0  0.27451  0.01770  0.67240  1.0000
  H   H220      1.0  0.44698  0.19681  0.86271  1.0000
  C   C286      1.0  0.14982  0.12615  0.55296  1.0000
  C   C287      1.0  0.16993  0.12730  0.55905  1.0000
  C   C288      1.0  0.17910  0.14607  0.55848  1.0000
  C   C289      1.0  0.47010  0.06174  0.71096  1.0000
  C   C290      1.0  0.21959  0.00826  0.60226  1.0000
  C   C291      1.0  0.22572  0.15128  0.51882  1.0000
  H   H221      1.0  0.33671  0.04504  0.65879  1.0000
  H   H222      1.0  0.43337  0.20638  0.96422  1.0000
  H   H223      1.0  0.44144  0.05789  0.72755  1.0000
  C   C292      1.0  0.20599  0.04939  0.51297  1.0000
  C   C293      1.0  0.21654  0.05015  0.54789  1.0000
  C   C294      1.0  0.34340  0.16170  0.80607  1.0000
  C   C295      1.0  0.33613  0.15587  0.89423  1.0000
  C   C296      1.0  0.33119  0.22412  0.59746  1.0000
  C   C297      1.0  0.33638  0.00204  0.70482  1.0000
  C   C298      1.0  0.45665  0.05133  0.72427  1.0000
  H   H224      1.0  0.26401  0.99925  0.55298  1.0000
  C   C299      1.0  0.32237  0.23974  0.60921  1.0000
  C   C300      1.0  0.48327  0.10556  0.87734  1.0000
  H   H225      1.0  0.19846  0.06996  0.56754  1.0000
  H   H226      1.0  0.39571  0.00899  0.70077  1.0000
  C   C301      1.0  0.04371  0.21856  0.50693  1.0000
  H   H227      1.0  0.35886  0.15635  0.91708  1.0000
  C   C302      1.0  0.25159  0.19235  0.86008  1.0000
  C   C303      1.0  0.45585  0.22855  0.95611  1.0000
  C   C304      1.0  0.26053  0.19284  0.84035  1.0000
  H   H228      1.0  0.25115  0.19133  0.82731  1.0000
  H   H229      1.0  0.22659  0.04506  0.55996  1.0000
  H   H230      1.0  0.29395  0.19792  0.88722  1.0000
  S   S45       1.0  0.37760  0.22302  0.95448  1.0000
  H   H231      1.0  0.34044  0.16020  0.83861  1.0000
  C   C305      1.0  0.47488  0.23013  0.82237  1.0000
  C   C306      1.0  0.28478  0.19651  0.87400  1.0000
  H   H232      1.0  0.48981  0.20425  0.86069  1.0000
  C   C307      1.0  0.32699  0.16650  0.87784  1.0000
  H   H233      1.0  0.05857  0.24367  0.54787  1.0000
  H   H234      1.0  0.17507  0.08221  0.54036  1.0000
  C   C308      1.0  0.21403  0.18667  0.52012  1.0000
  S   S46       1.0  0.37017  0.24282  0.89718  1.0000
  C   C309      1.0  0.28160  0.19518  0.83740  1.0000
  H   H235      1.0  0.21980  0.09000  0.50212  1.0000
  C   C310      1.0  0.05671  0.22680  0.52048  1.0000
  C   C311      1.0  0.33320  0.19372  0.78928  1.0000
  H   H236      1.0  0.46358  0.01148  0.77736  1.0000
  H   H237      1.0  0.20795  0.04405  0.49758  1.0000
  H   H238      1.0  0.33145  0.20300  0.77539  1.0000
  H   H239      1.0  0.38850  0.01818  0.66455  1.0000
  C   C312      1.0  0.48042  0.18189  0.76356  1.0000
  H   H240      1.0  0.28815  0.19544  0.82198  1.0000
  H   H241      1.0  0.31482  0.15964  0.87019  1.0000
  Fe  Fe22      1.0  0.42984  0.24254  0.89883  1.0000
  C   C313      1.0  0.27534  0.10771  0.50072  1.0000
  Fe  Fe23      1.0  0.39052  0.23368  0.92336  1.0000
  H   H242      1.0  0.29086  0.11274  0.50029  1.0000
  C   C314      1.0  0.29391  0.19702  0.85422  1.0000
  H   H243      1.0  0.23527  0.19049  0.86234  1.0000
  C   C315      1.0  0.21724  0.16885  0.50902  1.0000
  C   C316      1.0  0.30923  0.23509  0.62593  1.0000
  C   C317      1.0  0.48991  0.08432  0.81103  1.0000
  C   C318      1.0  0.32750  0.20175  0.80824  1.0000
  H   H244      1.0  0.01278  0.21387  0.49963  1.0000
  C   C319      1.0  0.43248  0.23775  0.82296  1.0000
  C   C320      1.0  0.34956  0.19421  0.88137  1.0000
  C   C321      1.0  0.47140  0.24012  0.96304  1.0000
  H   H245      1.0  0.35523  0.20883  0.87639  1.0000
  H   H246      1.0  0.16220  0.20571  0.51065  1.0000
  C   C322      1.0  0.02734  0.23937  0.54059  1.0000
  H   H247      1.0  0.34565  0.16742  0.77354  1.0000
  C   C323      1.0  0.39397  0.99721  0.68993  1.0000
  H   H248      1.0  0.17854  0.14988  0.51023  1.0000
  H   H249      1.0  0.30252  0.23370  0.87436  1.0000
  C   C324      1.0  0.49603  0.03478  0.71600  1.0000
  H   H250      1.0  0.17259  0.24595  0.80505  1.0000
  H   H251      1.0  0.41602  0.24059  0.82333  1.0000
  C   C325      1.0  0.38988  0.00235  0.66958  1.0000
  C   C326      1.0  0.01308  0.24031  0.62357  1.0000
  C   C327      1.0  0.48548  0.24570  0.90387  1.0000
  H   H252      1.0  0.46539  0.07645  0.70421  1.0000
  C   C328      1.0  0.49282  0.09052  0.74877  1.0000
  H   H253      1.0  0.47314  0.09729  0.88785  1.0000
  H   H254      1.0  0.02704  0.23565  0.63105  1.0000
  H   H255      1.0  0.48375  0.13166  0.89621  1.0000
  P   P11       1.0  0.49223  0.00160  0.74337  1.0000
  H   H256      1.0  0.49435  0.07622  0.75733  1.0000
  C   C329      1.0  0.34380  0.23427  0.84094  1.0000
  H   H257      1.0  0.26482  0.00501  0.67046  1.0000
  C   C330      1.0  0.45131  0.21280  0.98986  1.0000
  C   C331      1.0  0.23211  0.99890  0.53017  1.0000
  C   C332      1.0  0.48927  0.12490  0.88209  1.0000
  C   C333      1.0  0.25883  0.00240  0.61699  1.0000
  H   H258      1.0  0.41789  0.99895  0.73508  1.0000
  H   H259      1.0  0.49113  0.11939  0.78670  1.0000
  H   H260      1.0  0.48520  0.08206  0.85542  1.0000
  C   C334      1.0  0.46697  0.22421  0.99682  1.0000
  C   C335      1.0  0.18050  0.14055  0.49699  1.0000
  S   S47       1.0  0.40473  0.27873  0.08430  1.0000
  H   H261      1.0  0.12269  0.47103  0.14414  1.0000
  Fe  Fe24      1.0  0.37752  0.26563  0.10118  1.0000
  S   S48       1.0  0.34533  0.28131  0.10526  1.0000
  Fe  Fe25      1.0  0.42420  0.26249  0.10799  1.0000
  S   S49       1.0  0.44922  0.27781  0.12420  1.0000
  Fe  Fe26      1.0  0.06392  0.40502  0.25185  1.0000
  S   S50       1.0  0.07569  0.40383  0.28360  1.0000
  S   S51       1.0  0.03033  0.41573  0.25004  1.0000
  Fe  Fe27      1.0  0.10760  0.39639  0.23267  1.0000
  S   S52       1.0  0.12179  0.39395  0.26355  1.0000
  S   S53       1.0  0.12301  0.39502  0.20043  1.0000
  Fe  Fe28      1.0  0.09433  0.37586  0.27435  1.0000
  S   S54       1.0  0.08956  0.34540  0.29240  1.0000
  Fe  Fe29      1.0  0.10164  0.42210  0.27024  1.0000
  S   S55       1.0  0.11196  0.44982  0.28644  1.0000
  S   S56       1.0  0.08141  0.37643  0.24279  1.0000
  S   S57       1.0  0.08873  0.42514  0.23923  1.0000
  Fe  Fe30      1.0  0.26861  0.38360  0.10022  1.0000
  S   S58       1.0  0.23988  0.36589  0.10332  1.0000
  S   S59       1.0  0.30192  0.37091  0.09562  1.0000
  Fe  Fe31      1.0  0.24409  0.42517  0.10020  1.0000
  S   S60       1.0  0.21409  0.40971  0.10253  1.0000
  S   S61       1.0  0.23642  0.45940  0.10030  1.0000
  Fe  Fe32      1.0  0.22806  0.38892  0.12642  1.0000
  S   S62       1.0  0.21340  0.38326  0.15872  1.0000
  Fe  Fe33      1.0  0.22820  0.38857  0.07920  1.0000
  S   S63       1.0  0.20910  0.38061  0.05275  1.0000
  S   S64       1.0  0.25791  0.40513  0.12506  1.0000
  S   S65       1.0  0.25702  0.40531  0.07506  1.0000
  Fe  Fe34      1.0  0.10217  0.26756  0.39138  1.0000
  S   S66       1.0  0.11582  0.29512  0.37381  1.0000
  Fe  Fe35      1.0  0.40741  0.24898  0.06827  1.0000
  C   C336      1.0  0.01672  0.32577  0.46237  1.0000
  C   C337      1.0  0.22004  0.43252  0.18223  1.0000
  S   S67       1.0  0.07091  0.26770  0.40694  1.0000
  H   H262      1.0  0.15312  0.27121  0.38842  1.0000
  H   H263      1.0  0.11815  0.31992  0.42076  1.0000
  C   C338      1.0  0.49301  0.26000  0.01843  1.0000
  C   C339      1.0  0.07117  0.32249  0.24222  1.0000
  H   H264      1.0  0.99848  0.33599  0.41021  1.0000
  C   C340      1.0  0.21255  0.38314  0.02574  1.0000
  C   C341      1.0  0.19541  0.38016  0.01439  1.0000
  H   H265      1.0  0.28035  0.28499  0.02285  1.0000
  H   H266      1.0  0.18104  0.37660  0.02220  1.0000
  H   H267      1.0  0.00963  0.30005  0.34484  1.0000
  C   C342      1.0  0.24996  0.48215  0.10040  1.0000
  C   C343      1.0  0.29833  0.35235  0.02364  1.0000
  C   C344      1.0  0.27133  0.48228  0.09994  1.0000
  H   H268      1.0  0.26097  0.47842  0.15372  1.0000
  H   H269      1.0  0.28028  0.46808  0.09987  1.0000
  C   C345      1.0  0.09687  0.33214  0.31546  1.0000
  C   C346      1.0  0.11316  0.33787  0.32683  1.0000
  C   C347      1.0  0.11849  0.32658  0.34477  1.0000
  C   C348      1.0  0.10779  0.30928  0.35153  1.0000
  C   C349      1.0  0.09154  0.30354  0.34015  1.0000
  C   C350      1.0  0.08607  0.31495  0.32235  1.0000
  H   H270      1.0  0.12174  0.35094  0.32176  1.0000
  H   H271      1.0  0.13113  0.33117  0.35338  1.0000
  H   H272      1.0  0.08333  0.29014  0.34494  1.0000
  H   H273      1.0  0.07344  0.31033  0.31379  1.0000
  C   C351      1.0  0.14845  0.39269  0.18932  1.0000
  C   C352      1.0  0.16579  0.38957  0.20105  1.0000
  C   C353      1.0  0.18543  0.38677  0.19142  1.0000
  C   C354      1.0  0.18816  0.38738  0.16995  1.0000
  C   C355      1.0  0.17085  0.39079  0.15825  1.0000
  C   C356      1.0  0.15119  0.39341  0.16787  1.0000
  H   H274      1.0  0.16404  0.38894  0.21753  1.0000
  H   H275      1.0  0.19862  0.38401  0.20070  1.0000
  H   H276      1.0  0.17255  0.39119  0.14176  1.0000
  H   H277      1.0  0.13797  0.39581  0.15856  1.0000
  C   C357      1.0  0.03375  0.32438  0.47466  1.0000
  C   C358      1.0  0.33387  0.27611  0.19080  1.0000
  H   H278      1.0  0.45382  0.27125  0.05272  1.0000
  C   C359      1.0  0.31795  0.30845  0.20103  1.0000
  H   H279      1.0  0.02328  0.37805  0.22880  1.0000
  C   C360      1.0  0.10926  0.47533  0.27632  1.0000
  C   C361      1.0  0.04018  0.30557  0.48344  1.0000
  C   C362      1.0  0.10263  0.47972  0.25656  1.0000
  C   C363      1.0  0.38087  0.29889  0.03183  1.0000
  H   H280      1.0  0.09896  0.46748  0.24702  1.0000
  C   C364      1.0  0.33361  0.30635  0.10195  1.0000
  C   C365      1.0  0.31242  0.30924  0.10624  1.0000
  C   C366      1.0  0.30243  0.32873  0.10424  1.0000
  C   C367      1.0  0.31351  0.34572  0.09785  1.0000
  C   C368      1.0  0.33466  0.34278  0.09324  1.0000
  C   C369      1.0  0.34465  0.32329  0.09528  1.0000
  H   H281      1.0  0.30364  0.29631  0.11134  1.0000
  H   H282      1.0  0.28621  0.33063  0.10788  1.0000
  H   H283      1.0  0.34344  0.35574  0.08828  1.0000
  H   H284      1.0  0.36092  0.32143  0.09191  1.0000
  C   C370      1.0  0.47643  0.27667  0.12522  1.0000
  H   H285      1.0  0.18055  0.27778  0.28107  1.0000
  H   H286      1.0  0.01184  0.34046  0.45587  1.0000
  H   H287      1.0  0.47490  0.29919  0.14820  1.0000
  C   C371      1.0  0.47292  0.26264  0.02664  1.0000
  C   C372      1.0  0.33056  0.29420  0.04967  1.0000
  C   C373      1.0  0.03891  0.32531  0.26159  1.0000
  C   C374      1.0  0.09063  0.30835  0.43510  1.0000
  S   S68       1.0  0.11756  0.25559  0.41998  1.0000
  H   H288      1.0  0.21107  0.33557  0.04044  1.0000
  C   C375      1.0  0.16467  0.44124  0.13137  1.0000
  H   H289      1.0  0.12930  0.25764  0.24913  1.0000
  H   H290      1.0  0.06204  0.45094  0.27212  1.0000
  C   C376      1.0  0.30195  0.43171  0.07718  1.0000
  C   C377      1.0  0.26395  0.49436  0.15430  1.0000
  C   C378      1.0  0.29443  0.36499  0.04024  1.0000
  S   S69       1.0  0.39672  0.25175  0.12668  1.0000
  H   H291      1.0  0.32463  0.32593  0.04275  1.0000
  S   S70       1.0  0.07513  0.26170  0.46649  1.0000
  P   P12       1.0  0.10355  0.29504  0.25210  1.0000
  H   H292      1.0  0.05363  0.30438  0.49262  1.0000
  C   C379      1.0  0.01001  0.32919  0.35872  1.0000
  C   C380      1.0  0.01016  0.27669  0.39724  1.0000
  H   H293      1.0  0.18791  0.43074  0.15185  1.0000
  C   C381      1.0  0.17243  0.47384  0.23426  1.0000
  C   C382      1.0  0.16364  0.47831  0.21544  1.0000
  C   C383      1.0  0.48488  0.28950  0.13881  1.0000
  H   H294      1.0  0.00047  0.33546  0.30997  1.0000
  C   C384      1.0  0.14622  0.45249  0.12924  1.0000
  H   H295      1.0  0.35038  0.30303  0.19642  1.0000
  H   H296      1.0  0.23066  0.46533  0.14231  1.0000
  C   C385      1.0  0.37367  0.27709  0.16905  1.0000
  P   P13       1.0  0.28162  0.46639  0.02805  1.0000
  C   C386      1.0  0.14692  0.46755  0.20961  1.0000
  H   H297      1.0  0.08123  0.42407  0.18570  1.0000
  C   C387      1.0  0.40772  0.28908  0.16051  1.0000
  C   C388      1.0  0.13967  0.45168  0.22252  1.0000
  H   H298      1.0  0.33204  0.41845  0.08217  1.0000
  C   C389      1.0  0.31955  0.31072  0.04076  1.0000
  H   H299      1.0  0.13258  0.31559  0.27702  1.0000
  H   H300      1.0  0.28502  0.30968  0.20416  1.0000
  H   H301      1.0  0.33663  0.28898  0.99985  1.0000
  C   C390      1.0  0.00613  0.30825  0.45875  1.0000
  C   C391      1.0  0.10830  0.46699  0.18832  1.0000
  C   C392      1.0  0.21517  0.46742  0.19246  1.0000
  C   C393      1.0  0.31444  0.26788  0.19080  1.0000
  C   C394      1.0  0.12841  0.30154  0.28487  1.0000
  H   H302      1.0  0.21957  0.41631  0.18581  1.0000
  C   C395      1.0  0.33093  0.43582  0.05354  1.0000
  H   H303      1.0  0.04633  0.34374  0.23467  1.0000
  H   H304      1.0  0.28074  0.32125  0.06593  1.0000
  H   H305      1.0  0.35252  0.25557  0.13998  1.0000
  C   C396      1.0  0.05778  0.48060  0.28489  1.0000
  H   H306      1.0  0.22969  0.42850  0.15088  1.0000
  H   H307      1.0  0.11943  0.25824  0.47310  1.0000
  C   C397      1.0  0.02668  0.38660  0.31533  1.0000
  C   C398      1.0  0.39478  0.27659  0.17241  1.0000
  H   H308      1.0  0.24048  0.33571  0.01619  1.0000
  H   H309      1.0  0.20121  0.43614  0.03598  1.0000
  C   C399      1.0  0.31852  0.44747  0.04022  1.0000
  C   C400      1.0  0.30159  0.30755  0.03050  1.0000
  C   C401      1.0  0.01909  0.40283  0.40252  1.0000
  P   P14       1.0  0.13451  0.47475  0.18614  1.0000
  C   C402      1.0  0.24864  0.32362  0.07366  1.0000
  C   C403      1.0  0.24320  0.33222  0.03208  1.0000
  C   C404      1.0  0.08657  0.37785  0.34101  1.0000
  C   C405      1.0  0.09743  0.39288  0.34970  1.0000
  C   C406      1.0  0.09622  0.39503  0.37083  1.0000
  C   C407      1.0  0.08399  0.38228  0.38322  1.0000
  C   C408      1.0  0.07297  0.36715  0.37455  1.0000
  C   C409      1.0  0.07450  0.36486  0.35336  1.0000
  P   P15       1.0  0.05582  0.35227  0.39071  1.0000
  C   C410      1.0  0.06967  0.33552  0.40833  1.0000
  C   C411      1.0  0.03928  0.37082  0.40377  1.0000
  C   C412      1.0  0.03108  0.38777  0.39263  1.0000
  C   C413      1.0  0.48973  0.26416  0.11319  1.0000
  H   H310      1.0  0.03479  0.27346  0.48643  1.0000
  C   C414      1.0  0.02349  0.38450  0.43486  1.0000
  C   C415      1.0  0.03557  0.36944  0.42503  1.0000
  C   C416      1.0  0.05884  0.32219  0.42160  1.0000
  C   C417      1.0  0.06928  0.30893  0.43514  1.0000
  H   H311      1.0  0.38668  0.28558  0.04042  1.0000
  C   C418      1.0  0.10156  0.32101  0.42141  1.0000
  C   C419      1.0  0.09116  0.33455  0.40803  1.0000
  C   C420      1.0  0.04110  0.33614  0.37575  1.0000
  C   C421      1.0  0.04936  0.31689  0.37042  1.0000
  C   C422      1.0  0.03806  0.30398  0.35926  1.0000
  C   C423      1.0  0.01841  0.31015  0.35337  1.0000
  C   C424      1.0  0.19208  0.25301  0.32599  1.0000
  C   C425      1.0  0.02137  0.34227  0.36964  1.0000
  H   H312      1.0  0.08779  0.37612  0.32463  1.0000
  H   H313      1.0  0.10682  0.40280  0.34003  1.0000
  H   H314      1.0  0.10469  0.40668  0.37756  1.0000
  H   H315      1.0  0.08298  0.38430  0.39955  1.0000
  H   H316      1.0  0.06647  0.35313  0.34628  1.0000
  H   H317      1.0  0.03421  0.38948  0.37629  1.0000
  H   H318      1.0  0.25719  0.44238  0.00082  1.0000
  C   C426      1.0  0.32228  0.37657  0.00884  1.0000
  H   H319      1.0  0.28192  0.27365  0.19529  1.0000
  H   H320      1.0  0.04231  0.35713  0.43422  1.0000
  H   H321      1.0  0.04233  0.32187  0.42135  1.0000
  H   H322      1.0  0.06091  0.29850  0.44518  1.0000
  H   H323      1.0  0.10003  0.34367  0.39713  1.0000
  H   H324      1.0  0.06456  0.31177  0.37494  1.0000
  H   H325      1.0  0.04451  0.28906  0.35540  1.0000
  C   C427      1.0  0.11714  0.26619  0.30685  1.0000
  C   C428      1.0  0.29475  0.28766  0.02965  1.0000
  C   C429      1.0  0.01525  0.40118  0.42362  1.0000
  H   H326      1.0  0.34703  0.43302  0.04966  1.0000
  C   C430      1.0  0.09000  0.26373  0.48827  1.0000
  C   C431      1.0  0.08382  0.26940  0.22697  1.0000
  H   H327      1.0  0.01882  0.49196  0.24253  1.0000
  H   H328      1.0  0.33243  0.26178  0.05558  1.0000
  H   H329      1.0  0.28377  0.36090  0.05264  1.0000
  C   C432      1.0  0.37665  0.29738  0.01125  1.0000
  C   C433      1.0  0.13100  0.27897  0.31487  1.0000
  C   C434      1.0  0.00763  0.34981  0.31161  1.0000
  C   C435      1.0  0.32258  0.42775  0.07192  1.0000
  C   C436      1.0  0.10399  0.44674  0.18461  1.0000
  H   H330      1.0  0.24457  0.38978  0.02387  1.0000
  C   C437      1.0  0.33552  0.29641  0.19621  1.0000
  C   C438      1.0  0.22900  0.32771  0.06659  1.0000
  C   C439      1.0  0.37746  0.31743  0.04136  1.0000
  H   H331      1.0  0.25078  0.32060  0.08982  1.0000
  C   C440      1.0  0.37299  0.24930  0.24329  1.0000
  H   H332      1.0  0.09867  0.29764  0.44528  1.0000
  C   C441      1.0  0.22134  0.47452  0.17272  1.0000
  C   C442      1.0  0.11138  0.26139  0.48744  1.0000
  Fe  Fe36      1.0  0.08619  0.25310  0.43443  1.0000
  H   H333      1.0  0.03718  0.45835  0.24506  1.0000
  C   C443      1.0  0.29690  0.27997  0.19566  1.0000
  C   C444      1.0  0.22629  0.33188  0.04581  1.0000
  H   H334      1.0  0.09797  0.26108  0.28200  1.0000
  C   C445      1.0  0.23116  0.38757  0.01526  1.0000
  H   H335      1.0  0.45986  0.25970  0.01777  1.0000
  C   C446      1.0  0.29235  0.46443  0.00228  1.0000
  H   H336      1.0  0.12707  0.44283  0.21835  1.0000
  H   H337      1.0  0.03413  0.40090  0.31630  1.0000
  C   C447      1.0  0.16517  0.45040  0.16680  1.0000
  H   H338      1.0  0.01922  0.28590  0.42621  1.0000
  H   H339      1.0  0.08060  0.32752  0.22920  1.0000
  C   C448      1.0  0.14846  0.44727  0.24133  1.0000
  C   C449      1.0  0.22638  0.46028  0.15774  1.0000
  C   C450      1.0  0.05392  0.46566  0.27114  1.0000
  H   H340      1.0  0.31929  0.32422  0.20481  1.0000
  C   C451      1.0  0.16470  0.45844  0.24729  1.0000
  H   H341      1.0  0.17251  0.44890  0.18129  1.0000
  H   H342      1.0  0.30995  0.48994  0.05072  1.0000
  C   C452      1.0  0.22593  0.43941  0.16255  1.0000
  C   C453      1.0  0.02899  0.35014  0.31148  1.0000
  H   H343      1.0  0.19989  0.28210  0.31224  1.0000
  C   C454      1.0  0.22834  0.43872  0.01650  1.0000
  C   C455      1.0  0.29759  0.45108  0.04517  1.0000
  H   H344      1.0  0.11864  0.48846  0.30387  1.0000
  H   H345      1.0  0.48294  0.27957  0.07339  1.0000
  H   H346      1.0  0.04211  0.33781  0.47733  1.0000
  C   C456      1.0  0.17404  0.44014  0.15014  1.0000
  H   H347      1.0  0.11607  0.43596  0.17972  1.0000
  C   C457      1.0  0.30606  0.27115  0.03825  1.0000
  C   C458      1.0  0.32396  0.27444  0.04829  1.0000
  C   C459      1.0  0.31243  0.35821  0.00801  1.0000
  C   C460      1.0  0.36556  0.33304  0.00966  1.0000
  C   C461      1.0  0.26305  0.32843  0.03909  1.0000
  C   C462      1.0  0.36351  0.25780  0.22601  1.0000
  H   H348      1.0  0.21081  0.47783  0.20436  1.0000
  C   C463      1.0  0.30441  0.38329  0.04108  1.0000
  P   P16       1.0  0.28536  0.32887  0.02187  1.0000
  H   H349      1.0  0.05499  0.36890  0.31173  1.0000
  C   C464      1.0  0.22327  0.45476  0.04890  1.0000
  C   C465      1.0  0.24281  0.46252  0.04661  1.0000
  C   C466      1.0  0.25562  0.45784  0.02958  1.0000
  C   C467      1.0  0.24806  0.44608  0.01434  1.0000
  C   C468      1.0  0.13719  0.46267  0.14589  1.0000
  H   H350      1.0  0.17156  0.43301  0.11863  1.0000
  C   C469      1.0  0.21449  0.44652  0.19714  1.0000
  C   C470      1.0  0.05159  0.33161  0.24511  1.0000
  H   H351      1.0  0.24809  0.47183  0.05842  1.0000
  H   H352      1.0  0.14235  0.43545  0.25152  1.0000
  C   C471      1.0  0.28953  0.44343  0.06395  1.0000
  H   H353      1.0  0.19362  0.47994  0.14234  1.0000
  H   H354      1.0  0.30138  0.39284  0.05406  1.0000
  H   H355      1.0  0.21388  0.45774  0.06256  1.0000
  C   C472      1.0  0.02958  0.28814  0.47998  1.0000
  C   C473      1.0  0.08419  0.43989  0.18803  1.0000
  C   C474      1.0  0.11443  0.28881  0.27666  1.0000
  H   H356      1.0  0.13687  0.27560  0.32991  1.0000
  C   C475      1.0  0.36956  0.33442  0.03035  1.0000
  H   H357      1.0  0.14695  0.30679  0.31039  1.0000
  H   H358      1.0  0.29553  0.42555  0.09152  1.0000
  H   H359      1.0  0.27369  0.44647  0.06858  1.0000
  H   H360      1.0  0.35183  0.26981  0.22792  1.0000
  C   C476      1.0  0.03847  0.36858  0.31286  1.0000
  C   C477      1.0  0.14672  0.46189  0.16473  1.0000
  C   C478      1.0  0.13668  0.29657  0.30385  1.0000
  C   C479      1.0  0.10066  0.27166  0.23915  1.0000
  C   C480      1.0  0.21611  0.44268  0.03394  1.0000
  H   H361      1.0  0.17112  0.45520  0.26210  1.0000
  C   C481      1.0  0.11977  0.31164  0.23657  1.0000
  H   H362      1.0  0.36649  0.34866  0.03793  1.0000
  C   C482      1.0  0.06536  0.30070  0.27235  1.0000
  C   C483      1.0  0.04572  0.30972  0.27509  1.0000
  C   C484      1.0  0.07838  0.30720  0.25605  1.0000
  C   C485      1.0  0.31827  0.38910  0.02539  1.0000
  H   H363      1.0  0.03835  0.33623  0.30986  1.0000
  C   C486      1.0  0.12040  0.33235  0.24090  1.0000
  C   C487      1.0  0.13218  0.34544  0.22843  1.0000
  C   C488      1.0  0.14343  0.33800  0.21155  1.0000
  C   C489      1.0  0.14307  0.31740  0.20721  1.0000
  C   C490      1.0  0.13130  0.30424  0.21964  1.0000
  H   H364      1.0  0.32593  0.40328  0.02611  1.0000
  H   H365      1.0  0.34387  0.29669  0.05837  1.0000
  H   H366      1.0  0.20960  0.44111  0.21231  1.0000
  H   H367      1.0  0.47227  0.24889  0.17383  1.0000
  H   H368      1.0  0.30064  0.25586  0.03773  1.0000
  C   C491      1.0  0.10891  0.27105  0.28783  1.0000
  H   H369      1.0  0.21589  0.32812  0.07724  1.0000
  H   H370      1.0  0.07035  0.28879  0.28306  1.0000
  S   S71       1.0  0.41758  0.25227  0.03471  1.0000
  H   H371      1.0  0.13875  0.45299  0.11479  1.0000
  H   H372      1.0  0.11153  0.33846  0.25375  1.0000
  H   H373      1.0  0.13234  0.36148  0.23158  1.0000
  H   H374      1.0  0.15225  0.34828  0.20170  1.0000
  H   H375      1.0  0.15174  0.31174  0.19402  1.0000
  H   H376      1.0  0.13108  0.28844  0.21574  1.0000
  H   H377      1.0  0.32534  0.45380  0.02619  1.0000
  C   C492      1.0  0.26561  0.32403  0.06002  1.0000
  H   H378      1.0  0.38064  0.31847  0.05737  1.0000
  H   H379      1.0  0.03586  0.30474  0.28780  1.0000
  H   H380      1.0  0.02385  0.33258  0.26388  1.0000
  C   C493      1.0  0.29865  0.30026  0.20068  1.0000
  H   H381      1.0  0.02484  0.26906  0.39368  1.0000
  H   H382      1.0  0.06908  0.47744  0.29635  1.0000
  C   C494      1.0  0.03994  0.46988  0.25586  1.0000
  H   H383      1.0  0.40146  0.26645  0.18389  1.0000
  C   C495      1.0  0.37877  0.30302  0.14203  1.0000
  H   H384      1.0  0.00461  0.27574  0.46513  1.0000
  C   C496      1.0  0.19361  0.49574  0.13719  1.0000
  H   H385      1.0  0.37912  0.28273  0.00429  1.0000
  H   H386      1.0  0.37257  0.31294  0.13001  1.0000
  C   C497      1.0  0.00867  0.38570  0.23232  1.0000
  C   C498      1.0  0.11365  0.49164  0.28850  1.0000
  C   C499      1.0  0.02955  0.48889  0.25452  1.0000
  C   C500      1.0  0.11591  0.25596  0.24027  1.0000
  H   H387      1.0  0.40996  0.31133  0.13564  1.0000
  H   H388      1.0  0.34956  0.29132  0.15094  1.0000
  C   C501      1.0  0.00531  0.38630  0.31580  1.0000
  H   H389      1.0  0.36860  0.25479  0.25828  1.0000
  P   P17       1.0  0.35665  0.26089  0.18409  1.0000
  H   H390      1.0  0.31270  0.25227  0.18679  1.0000
  C   C502      1.0  0.00799  0.40405  0.24250  1.0000
  H   H391      1.0  0.05330  0.44760  0.19855  1.0000
  H   H392      1.0  0.01299  0.41595  0.39383  1.0000
  C   C503      1.0  0.08199  0.25146  0.21654  1.0000
  C   C504      1.0  0.19178  0.26829  0.31053  1.0000
  H   H393      1.0  0.01464  0.35702  0.37327  1.0000
  H   H394      1.0  0.48343  0.25410  0.10268  1.0000
  H   H395      1.0  0.35945  0.34640  0.00156  1.0000
  H   H396      1.0  0.07210  0.28146  0.22542  1.0000
  H   H397      1.0  0.20269  0.49395  0.03633  1.0000
  H   H398      1.0  0.02079  0.38342  0.45128  1.0000
  H   H399      1.0  0.22264  0.42946  0.00487  1.0000
  C   C505      1.0  0.36576  0.29063  0.15393  1.0000
  C   C506      1.0  0.01260  0.28945  0.46774  1.0000
  C   C507      1.0  0.28103  0.49255  0.03561  1.0000
  H   H400      1.0  0.00612  0.41296  0.43131  1.0000
  C   C508      1.0  0.39976  0.30216  0.14523  1.0000
  H   H401      1.0  0.42407  0.28825  0.16270  1.0000
  C   C509      1.0  0.00679  0.28618  0.41583  1.0000
  C   C510      1.0  0.07259  0.47333  0.19895  1.0000
  C   C511      1.0  0.36905  0.25062  0.20658  1.0000
  H   H402      1.0  0.11246  0.25276  0.31563  1.0000
  H   H403      1.0  0.21389  0.48336  0.00209  1.0000
  H   H404      1.0  0.16831  0.25620  0.41989  1.0000
  C   C512      1.0  0.36938  0.31455  0.99982  1.0000
  H   H405      1.0  0.29554  0.48908  0.14467  1.0000
  H   H406      1.0  0.09508  0.49590  0.19844  1.0000
  C   C513      1.0  0.46938  0.26945  0.04646  1.0000
  H   H407      1.0  0.18501  0.48251  0.23890  1.0000
  C   C514      1.0  0.06851  0.45313  0.19533  1.0000
  C   C515      1.0  0.17111  0.24878  0.40553  1.0000
  C   C516      1.0  0.48579  0.27404  0.05813  1.0000
  H   H408      1.0  0.29477  0.43144  0.00377  1.0000
  C   C517      1.0  0.16250  0.25720  0.38781  1.0000
  H   H409      1.0  0.15816  0.25382  0.35600  1.0000
  C   C518      1.0  0.18092  0.26585  0.29296  1.0000
  H   H410      1.0  0.20045  0.25518  0.33960  1.0000
  H   H411      1.0  0.17177  0.49123  0.11432  1.0000
  C   C519      1.0  0.16545  0.24728  0.36940  1.0000
  H   H412      1.0  0.16966  0.49034  0.20556  1.0000
  C   C520      1.0  0.09237  0.48027  0.19538  1.0000
  C   C521      1.0  0.17039  0.24809  0.29080  1.0000
  H   H413      1.0  0.06049  0.48352  0.20488  1.0000
  H   H414      1.0  0.06892  0.24977  0.20724  1.0000
  C   C522      1.0  0.49817  0.27653  0.97785  1.0000
  H   H415      1.0  0.32588  0.25545  0.60549  1.0000
  Fe  Fe37      1.0  0.39001  0.26972  0.89343  1.0000
  S   S72       1.0  0.37764  0.30262  0.88773  1.0000
  S   S73       1.0  0.40957  0.26116  0.92028  1.0000
  H   H416      1.0  0.30923  0.48276  0.90967  1.0000
  Fe  Fe38      1.0  0.26992  0.37374  0.90151  1.0000
  S   S74       1.0  0.23548  0.37183  0.90214  1.0000
  S   S75       1.0  0.28680  0.34210  0.90219  1.0000
  Fe  Fe39      1.0  0.26573  0.42060  0.90496  1.0000
  S   S76       1.0  0.23139  0.42146  0.90616  1.0000
  S   S77       1.0  0.28466  0.44834  0.90922  1.0000
  Fe  Fe40      1.0  0.23518  0.39388  0.92760  1.0000
  S   S78       1.0  0.21370  0.38859  0.95530  1.0000
  Fe  Fe41      1.0  0.23446  0.39938  0.88057  1.0000
  S   S79       1.0  0.21849  0.40394  0.84978  1.0000
  S   S80       1.0  0.26929  0.39439  0.92821  1.0000
  S   S81       1.0  0.26912  0.39996  0.87818  1.0000
  Fe  Fe42      1.0  0.11673  0.39788  0.78402  1.0000
  S   S82       1.0  0.13690  0.39893  0.75559  1.0000
  S   S83       1.0  0.12885  0.39237  0.81638  1.0000
  Fe  Fe43      1.0  0.07772  0.40828  0.75929  1.0000
  S   S84       1.0  0.09621  0.41050  0.72947  1.0000
  S   S85       1.0  0.04419  0.41908  0.75653  1.0000
  Fe  Fe44      1.0  0.11271  0.38156  0.74060  1.0000
  S   S86       1.0  0.12077  0.35151  0.72417  1.0000
  Fe  Fe45      1.0  0.11824  0.42758  0.74728  1.0000
  S   S87       1.0  0.13481  0.45671  0.73877  1.0000
  S   S88       1.0  0.09338  0.37876  0.76991  1.0000
  S   S89       1.0  0.09893  0.42705  0.77620  1.0000
  Fe  Fe46      1.0  0.10225  0.28186  0.62180  1.0000
  S   S90       1.0  0.09977  0.31199  0.63932  1.0000
  Fe  Fe47      1.0  0.11131  0.26593  0.57788  1.0000
  S   S91       1.0  0.12621  0.27063  0.54608  1.0000
  S   S92       1.0  0.08598  0.28522  0.59199  1.0000
  S   S93       1.0  0.12940  0.26479  0.60659  1.0000
  C   C523      1.0  0.14887  0.34420  0.83693  1.0000
  C   C524      1.0  0.04522  0.28323  0.67602  1.0000
  C   C525      1.0  0.11210  0.26737  0.52408  1.0000
  H   H417      1.0  0.46591  0.28368  0.98335  1.0000
  C   C526      1.0  0.23222  0.38924  0.99352  1.0000
  C   C527      1.0  0.11450  0.34090  0.70050  1.0000
  C   C528      1.0  0.10389  0.35207  0.68534  1.0000
  C   C529      1.0  0.09978  0.34303  0.66676  1.0000
  C   C530      1.0  0.10597  0.32262  0.66301  1.0000
  C   C531      1.0  0.11634  0.31138  0.67828  1.0000
  C   C532      1.0  0.12060  0.32048  0.69679  1.0000
  H   H418      1.0  0.09909  0.36776  0.68784  1.0000
  H   H419      1.0  0.09179  0.35195  0.65514  1.0000
  H   H420      1.0  0.12121  0.29571  0.67579  1.0000
  H   H421      1.0  0.12881  0.31160  0.70830  1.0000
  C   C533      1.0  0.02098  0.40665  0.76211  1.0000
  C   C534      1.0  0.25165  0.47124  0.95789  1.0000
  C   C535      1.0  0.18988  0.49054  0.77293  1.0000
  C   C536      1.0  0.01412  0.25112  0.60477  1.0000
  C   C537      1.0  0.44558  0.25398  0.82123  1.0000
  C   C538      1.0  0.12215  0.48115  0.74017  1.0000
  C   C539      1.0  0.16831  0.26915  0.82735  1.0000
  H   H422      1.0  0.49715  0.31652  0.77577  1.0000
  H   H423      1.0  0.09177  0.46999  0.74330  1.0000
  C   C540      1.0  0.00833  0.31330  0.61743  1.0000
  C   C541      1.0  0.19331  0.40099  0.84096  1.0000
  C   C542      1.0  0.17666  0.39656  0.85422  1.0000
  C   C543      1.0  0.15710  0.39429  0.84644  1.0000
  C   C544      1.0  0.15382  0.39618  0.82532  1.0000
  C   C545      1.0  0.17043  0.40080  0.81209  1.0000
  C   C546      1.0  0.19000  0.40312  0.81985  1.0000
  H   H424      1.0  0.17884  0.39485  0.87046  1.0000
  H   H425      1.0  0.14437  0.39103  0.85691  1.0000
  H   H426      1.0  0.16822  0.40247  0.79584  1.0000
  H   H427      1.0  0.20269  0.40636  0.80932  1.0000
  C   C547      1.0  0.32092  0.25938  0.86758  1.0000
  C   C548      1.0  0.21468  0.38642  0.98238  1.0000
  C   C549      1.0  0.48009  0.28867  0.97609  1.0000
  C   C550      1.0  0.99882  0.32958  0.73736  1.0000
  C   C551      1.0  0.28515  0.31096  0.98353  1.0000
  C   C552      1.0  0.23813  0.43754  0.95871  1.0000
  C   C553      1.0  0.27947  0.47418  0.90124  1.0000
  C   C554      1.0  0.30808  0.46095  0.96198  1.0000
  H   H428      1.0  0.05848  0.45129  0.72521  1.0000
  H   H429      1.0  0.24897  0.47074  0.89112  1.0000
  C   C555      1.0  0.35249  0.31347  0.89294  1.0000
  C   C556      1.0  0.33626  0.30173  0.90030  1.0000
  C   C557      1.0  0.31641  0.31082  0.90323  1.0000
  C   C558      1.0  0.31247  0.33180  0.89904  1.0000
  C   C559      1.0  0.32882  0.34365  0.89224  1.0000
  C   C560      1.0  0.34864  0.33452  0.88915  1.0000
  H   H430      1.0  0.33892  0.28557  0.90339  1.0000
  H   H431      1.0  0.30396  0.30149  0.90862  1.0000
  H   H432      1.0  0.32613  0.35978  0.88897  1.0000
  H   H433      1.0  0.36103  0.34382  0.88351  1.0000
  H   H434      1.0  0.24045  0.42132  0.95677  1.0000
  H   H435      1.0  0.34417  0.25447  0.93392  1.0000
  H   H436      1.0  0.32316  0.31782  0.95713  1.0000
  C   C561      1.0  0.48448  0.26605  0.90945  1.0000
  H   H437      1.0  0.46983  0.27431  0.91051  1.0000
  H   H438      1.0  0.31220  0.26913  0.87803  1.0000
  C   C562      1.0  0.04469  0.36203  0.70432  1.0000
  C   C563      1.0  0.13399  0.34973  0.85184  1.0000
  P   P18       1.0  0.19334  0.46780  0.78909  1.0000
  C   C564      1.0  0.16878  0.46215  0.80114  1.0000
  C   C565      1.0  0.20102  0.44677  0.77308  1.0000
  C   C566      1.0  0.18641  0.43720  0.76212  1.0000
  C   C567      1.0  0.19247  0.42202  0.74854  1.0000
  C   C568      1.0  0.21315  0.41617  0.74581  1.0000
  C   C569      1.0  0.22780  0.42550  0.75673  1.0000
  C   C570      1.0  0.22181  0.44085  0.77020  1.0000
  C   C571      1.0  0.16733  0.45240  0.82056  1.0000
  C   C572      1.0  0.14833  0.44674  0.82892  1.0000
  C   C573      1.0  0.26195  0.34338  0.96597  1.0000
  H   H439      1.0  0.14522  0.34651  0.82106  1.0000
  C   C574      1.0  0.15087  0.46628  0.79039  1.0000
  C   C575      1.0  0.21243  0.47109  0.80780  1.0000
  H   H440      1.0  0.30261  0.24717  0.63522  1.0000
  H   H441      1.0  0.00426  0.36946  0.70288  1.0000
  C   C576      1.0  0.24206  0.47573  0.83693  1.0000
  C   C577      1.0  0.23485  0.45649  0.83377  1.0000
  C   C578      1.0  0.22020  0.45416  0.81921  1.0000
  H   H442      1.0  0.25291  0.35594  0.95917  1.0000
  H   H443      1.0  0.19853  0.30332  0.78824  1.0000
  H   H444      1.0  0.17032  0.44162  0.76358  1.0000
  H   H445      1.0  0.18102  0.41504  0.73994  1.0000
  H   H446      1.0  0.21778  0.40447  0.73517  1.0000
  H   H447      1.0  0.24385  0.42101  0.75457  1.0000
  H   H448      1.0  0.23346  0.44828  0.77805  1.0000
  H   H449      1.0  0.18077  0.44841  0.82904  1.0000
  H   H450      1.0  0.14739  0.43866  0.84363  1.0000
  C   C579      1.0  0.26802  0.32661  0.95440  1.0000
  H   H451      1.0  0.18699  0.32773  0.86829  1.0000
  S   S94       1.0  0.41243  0.25381  0.87152  1.0000
  C   C580      1.0  0.02104  0.32833  0.64731  1.0000
  C   C581      1.0  0.15214  0.47609  0.88476  1.0000
  H   H452      1.0  0.25352  0.47747  0.84815  1.0000
  H   H453      1.0  0.24062  0.44328  0.84258  1.0000
  H   H454      1.0  0.21496  0.43907  0.81691  1.0000
  H   H455      1.0  0.99984  0.36821  0.79115  1.0000
  H   H456      1.0  0.20030  0.47306  0.96920  1.0000
  C   C582      1.0  0.18413  0.47030  0.86565  1.0000
  H   H457      1.0  0.19732  0.46041  0.86175  1.0000
  C   C583      1.0  0.03954  0.31700  0.70112  1.0000
  H   H458      1.0  0.37460  0.35507  0.96539  1.0000
  C   C584      1.0  0.00298  0.41475  0.75335  1.0000
  H   H459      1.0  0.49397  0.32837  0.84796  1.0000
  H   H460      1.0  0.04094  0.37981  0.73147  1.0000
  H   H461      1.0  0.34254  0.28226  0.85882  1.0000
  H   H462      1.0  0.21914  0.48950  0.92547  1.0000
  C   C585      1.0  0.35905  0.35338  0.96085  1.0000
  C   C586      1.0  0.34938  0.25429  0.84336  1.0000
  C   C587      1.0  0.05888  0.31193  0.69217  1.0000
  C   C588      1.0  0.40869  0.31665  0.92662  1.0000
  H   H463      1.0  0.43976  0.30434  0.92573  1.0000
  H   H464      1.0  0.17914  0.37529  0.74925  1.0000
  C   C589      1.0  0.00867  0.34286  0.72320  1.0000
  H   H465      1.0  0.24643  0.39280  0.98548  1.0000
  C   C590      1.0  0.04522  0.37987  0.71533  1.0000
  H   H466      1.0  0.46621  0.31659  0.96373  1.0000
  H   H467      1.0  0.01842  0.33530  0.66192  1.0000
  C   C591      1.0  0.40608  0.30012  0.96650  1.0000
  H   H468      1.0  0.36240  0.28585  0.93819  1.0000
  P   P19       1.0  0.03576  0.33902  0.71703  1.0000
  C   C592      1.0  0.01979  0.38963  0.77553  1.0000
  H   H469      1.0  0.18282  0.37962  0.98473  1.0000
  C   C593      1.0  0.19007  0.29391  0.79928  1.0000
  C   C594      1.0  0.42574  0.30642  0.93494  1.0000
  C   C595      1.0  0.15004  0.49569  0.87573  1.0000
  H   H470      1.0  0.15482  0.34838  0.75838  1.0000
  C   C596      1.0  0.48706  0.31410  0.85234  1.0000
  C   C597      1.0  0.03513  0.47435  0.73226  1.0000
  C   C598      1.0  0.38892  0.31067  0.95839  1.0000
  H   H471      1.0  0.22372  0.29975  0.82460  1.0000
  H   H472      1.0  0.36287  0.25989  0.83524  1.0000
  S   S95       1.0  0.08615  0.25311  0.63159  1.0000
  C   C599      1.0  0.35011  0.33435  0.96304  1.0000
  H   H473      1.0  0.11933  0.35635  0.84723  1.0000
  C   C600      1.0  0.06173  0.29500  0.67992  1.0000
  H   H474      1.0  0.03349  0.38346  0.78256  1.0000
  H   H475      1.0  0.35523  0.38479  0.95035  1.0000
  H   H476      1.0  0.04744  0.27044  0.66608  1.0000
  H   H477      1.0  0.06337  0.26970  0.50794  1.0000
  H   H478      1.0  0.11616  0.44491  0.82381  1.0000
  C   C601      1.0  0.39029  0.31853  0.93815  1.0000
  C   C602      1.0  0.02302  0.30492  0.69715  1.0000
  H   H479      1.0  0.43717  0.28912  0.96091  1.0000
  H   H480      1.0  0.40542  0.29314  0.98165  1.0000
  H   H481      1.0  0.26445  0.48083  0.95463  1.0000
  H   H482      1.0  0.31996  0.38103  0.93883  1.0000
  C   C603      1.0  0.05013  0.36275  0.68340  1.0000
  H   H483      1.0  0.44080  0.29584  0.86780  1.0000
  H   H484      1.0  0.31347  0.45959  0.94618  1.0000
  H   H485      1.0  0.41200  0.24826  0.96109  1.0000
  C   C604      1.0  0.02586  0.28822  0.68458  1.0000
  H   H486      1.0  0.24041  0.36318  0.85765  1.0000
  C   C605      1.0  0.04952  0.33566  0.74047  1.0000
  H   H487      1.0  0.26388  0.32629  0.93857  1.0000
  C   C606      1.0  0.17232  0.33401  0.86344  1.0000
  C   C607      1.0  0.13831  0.34765  0.87251  1.0000
  C   C608      1.0  0.09077  0.26946  0.52487  1.0000
  H   H488      1.0  0.37705  0.32568  0.93095  1.0000
  C   C609      1.0  0.05240  0.46654  0.72144  1.0000
  H   H489      1.0  0.06179  0.41262  0.67736  1.0000
  C   C610      1.0  0.27977  0.31051  0.96311  1.0000
  C   C611      1.0  0.46625  0.31418  0.85818  1.0000
  C   C612      1.0  0.16918  0.46341  0.87974  1.0000
  H   H490      1.0  0.28486  0.29777  0.95391  1.0000
  C   C613      1.0  0.13201  0.46010  0.79855  1.0000
  H   H491      1.0  0.05144  0.41178  0.71413  1.0000
  H   H492      1.0  0.40941  0.32245  0.91091  1.0000
  C   C614      1.0  0.33022  0.33239  0.95634  1.0000
  C   C615      1.0  0.05112  0.39807  0.70552  1.0000
  C   C616      1.0  0.48023  0.30732  0.96507  1.0000
  H   H493      1.0  0.07817  0.32467  0.72605  1.0000
  H   H494      1.0  0.29456  0.29850  0.98972  1.0000
  H   H495      1.0  0.30418  0.34762  0.94238  1.0000
  C   C617      1.0  0.13071  0.45028  0.81779  1.0000
  C   C618      1.0  0.04037  0.34193  0.75911  1.0000
  C   C619      1.0  0.08088  0.32666  0.75807  1.0000
  C   C620      1.0  0.07140  0.33229  0.77659  1.0000
  C   C621      1.0  0.05118  0.34003  0.77708  1.0000
  H   H496      1.0  0.09690  0.32165  0.75740  1.0000
  H   H497      1.0  0.07999  0.33142  0.79039  1.0000
  H   H498      1.0  0.04405  0.34516  0.79129  1.0000
  H   H499      1.0  0.20619  0.36023  0.84410  1.0000
  H   H500      1.0  0.02508  0.34888  0.75982  1.0000
  C   C622      1.0  0.23467  0.49265  0.82548  1.0000
  H   H501      1.0  0.47691  0.26271  0.81909  1.0000
  C   C623      1.0  0.16825  0.33647  0.84258  1.0000
  C   C624      1.0  0.30370  0.48018  0.96983  1.0000
  C   C625      1.0  0.33847  0.28163  0.98537  1.0000
  C   C626      1.0  0.07005  0.32837  0.74012  1.0000
  H   H502      1.0  0.17079  0.44820  0.88668  1.0000
  C   C627      1.0  0.34816  0.37023  0.95235  1.0000
  C   C628      1.0  0.18643  0.27383  0.79469  1.0000
  C   C629      1.0  0.07985  0.26789  0.50704  1.0000
  H   H503      1.0  0.01301  0.27922  0.68131  1.0000
  H   H504      1.0  0.00368  0.42803  0.74311  1.0000
  C   C630      1.0  0.02841  0.30843  0.61065  1.0000
  H   H505      1.0  0.02810  0.46468  0.74403  1.0000
  C   C631      1.0  0.45698  0.29587  0.86340  1.0000
  C   C632      1.0  0.17553  0.26146  0.80870  1.0000
  C   C633      1.0  0.05629  0.38091  0.67369  1.0000
  C   C634      1.0  0.32831  0.36816  0.94587  1.0000
  H   H506      1.0  0.12689  0.35240  0.88399  1.0000
  H   H507      1.0  0.20585  0.43582  0.96554  1.0000
  C   C635      1.0  0.18196  0.48978  0.85642  1.0000
  C   C636      1.0  0.33797  0.26685  0.85668  1.0000
  C   C637      1.0  0.35120  0.28960  0.96950  1.0000
  H   H508      1.0  0.07669  0.29127  0.67299  1.0000
  C   C638      1.0  0.31937  0.34928  0.94791  1.0000
  H   H509      1.0  0.25763  0.30274  0.83898  1.0000
  C   C639      1.0  0.21862  0.44579  0.96367  1.0000
  C   C640      1.0  0.41358  0.25040  0.99360  1.0000
  H   H510      1.0  0.43925  0.26949  0.82028  1.0000
  C   C641      1.0  0.21995  0.49038  0.81091  1.0000
  H   H511      1.0  0.08272  0.27275  0.53920  1.0000
  H   H512      1.0  0.13892  0.26178  0.50457  1.0000
  H   H513      1.0  0.26943  0.44383  0.95095  1.0000
  H   H514      1.0  0.19195  0.26791  0.78018  1.0000
  H   H515      1.0  0.16089  0.33830  0.89435  1.0000
  C   C642      1.0  0.46857  0.27754  0.86296  1.0000
  H   H516      1.0  0.07172  0.32135  0.69403  1.0000
  C   C643      1.0  0.42434  0.29795  0.95479  1.0000
  C   C644      1.0  0.34236  0.26224  0.94817  1.0000
  H   H517      1.0  0.20594  0.47824  0.74620  1.0000
  H   H518      1.0  0.11847  0.46270  0.78968  1.0000
  H   H519      1.0  0.26602  0.33434  0.85582  1.0000
  H   H520      1.0  0.00738  0.31704  0.74467  1.0000
  C   C645      1.0  0.29490  0.48801  0.90322  1.0000
  C   C646      1.0  0.23220  0.47966  0.96335  1.0000
  H   H521      1.0  0.07594  0.47267  0.69839  1.0000
  H   H522      1.0  0.20667  0.38215  0.77275  1.0000
  C   C647      1.0  0.12239  0.26336  0.50528  1.0000
  C   C648      1.0  0.30508  0.44345  0.97435  1.0000
  C   C649      1.0  0.26101  0.48123  0.89272  1.0000
  C   C650      1.0  0.35286  0.27993  0.95077  1.0000
  C   C651      1.0  0.05682  0.39857  0.68477  1.0000
  H   H523      1.0  0.19358  0.49471  0.84536  1.0000
  H   H524      1.0  0.45723  0.32841  0.85848  1.0000
  H   H525      1.0  0.16610  0.29492  0.84648  1.0000
  P   P20       1.0  0.36478  0.31241  0.97292  1.0000
  H   H526      1.0  0.14050  0.47067  0.89564  1.0000
  H   H527      1.0  0.21022  0.36214  0.80474  1.0000
  H   H528      1.0  0.46130  0.26335  0.86685  1.0000
  H   H529      1.0  0.04987  0.34935  0.67458  1.0000
  H   H530      1.0  0.06095  0.38120  0.65763  1.0000
  H   H531      1.0  0.42727  0.25906  0.99245  1.0000
  C   C652      1.0  0.46677  0.25015  0.82070  1.0000
  C   C653      1.0  0.10082  0.48338  0.74197  1.0000
  C   C654      1.0  0.04477  0.31376  0.62202  1.0000
  C   C655      1.0  0.04112  0.32357  0.64033  1.0000
  H   H532      1.0  0.03135  0.30021  0.59675  1.0000
  H   H533      1.0  0.06036  0.31002  0.61691  1.0000
  H   H534      1.0  0.05410  0.32701  0.64909  1.0000
  H   H535      1.0  0.15149  0.47354  0.77527  1.0000
  C   C656      1.0  0.21561  0.46680  0.96585  1.0000
  C   C657      1.0  0.25455  0.45025  0.95567  1.0000
  H   H536      1.0  0.30830  0.42855  0.96815  1.0000
  H   H537      1.0  0.15813  0.32789  0.79052  1.0000
  C   C658      1.0  0.15748  0.33978  0.87831  1.0000
  P   P21       1.0  0.18707  0.32790  0.82347  1.0000
  C   C659      1.0  0.18454  0.34327  0.80011  1.0000
  C   C660      1.0  0.21235  0.32984  0.83321  1.0000
  C   C661      1.0  0.21730  0.34760  0.84276  1.0000
  C   C662      1.0  0.23666  0.34926  0.85060  1.0000
  C   C663      1.0  0.25113  0.33306  0.84938  1.0000
  C   C664      1.0  0.24635  0.31527  0.83994  1.0000
  C   C665      1.0  0.22706  0.31366  0.83181  1.0000
  C   C666      1.0  0.19821  0.35866  0.79480  1.0000
  C   C667      1.0  0.19630  0.37009  0.77649  1.0000
  C   C668      1.0  0.18077  0.36630  0.76334  1.0000
  C   C669      1.0  0.16707  0.35108  0.76850  1.0000
  C   C670      1.0  0.16896  0.33957  0.78677  1.0000
  C   C671      1.0  0.18269  0.30181  0.81791  1.0000
  C   C672      1.0  0.17189  0.28924  0.83199  1.0000
  H   H538      1.0  0.00381  0.36617  0.64636  1.0000
  C   C673      1.0  0.33029  0.25400  0.96422  1.0000
  H   H539      1.0  0.00782  0.30840  0.70337  1.0000
  S   S96       1.0  0.03771  0.25655  0.59174  1.0000
  H   H540      1.0  0.01610  0.48139  0.77952  1.0000
  C   C674      1.0  0.00450  0.32385  0.63555  1.0000
  H   H541      1.0  0.00563  0.27190  0.51820  1.0000
  P   P22       1.0  0.49744  0.25262  0.99228  1.0000
  C   C675      1.0  0.19770  0.49127  0.75264  1.0000
  H   H542      1.0  0.18159  0.25455  0.54566  1.0000
  C   C676      1.0  0.48949  0.27740  0.85758  1.0000
  H   H543      1.0  0.99978  0.45258  0.79810  1.0000
  Fe  Fe48      1.0  0.07102  0.25600  0.60128  1.0000
  C   C677      1.0  0.00169  0.47626  0.77449  1.0000
  C   C678      1.0  0.02746  0.49432  0.72798  1.0000
  H   H544      1.0  0.15981  0.25958  0.83819  1.0000
  C   C679      1.0  0.06216  0.47854  0.70626  1.0000
  C   C680      1.0  0.26747  0.34395  0.98630  1.0000
  C   C681      1.0  0.19643  0.38187  0.99306  1.0000
  C   C682      1.0  0.32824  0.26376  0.98278  1.0000
  C   C683      1.0  0.27865  0.32753  0.99544  1.0000
  C   C684      1.0  0.29732  0.44516  0.99445  1.0000
  H   H545      1.0  0.26282  0.35715  0.99501  1.0000
  C   C685      1.0  0.29591  0.48194  0.98993  1.0000
  H   H546      1.0  0.02127  0.24789  0.55345  1.0000
  H   H547      1.0  0.30592  0.49372  0.96015  1.0000
  C   C686      1.0  0.00070  0.38109  0.78042  1.0000
  H   H548      1.0  0.49730  0.29748  0.80894  1.0000
  H   H549      1.0  0.31567  0.34864  0.99511  1.0000
  H   H550      1.0  0.47926  0.25030  0.95230  1.0000
  H   H551      1.0  0.49813  0.26296  0.85769  1.0000
  H   H552      1.0  0.13886  0.49645  0.83112  1.0000
  H   H553      1.0  0.31903  0.25725  0.99527  1.0000
  H   H554      1.0  0.33298  0.38108  0.99663  1.0000
  C   C687      1.0  0.01256  0.72716  0.47441  1.0000
  C   C688      1.0  0.20596  0.52593  0.02934  1.0000
  Fe  Fe49      1.0  0.37544  0.73084  0.09881  1.0000
  S   S97       1.0  0.35142  0.70837  0.08987  1.0000
  S   S98       1.0  0.40542  0.72938  0.08047  1.0000
  H   H555      1.0  0.00469  0.72814  0.44270  1.0000
  Fe  Fe50      1.0  0.10648  0.61469  0.28243  1.0000
  S   S99       1.0  0.09495  0.63412  0.25617  1.0000
  S   S100      1.0  0.11232  0.62753  0.31382  1.0000
  Fe  Fe51      1.0  0.10280  0.57481  0.25842  1.0000
  S   S101      1.0  0.09002  0.59282  0.23140  1.0000
  S   S102      1.0  0.10500  0.54131  0.24944  1.0000
  Fe  Fe52      1.0  0.11540  0.61405  0.23570  1.0000
  S   S103      1.0  0.13619  0.62736  0.20958  1.0000
  Fe  Fe53      1.0  0.07100  0.61059  0.25452  1.0000
  S   S104      1.0  0.03740  0.62130  0.25833  1.0000
  S   S105      1.0  0.12856  0.59601  0.26226  1.0000
  S   S106      1.0  0.08217  0.59144  0.28116  1.0000
  Fe  Fe54      1.0  0.27108  0.61805  0.11391  1.0000
  S   S107      1.0  0.23817  0.62706  0.10740  1.0000
  S   S108      1.0  0.29372  0.63872  0.12822  1.0000
  Fe  Fe55      1.0  0.26524  0.57351  0.10257  1.0000
  S   S109      1.0  0.23246  0.57973  0.09471  1.0000
  S   S110      1.0  0.28257  0.54280  0.10014  1.0000
  Fe  Fe56      1.0  0.24385  0.60842  0.07911  1.0000
  S   S111      1.0  0.23466  0.62161  0.04783  1.0000
  Fe  Fe57      1.0  0.22946  0.59750  0.12370  1.0000
  S   S112      1.0  0.20410  0.58780  0.14727  1.0000
  S   S113      1.0  0.27698  0.60107  0.08499  1.0000
  S   S114      1.0  0.26199  0.58971  0.13213  1.0000
  S   S115      1.0  0.08307  0.72817  0.40205  1.0000
  C   C689      1.0  0.03690  0.72158  0.44611  1.0000
  Fe  Fe58      1.0  0.10758  0.73501  0.37777  1.0000
  S   S116      1.0  0.11279  0.71828  0.34744  1.0000
  H   H556      1.0  0.12594  0.50859  0.21338  1.0000
  S   S117      1.0  0.11316  0.72149  0.45484  1.0000
  C   C690      1.0  0.10850  0.73307  0.47867  1.0000
  H   H557      1.0  0.19586  0.53606  0.24142  1.0000
  S   S118      1.0  0.13122  0.74201  0.40055  1.0000
  C   C691      1.0  0.24836  0.51940  0.10078  1.0000
  C   C692      1.0  0.26970  0.51961  0.10024  1.0000
  H   H558      1.0  0.03897  0.63722  0.21528  1.0000
  H   H559      1.0  0.23935  0.53357  0.10122  1.0000
  H   H560      1.0  0.01538  0.52310  0.31020  1.0000
  C   C693      1.0  0.24744  0.58938  0.02346  1.0000
  C   C694      1.0  0.23865  0.60913  0.02439  1.0000
  H   H561      1.0  0.17269  0.54029  0.29454  1.0000
  H   H562      1.0  0.25208  0.58133  0.03734  1.0000
  C   C695      1.0  0.02498  0.54483  0.28647  1.0000
  C   C696      1.0  0.15543  0.61598  0.19283  1.0000
  C   C697      1.0  0.15830  0.59485  0.19130  1.0000
  C   C698      1.0  0.17333  0.58661  0.17744  1.0000
  C   C699      1.0  0.18568  0.59931  0.16477  1.0000
  C   C700      1.0  0.18300  0.62044  0.16648  1.0000
  C   C701      1.0  0.16797  0.62866  0.18036  1.0000
  H   H563      1.0  0.14872  0.58488  0.20060  1.0000
  H   H564      1.0  0.17535  0.57027  0.17641  1.0000
  H   H565      1.0  0.19234  0.63044  0.15695  1.0000
  H   H566      1.0  0.16591  0.64501  0.18132  1.0000
  C   C702      1.0  0.11072  0.65295  0.32297  1.0000
  C   C703      1.0  0.11149  0.65587  0.34412  1.0000
  C   C704      1.0  0.11148  0.67564  0.35198  1.0000
  C   C705      1.0  0.11126  0.69287  0.33873  1.0000
  C   C706      1.0  0.11043  0.68994  0.31759  1.0000
  C   C707      1.0  0.10971  0.67023  0.30980  1.0000
  H   H567      1.0  0.11229  0.64270  0.35453  1.0000
  H   H568      1.0  0.11227  0.67748  0.36824  1.0000
  H   H569      1.0  0.11058  0.70302  0.30711  1.0000
  H   H570      1.0  0.10884  0.66839  0.29357  1.0000
  C   C708      1.0  0.01410  0.59850  0.23390  1.0000
  C   C709      1.0  0.01508  0.60886  0.25203  1.0000
  C   C710      1.0  0.29558  0.63703  0.01375  1.0000
  H   H571      1.0  0.02778  0.59614  0.22430  1.0000
  C   C711      1.0  0.32489  0.64678  0.04122  1.0000
  C   C712      1.0  0.11165  0.51206  0.28096  1.0000
  C   C713      1.0  0.10546  0.51634  0.26102  1.0000
  H   H572      1.0  0.20321  0.70879  0.42306  1.0000
  H   H573      1.0  0.11528  0.52440  0.29043  1.0000
  C   C714      1.0  0.21470  0.51519  0.18906  1.0000
  C   C715      1.0  0.33625  0.68845  0.10098  1.0000
  C   C716      1.0  0.32298  0.67871  0.08849  1.0000
  C   C717      1.0  0.31042  0.66309  0.09643  1.0000
  C   C718      1.0  0.31046  0.65731  0.11716  1.0000
  C   C719      1.0  0.32385  0.66689  0.12966  1.0000
  C   C720      1.0  0.33685  0.68216  0.12160  1.0000
  H   H574      1.0  0.32219  0.68348  0.07259  1.0000
  H   H575      1.0  0.30044  0.65567  0.08664  1.0000
  H   H576      1.0  0.32418  0.66250  0.14571  1.0000
  H   H577      1.0  0.34702  0.68930  0.13145  1.0000
  H   H578      1.0  0.23084  0.56820  0.26419  1.0000
  H   H579      1.0  0.18024  0.61311  0.29395  1.0000
  H   H580      1.0  0.17194  0.53589  0.21286  1.0000
  H   H581      1.0  0.12558  0.54589  0.20791  1.0000
  H   H582      1.0  0.19178  0.55238  0.11801  1.0000
  C   C721      1.0  0.13042  0.53613  0.19549  1.0000
  C   C722      1.0  0.47632  0.74470  0.09219  1.0000
  C   C723      1.0  0.03969  0.66662  0.19953  1.0000
  H   H583      1.0  0.38835  0.67404  0.07292  1.0000
  C   C724      1.0  0.28952  0.71200  0.13499  1.0000
  H   H584      1.0  0.00671  0.67115  0.26154  1.0000
  H   H585      1.0  0.15168  0.65791  0.23857  1.0000
  H   H586      1.0  0.26810  0.59634  0.30647  1.0000
  H   H587      1.0  0.14666  0.50162  0.15056  1.0000
  C   C725      1.0  0.30963  0.65192  0.00827  1.0000
  C   C726      1.0  0.00237  0.73624  0.29905  1.0000
  H   H588      1.0  0.17059  0.52748  0.10191  1.0000
  H   H589      1.0  0.26240  0.65536  0.04756  1.0000
  S   S119      1.0  0.39081  0.73802  0.12779  1.0000
  C   C727      1.0  0.02951  0.57109  0.31855  1.0000
  C   C728      1.0  0.02904  0.53883  0.24162  1.0000
  C   C729      1.0  0.04139  0.70222  0.29925  1.0000
  H   H590      1.0  0.43669  0.72361  0.19272  1.0000
  C   C730      1.0  0.21147  0.54062  0.01440  1.0000
  C   C731      1.0  0.17315  0.74316  0.48412  1.0000
  C   C732      1.0  1.00000  0.73436  0.39049  1.0000
  C   C733      1.0  0.14200  0.51094  0.16325  1.0000
  H   H591      1.0  0.01333  0.55369  0.19419  1.0000
  H   H592      1.0  0.48945  0.68578  0.99823  1.0000
  H   H593      1.0  0.20470  0.69950  0.16836  1.0000
  H   H594      1.0  0.24598  0.62794  0.30410  1.0000
  H   H595      1.0  0.43026  0.70780  0.01871  1.0000
  H   H596      1.0  0.22157  0.72110  0.14166  1.0000
  H   H597      1.0  0.14645  0.55437  0.23658  1.0000
  H   H598      1.0  0.07824  0.72071  0.30175  1.0000
  H   H599      1.0  0.38351  0.66816  0.99814  1.0000
  P   P23       1.0  0.03639  0.71970  0.31978  1.0000
  C   C734      1.0  0.01870  0.74339  0.39348  1.0000
  H   H600      1.0  0.03763  0.59341  0.29504  1.0000
  C   C735      1.0  0.02077  0.53825  0.30678  1.0000
  C   C736      1.0  0.28987  0.73465  0.10492  1.0000
  C   C737      1.0  0.02190  0.68424  0.37072  1.0000
  H   H601      1.0  0.28736  0.70380  0.07895  1.0000
  C   C738      1.0  0.22551  0.73514  0.08932  1.0000
  H   H602      1.0  0.12462  0.70899  0.49548  1.0000
  C   C739      1.0  0.20112  0.53054  0.22673  1.0000
  H   H603      1.0  0.49486  0.71972  0.05255  1.0000
  C   C740      1.0  0.05033  0.67529  0.26748  1.0000
  H   H604      1.0  0.04029  0.72078  0.42983  1.0000
  C   C741      1.0  0.27329  0.53536  0.15513  1.0000
  C   C742      1.0  0.05775  0.69140  0.37189  1.0000
  C   C743      1.0  0.14253  0.53213  0.16048  1.0000
  H   H605      1.0  0.41206  0.73106  0.30154  1.0000
  C   C744      1.0  0.40478  0.66823  0.04436  1.0000
  C   C745      1.0  0.05003  0.54186  0.23845  1.0000
  H   H606      1.0  0.29901  0.69318  0.01573  1.0000
  C   C746      1.0  0.15852  0.64860  0.25070  1.0000
  H   H607      1.0  0.02012  0.54608  0.33842  1.0000
  H   H608      1.0  0.31104  0.62441  0.06165  1.0000
  C   C747      1.0  0.29627  0.52004  0.05252  1.0000
  C   C748      1.0  0.03774  0.70551  0.34389  1.0000
  C   C749      1.0  0.01151  0.65552  0.22168  1.0000
  H   H609      1.0  0.04809  0.65135  0.29065  1.0000
  C   C750      1.0  0.32909  0.70038  0.02507  1.0000
  C   C751      1.0  0.03320  0.57790  0.29835  1.0000
  C   C752      1.0  0.48091  0.71691  0.04495  1.0000
  C   C753      1.0  0.17468  0.62324  0.28179  1.0000
  H   H610      1.0  0.04523  0.72600  0.27580  1.0000
  Fe  Fe59      1.0  0.10586  0.73779  0.42448  1.0000
  C   C754      1.0  0.27956  0.53309  0.04775  1.0000
  C   C755      1.0  0.15201  0.65137  0.27100  1.0000
  H   H611      1.0  0.26054  0.56658  0.28638  1.0000
  C   C756      1.0  0.16003  0.63865  0.28653  1.0000
  C   C757      1.0  0.01155  0.73283  0.31795  1.0000
  H   H612      1.0  0.05254  0.70214  0.24787  1.0000
  H   H613      1.0  0.06997  0.71010  0.34731  1.0000
  C   C758      1.0  0.00961  0.68895  0.20490  1.0000
  C   C759      1.0  0.15786  0.55705  0.24754  1.0000
  C   C760      1.0  0.15876  0.54498  0.26551  1.0000
  C   C761      1.0  0.17254  0.54924  0.28031  1.0000
  C   C762      1.0  0.18548  0.56555  0.27711  1.0000
  C   C763      1.0  0.18502  0.57742  0.25882  1.0000
  C   C764      1.0  0.17087  0.57325  0.24424  1.0000
  P   P24       1.0  0.19964  0.60000  0.25545  1.0000
  C   C765      1.0  0.18168  0.62069  0.26147  1.0000
  C   C766      1.0  0.22099  0.59886  0.27204  1.0000
  C   C767      1.0  0.23385  0.58121  0.27307  1.0000
  C   C768      1.0  0.25072  0.58028  0.28554  1.0000
  C   C769      1.0  0.25501  0.59706  0.29683  1.0000
  C   C770      1.0  0.24253  0.61484  0.29552  1.0000
  C   C771      1.0  0.22566  0.61583  0.28305  1.0000
  C   C772      1.0  0.17321  0.63325  0.24590  1.0000
  C   C773      1.0  0.21106  0.60288  0.23000  1.0000
  C   C774      1.0  0.21303  0.58639  0.21700  1.0000
  C   C775      1.0  0.22259  0.58867  0.19764  1.0000
  C   C776      1.0  0.23040  0.60735  0.19114  1.0000
  C   C777      1.0  0.22893  0.62373  0.20415  1.0000
  C   C778      1.0  0.21939  0.62149  0.22356  1.0000
  C   C779      1.0  0.18897  0.73130  0.40286  1.0000
  H   H614      1.0  0.24203  0.54106  0.16472  1.0000
  H   H615      1.0  0.19530  0.56921  0.28920  1.0000
  H   H616      1.0  0.16930  0.58311  0.23073  1.0000
  C   C780      1.0  0.47441  0.73388  0.11089  1.0000
  H   H617      1.0  0.22208  0.50084  0.10085  1.0000
  H   H618      1.0  0.35493  0.67839  0.05759  1.0000
  C   C781      1.0  0.18095  0.50215  0.12129  1.0000
  H   H619      1.0  0.21644  0.62990  0.28194  1.0000
  H   H620      1.0  0.17732  0.63084  0.22999  1.0000
  H   H621      1.0  0.20721  0.57179  0.22166  1.0000
  H   H622      1.0  0.22357  0.57606  0.18741  1.0000
  H   H623      1.0  0.23743  0.60911  0.17593  1.0000
  H   H624      1.0  0.23521  0.63814  0.19917  1.0000
  H   H625      1.0  0.21846  0.63427  0.23353  1.0000
  H   H626      1.0  0.00928  0.73006  0.28530  1.0000
  C   C782      1.0  0.19441  0.52265  0.19193  1.0000
  H   H627      1.0  0.05471  0.66361  0.19238  1.0000
  H   H628      1.0  0.35934  0.73841  0.00325  1.0000
  C   C783      1.0  0.05638  0.70311  0.35371  1.0000
  C   C784      1.0  0.00105  0.67436  0.21856  1.0000
  H   H629      1.0  0.28148  0.72333  0.03085  1.0000
  C   C785      1.0  0.44461  0.71017  0.02566  1.0000
  C   C786      1.0  0.03086  0.65175  0.21243  1.0000
  C   C787      1.0  0.11602  0.72338  0.49652  1.0000
  C   C788      1.0  0.36628  0.67294  0.02673  1.0000
  H   H630      1.0  0.03133  0.58127  0.33089  1.0000
  H   H631      1.0  0.14039  0.66303  0.27465  1.0000
  C   C789      1.0  0.02833  0.72429  0.48832  1.0000
  C   C790      1.0  0.24996  0.57992  0.00454  1.0000
  H   H632      1.0  0.23188  0.52383  0.23619  1.0000
  H   H633      1.0  0.04026  0.67463  0.31863  1.0000
  H   H634      1.0  0.13641  0.56115  0.17417  1.0000
  H   H635      1.0  0.27873  0.54854  0.05305  1.0000
  C   C791      1.0  0.23267  0.61935  0.00619  1.0000
  H   H636      1.0  0.00469  0.64373  0.23132  1.0000
  P   P25       1.0  0.22262  0.50160  0.16657  1.0000
  C   C792      1.0  0.31073  0.63200  0.04667  1.0000
  C   C793      1.0  0.03105  0.56483  0.28234  1.0000
  H   H637      1.0  0.15443  0.64042  0.30219  1.0000
  C   C794      1.0  0.24845  0.50891  0.15964  1.0000
  P   P26       1.0  0.34154  0.67740  0.01535  1.0000
  H   H638      1.0  0.33584  0.65031  0.05228  1.0000
  C   C795      1.0  0.26366  0.52600  0.03681  1.0000
  H   H639      1.0  0.20229  0.73130  0.45239  1.0000
  C   C796      1.0  0.21724  0.68486  0.00508  1.0000
  H   H640      1.0  0.21120  0.55659  0.01806  1.0000
  C   C797      1.0  0.05559  0.73865  0.31912  1.0000
  C   C798      1.0  0.30854  0.71882  0.14001  1.0000
  C   C799      1.0  0.40323  0.66670  0.02329  1.0000
  H   H641      1.0  0.41957  0.66645  0.05120  1.0000
  H   H642      1.0  0.03289  0.73429  0.39288  1.0000
  C   C800      1.0  0.31837  0.73327  0.12737  1.0000
  H   H643      1.0  0.44447  0.74022  0.28318  1.0000
  H   H644      1.0  0.23025  0.65867  0.06873  1.0000
  C   C801      1.0  0.04946  0.69631  0.26331  1.0000
  C   C802      1.0  0.38723  0.67231  0.05661  1.0000
  H   H645      1.0  0.41688  0.66387  0.01372  1.0000
  C   C803      1.0  0.25342  0.52947  0.16027  1.0000
  C   C804      1.0  0.05772  0.54923  0.21951  1.0000
  H   H646      1.0  0.25656  0.56456  0.00398  1.0000
  C   C805      1.0  0.36814  0.67462  0.04785  1.0000
  H   H647      1.0  0.28417  0.63315  0.00317  1.0000
  H   H648      1.0  0.05046  0.55946  0.18896  1.0000
  H   H649      1.0  0.00851  0.67699  0.37737  1.0000
  H   H650      1.0  0.22693  0.68342  0.09592  1.0000
  C   C806      1.0  0.01684  0.72569  0.45341  1.0000
  H   H651      1.0  0.05153  0.51130  0.29371  1.0000
  H   H652      1.0  0.33345  0.73801  0.13090  1.0000
  C   C807      1.0  0.02898  0.68516  0.19561  1.0000
  C   C808      1.0  0.19661  0.72415  0.42154  1.0000
  C   C809      1.0  0.28114  0.50097  0.09968  1.0000
  H   H653      1.0  0.33894  0.74270  0.05085  1.0000
  H   H654      1.0  0.35667  0.71303  0.03572  1.0000
  C   C810      1.0  0.22823  0.51589  0.20506  1.0000
  H   H655      1.0  0.21639  0.66336  0.17388  1.0000
  C   C811      1.0  0.07474  0.73490  0.30920  1.0000
  H   H656      1.0  0.14750  0.53886  0.14585  1.0000
  C   C812      1.0  0.30906  0.73496  0.04179  1.0000
  H   H657      1.0  0.24582  0.64903  0.15298  1.0000
  H   H658      1.0  0.23975  0.66710  0.02175  1.0000
  C   C813      1.0  0.02361  0.55030  0.20652  1.0000
  H   H659      1.0  0.28500  0.61576  0.03730  1.0000
  H   H660      1.0  0.99991  0.71830  0.38762  1.0000
  H   H661      1.0  0.43223  0.70290  0.05588  1.0000
  H   H662      1.0  0.00604  0.69731  0.34507  1.0000
  H   H663      1.0  0.49350  0.72437  0.01502  1.0000
  C   C814      1.0  0.23669  0.67582  0.00778  1.0000
  H   H664      1.0  0.25065  0.53611  0.03336  1.0000
  C   C815      1.0  0.32452  0.65691  0.02195  1.0000
  H   H665      1.0  0.00892  0.73929  0.35006  1.0000
  H   H666      1.0  0.22382  0.72191  0.08035  1.0000
  P   P27       1.0  0.01987  0.52849  0.26599  1.0000
  H   H667      1.0  0.28252  0.70045  0.14480  1.0000
  C   C816      1.0  0.02052  0.69587  0.35245  1.0000
  C   C817      1.0  0.02327  0.55126  0.32277  1.0000
  C   C818      1.0  0.41170  0.74110  0.28804  1.0000
  C   C819      1.0  0.00196  0.74126  0.33541  1.0000
  H   H668      1.0  0.16584  0.73719  0.47121  1.0000
  H   H669      1.0  0.26275  0.67038  0.12627  1.0000
  C   C820      1.0  0.24254  0.66882  0.07078  1.0000
  H   H670      1.0  0.04162  0.67302  0.39459  1.0000
  C   C821      1.0  0.04247  0.68103  0.30328  1.0000
  C   C822      1.0  0.46191  0.71609  0.01387  1.0000
  H   H671      1.0  0.00435  0.65741  0.29702  1.0000
  C   C823      1.0  0.48004  0.71958  0.02372  1.0000
  C   C824      1.0  0.04519  0.70974  0.27914  1.0000
  C   C825      1.0  0.01587  0.54291  0.22546  1.0000
  H   H672      1.0  0.18950  0.72147  0.38995  1.0000
  H   H673      1.0  0.06110  0.71877  0.49095  1.0000
  H   H674      1.0  0.06047  0.53853  0.25067  1.0000
  H   H675      1.0  0.03377  0.57059  0.26683  1.0000
  C   C826      1.0  0.13558  0.50215  0.18220  1.0000
  C   C827      1.0  0.26055  0.66711  0.05869  1.0000
  C   C828      1.0  0.27637  0.68012  0.06140  1.0000
  C   C829      1.0  0.27454  0.69445  0.07667  1.0000
  C   C830      1.0  0.25690  0.69555  0.08956  1.0000
  C   C831      1.0  0.24072  0.68291  0.08619  1.0000
  P   P28       1.0  0.25500  0.71204  0.11100  1.0000
  C   C832      1.0  0.29705  0.49984  0.04648  1.0000
  C   C833      1.0  0.24350  0.69734  0.13198  1.0000
  C   C834      1.0  0.22713  0.70548  0.14405  1.0000
  C   C835      1.0  0.21748  0.69326  0.15921  1.0000
  C   C836      1.0  0.22411  0.67291  0.16240  1.0000
  C   C837      1.0  0.24057  0.66481  0.15063  1.0000
  C   C838      1.0  0.25020  0.67697  0.13548  1.0000
  C   C839      1.0  0.38411  0.66907  0.01450  1.0000
  H   H676      1.0  0.14830  0.53274  0.26817  1.0000
  C   C840      1.0  0.19227  0.53650  0.12326  1.0000
  C   C841      1.0  0.04051  0.68204  0.38046  1.0000
  C   C842      1.0  0.20508  0.53010  0.13901  1.0000
  C   C843      1.0  0.27999  0.71992  0.11740  1.0000
  Fe  Fe60      1.0  0.42025  0.73933  0.10851  1.0000
  H   H677      1.0  0.07395  0.55163  0.21731  1.0000
  C   C844      1.0  0.20669  0.50536  0.02464  1.0000
  H   H678      1.0  0.30823  0.52548  0.06160  1.0000
  H   H679      1.0  0.18362  0.52206  0.17991  1.0000
  C   C845      1.0  0.46370  0.71075  0.05650  1.0000
  C   C846      1.0  0.05268  0.71883  0.45979  1.0000
  C   C847      1.0  0.23941  0.73469  0.10510  1.0000
  H   H680      1.0  0.27688  0.55128  0.15502  1.0000
  C   C848      1.0  0.04761  0.49974  0.28345  1.0000
  C   C849      1.0  0.13647  0.54472  0.17650  1.0000
  H   H681      1.0  0.05384  0.66480  0.25532  1.0000
  H   H682      1.0  0.29767  0.50100  0.09930  1.0000
  C   C850      1.0  0.30790  0.70388  0.02330  1.0000
  H   H683      1.0  0.20543  0.68336  0.01708  1.0000
  C   C851      1.0  0.33022  0.73195  0.04303  1.0000
  S   S120      1.0  0.45027  0.72594  0.12075  1.0000
  C   C852      1.0  0.19580  0.73686  0.43821  1.0000
  C   C853      1.0  0.29608  0.62713  0.03297  1.0000
  C   C854      1.0  0.18031  0.52251  0.11429  1.0000
  H   H684      1.0  0.46429  0.70876  0.07299  1.0000
  C   C855      1.0  0.13035  0.51496  0.19844  1.0000
  H   H685      1.0  0.07230  0.68953  0.37923  1.0000
  C   C856      1.0  0.20609  0.50960  0.14598  1.0000
  C   C857      1.0  0.04697  0.66768  0.28745  1.0000
  C   C858      1.0  0.34025  0.71487  0.03455  1.0000
  H   H686      1.0  0.09532  0.50321  0.23388  1.0000
  C   C859      1.0  0.18769  0.53038  0.21070  1.0000
  C   C860      1.0  0.49207  0.72929  0.12204  1.0000
  C   C861      1.0  0.04847  0.72027  0.48078  1.0000
  H   H687      1.0  0.20137  0.53048  0.04463  1.0000
  H   H688      1.0  0.22552  0.63445  0.00677  1.0000
  H   H689      1.0  0.21403  0.54133  0.14568  1.0000
  H   H690      1.0  0.03565  0.69648  0.18523  1.0000
  H   H691      1.0  0.42753  0.73856  0.15889  1.0000
  H   H692      1.0  0.49075  0.72085  0.13649  1.0000
  C   C862      1.0  0.44560  0.70741  0.04685  1.0000
  C   C863      1.0  0.29790  0.72098  0.03183  1.0000
  C   C864      1.0  0.21291  0.49943  0.00498  1.0000
  C   C865      1.0  0.22145  0.52359  0.22381  1.0000
  H   H693      1.0  0.06831  0.71595  0.45411  1.0000
  C   C866      1.0  0.04451  0.55356  0.20357  1.0000
  H   H694      1.0  0.31601  0.71241  0.15339  1.0000
  H   H695      1.0  0.29051  0.67831  0.05244  1.0000
  C   C867      1.0  0.10069  0.50005  0.24906  1.0000
  C   C868      1.0  0.23859  0.50078  0.10069  1.0000
  H   H696      1.0  0.99964  0.54050  0.22737  1.0000
  C   C869      1.0  0.42949  0.73876  0.19162  1.0000
  H   H697      1.0  0.42925  0.74279  0.22376  1.0000
  C   C870      1.0  0.03300  0.50384  0.26856  1.0000
  C   C871      1.0  0.26438  0.50581  0.03077  1.0000
  H   H698      1.0  0.24386  0.50986  0.20322  1.0000
  H   H699      1.0  0.00133  0.70317  0.20131  1.0000
  H   H700      1.0  0.00132  0.71143  0.24198  1.0000
  H   H701      1.0  0.25184  0.50048  0.02250  1.0000
  C   C872      1.0  0.28846  0.52082  0.14955  1.0000
  H   H702      1.0  0.30365  0.52554  0.14486  1.0000
  H   H703      1.0  0.10506  0.74560  0.30289  1.0000
  H   H704      1.0  0.28286  0.74093  0.09126  1.0000
  H   H705      1.0  0.37881  0.74485  0.28894  1.0000
  C   C873      1.0  0.30906  0.74115  0.10981  1.0000
  C   C874      1.0  0.42995  0.74628  0.27770  1.0000
  C   C875      1.0  0.28384  0.50031  0.14933  1.0000
  S   S121      1.0  0.39966  0.72571  0.91933  1.0000
  C   C876      1.0  0.18229  0.53681  0.93225  1.0000
  Fe  Fe61      1.0  0.37867  0.72324  0.89299  1.0000
  S   S122      1.0  0.36794  0.69108  0.88651  1.0000
  H   H706      1.0  0.30099  0.54923  0.94746  1.0000
  H   H707      1.0  0.00246  0.62647  0.79764  1.0000
  Fe  Fe62      1.0  0.26654  0.61531  0.89567  1.0000
  S   S123      1.0  0.23634  0.61763  0.91377  1.0000
  S   S124      1.0  0.28217  0.64625  0.89179  1.0000
  Fe  Fe63      1.0  0.26124  0.56923  0.88984  1.0000
  S   S125      1.0  0.23121  0.56919  0.90744  1.0000
  S   S126      1.0  0.27325  0.54002  0.87469  1.0000
  Fe  Fe64      1.0  0.22359  0.59843  0.88968  1.0000
  S   S127      1.0  0.19147  0.60550  0.87729  1.0000
  Fe  Fe65      1.0  0.24662  0.58823  0.92969  1.0000
  S   S128      1.0  0.24666  0.57709  0.96317  1.0000
  S   S129      1.0  0.25295  0.59771  0.87080  1.0000
  S   S130      1.0  0.27738  0.58675  0.91286  1.0000
  S   S131      1.0  0.08310  0.73369  0.59614  1.0000
  H   H708      1.0  0.22416  0.70487  0.95691  1.0000
  C   C877      1.0  0.24392  0.59013  0.98636  1.0000
  C   C878      1.0  0.25697  0.52590  0.93879  1.0000
  Fe  Fe66      1.0  0.11247  0.72528  0.61180  1.0000
  S   S132      1.0  0.11918  0.69221  0.62305  1.0000
  Fe  Fe67      1.0  0.09796  0.57622  0.74461  1.0000
  S   S133      1.0  0.09531  0.58157  0.77822  1.0000
  S   S134      1.0  0.08932  0.54462  0.73537  1.0000
  Fe  Fe68      1.0  0.10359  0.62230  0.73324  1.0000
  S   S135      1.0  0.10181  0.62961  0.76671  1.0000
  S   S136      1.0  0.10286  0.65197  0.71290  1.0000
  Fe  Fe69      1.0  0.12234  0.60161  0.77258  1.0000
  S   S137      1.0  0.15312  0.59779  0.78911  1.0000
  Fe  Fe70      1.0  0.07521  0.60882  0.76928  1.0000
  S   S138      1.0  0.04461  0.61747  0.78526  1.0000
  S   S139      1.0  0.12573  0.59521  0.73878  1.0000
  S   S140      1.0  0.07622  0.60260  0.73603  1.0000
  C   C879      1.0  0.02116  0.59527  0.76062  1.0000
  C   C880      1.0  0.02130  0.60889  0.77644  1.0000
  C   C881      1.0  0.29906  0.73284  0.97711  1.0000
  H   H709      1.0  0.03543  0.58967  0.75359  1.0000
  C   C882      1.0  0.34481  0.69843  0.97745  1.0000
  H   H710      1.0  0.19730  0.54140  0.95991  1.0000
  C   C883      1.0  0.10253  0.52057  0.73903  1.0000
  C   C884      1.0  0.12393  0.51840  0.73829  1.0000
  P   P29       1.0  0.00581  0.50518  0.74252  1.0000
  H   H711      1.0  0.13295  0.53178  0.73653  1.0000
  C   C885      1.0  0.11369  0.68106  0.64789  1.0000
  C   C886      1.0  0.10520  0.69251  0.66392  1.0000
  C   C887      1.0  0.10198  0.68332  0.68357  1.0000
  C   C888      1.0  0.10687  0.66246  0.68751  1.0000
  C   C889      1.0  0.11493  0.65089  0.67135  1.0000
  C   C890      1.0  0.11841  0.66017  0.65173  1.0000
  H   H712      1.0  0.10149  0.70854  0.66123  1.0000
  H   H713      1.0  0.09582  0.69252  0.69588  1.0000
  H   H714      1.0  0.11881  0.63487  0.67403  1.0000
  H   H715      1.0  0.12497  0.65111  0.63949  1.0000
  C   C891      1.0  0.25207  0.64206  0.82616  1.0000
  C   C892      1.0  0.40340  0.70543  0.97158  1.0000
  C   C893      1.0  0.29911  0.62930  0.78399  1.0000
  H   H716      1.0  0.13441  0.71049  0.69092  1.0000
  C   C894      1.0  0.18103  0.60275  0.85272  1.0000
  C   C895      1.0  0.16023  0.60825  0.84992  1.0000
  C   C896      1.0  0.15135  0.60674  0.83074  1.0000
  C   C897      1.0  0.16324  0.59998  0.81389  1.0000
  C   C898      1.0  0.18404  0.59448  0.81671  1.0000
  C   C899      1.0  0.19285  0.59572  0.83595  1.0000
  H   H717      1.0  0.15086  0.61377  0.86268  1.0000
  H   H718      1.0  0.13535  0.61099  0.82896  1.0000
  H   H719      1.0  0.19345  0.58924  0.80385  1.0000
  H   H720      1.0  0.20887  0.59161  0.83771  1.0000
  C   C900      1.0  0.27423  0.51548  0.88722  1.0000
  C   C901      1.0  0.29243  0.50834  0.89603  1.0000
  C   C902      1.0  0.42645  0.67809  0.95997  1.0000
  H   H721      1.0  0.30496  0.51844  0.89677  1.0000
  H   H722      1.0  0.24447  0.50695  0.87845  1.0000
  H   H723      1.0  0.01025  0.56767  0.70392  1.0000
  H   H724      1.0  0.31601  0.59632  0.87104  1.0000
  C   C903      1.0  0.09111  0.50294  0.74115  1.0000
  C   C904      1.0  0.28739  0.54069  0.95066  1.0000
  H   H725      1.0  0.23027  0.61781  0.97344  1.0000
  C   C905      1.0  0.34391  0.67888  0.88928  1.0000
  C   C906      1.0  0.34368  0.65754  0.88781  1.0000
  C   C907      1.0  0.32512  0.64721  0.88914  1.0000
  C   C908      1.0  0.30634  0.65812  0.89144  1.0000
  C   C909      1.0  0.30658  0.67942  0.89313  1.0000
  C   C910      1.0  0.32518  0.68970  0.89241  1.0000
  H   H726      1.0  0.35800  0.64893  0.88547  1.0000
  H   H727      1.0  0.32536  0.63086  0.88795  1.0000
  H   H728      1.0  0.29219  0.68807  0.89472  1.0000
  H   H729      1.0  0.32498  0.70607  0.89353  1.0000
  H   H730      1.0  0.15157  0.70261  0.65761  1.0000
  C   C911      1.0  0.03051  0.68186  0.70443  1.0000
  H   H731      1.0  0.44978  0.74622  0.81790  1.0000
  P   P30       1.0  0.22782  0.50694  0.96455  1.0000
  H   H732      1.0  0.04194  0.71066  0.61072  1.0000
  H   H733      1.0  0.04466  0.62182  0.70057  1.0000
  C   C912      1.0  0.34874  0.69967  0.95631  1.0000
  C   C913      1.0  0.04491  0.70081  0.62402  1.0000
  H   H734      1.0  0.16970  0.52846  0.90412  1.0000
  C   C914      1.0  0.41985  0.71514  0.97922  1.0000
  P   P31       1.0  0.02352  0.72962  0.51500  1.0000
  H   H735      1.0  0.17452  0.56254  0.87444  1.0000
  C   C915      1.0  0.27614  0.65920  0.78188  1.0000
  H   H736      1.0  0.00268  0.57721  0.74254  1.0000
  H   H737      1.0  0.23713  0.73266  0.89797  1.0000
  H   H738      1.0  0.04281  0.58469  0.70792  1.0000
  C   C916      1.0  0.32288  0.67883  0.83811  1.0000
  C   C917      1.0  0.28598  0.71682  0.97511  1.0000
  C   C918      1.0  0.28505  0.64302  0.79352  1.0000
  H   H739      1.0  0.07312  0.65833  0.63831  1.0000
  H   H740      1.0  0.08751  0.70916  0.54909  1.0000
  H   H741      1.0  0.28111  0.70950  0.84950  1.0000
  H   H742      1.0  0.30852  0.67508  0.93871  1.0000
  C   C919      1.0  0.22798  0.69687  0.97107  1.0000
  C   C920      1.0  0.30050  0.61583  0.84891  1.0000
  C   C921      1.0  0.29001  0.69629  0.84427  1.0000
  C   C922      1.0  0.28924  0.57979  0.83203  1.0000
  C   C923      1.0  0.30705  0.59697  0.85749  1.0000
  C   C924      1.0  0.27490  0.53639  0.93478  1.0000
  C   C925      1.0  0.22345  0.64470  0.85090  1.0000
  H   H743      1.0  0.19349  0.64222  0.83911  1.0000
  C   C926      1.0  0.30151  0.57896  0.84900  1.0000
  C   C927      1.0  0.15903  0.73373  0.65037  1.0000
  H   H744      1.0  0.31902  0.70875  0.85024  1.0000
  H   H745      1.0  0.24750  0.52287  0.92621  1.0000
  C   C928      1.0  0.01160  0.67678  0.71374  1.0000
  H   H746      1.0  0.26569  0.67026  0.78908  1.0000
  H   H747      1.0  0.05810  0.66697  0.67183  1.0000
  C   C929      1.0  0.29162  0.66219  0.83106  1.0000
  C   C930      1.0  0.05810  0.68362  0.62228  1.0000
  C   C931      1.0  0.05448  0.49830  0.70169  1.0000
  C   C932      1.0  0.31136  0.69593  0.84461  1.0000
  C   C933      1.0  0.00776  0.71618  0.68277  1.0000
  C   C934      1.0  0.28015  0.67957  0.83737  1.0000
  H   H748      1.0  0.01157  0.66636  0.62581  1.0000
  C   C935      1.0  0.23825  0.63899  0.81083  1.0000
  C   C936      1.0  0.21718  0.63935  0.81547  1.0000
  C   C937      1.0  0.28062  0.66118  0.76088  1.0000
  C   C938      1.0  0.35318  0.68205  0.94552  1.0000
  H   H749      1.0  0.27276  0.59908  0.81055  1.0000
  C   C939      1.0  0.02865  0.65168  0.73596  1.0000
  C   C940      1.0  0.03635  0.70595  0.64311  1.0000
  C   C941      1.0  0.20954  0.51417  0.94530  1.0000
  H   H750      1.0  0.02799  0.64005  0.74811  1.0000
  C   C942      1.0  0.17765  0.74211  0.52061  1.0000
  C   C943      1.0  0.00453  0.73625  0.68912  1.0000
  C   C944      1.0  0.49233  0.71748  0.95585  1.0000
  H   H751      1.0  0.21766  0.64595  0.86654  1.0000
  C   C945      1.0  0.22813  0.54961  0.83532  1.0000
  H   H752      1.0  0.11812  0.72443  0.52936  1.0000
  H   H753      1.0  0.27892  0.54158  0.91935  1.0000
  H   H754      1.0  0.32227  0.64911  0.82586  1.0000
  H   H755      1.0  0.24359  0.63594  0.79538  1.0000
  H   H756      1.0  0.30627  0.56434  0.85590  1.0000
  H   H757      1.0  0.16005  0.72095  0.50523  1.0000
  C   C946      1.0  0.18364  0.52580  0.74796  1.0000
  H   H758      1.0  0.29774  0.64874  0.73513  1.0000
  H   H759      1.0  0.31435  0.62064  0.75567  1.0000
  C   C947      1.0  0.25129  0.51984  0.95890  1.0000
  H   H760      1.0  0.17230  0.55032  0.93375  1.0000
  C   C948      1.0  0.34523  0.67939  0.98791  1.0000
  C   C949      1.0  0.01070  0.66163  0.72933  1.0000
  S   S141      1.0  0.13155  0.74213  0.58746  1.0000
  H   H761      1.0  0.20651  0.63675  0.80371  1.0000
  P   P32       1.0  0.27938  0.64102  0.82066  1.0000
  C   C950      1.0  0.21468  0.54853  0.81944  1.0000
  C   C951      1.0  0.19483  0.54194  0.82352  1.0000
  C   C952      1.0  0.18828  0.53641  0.84359  1.0000
  P   P33       1.0  0.16266  0.52804  0.84968  1.0000
  C   C953      1.0  0.14849  0.54551  0.86629  1.0000
  C   C954      1.0  0.14757  0.52793  0.82728  1.0000
  C   C955      1.0  0.13733  0.51059  0.82218  1.0000
  C   C956      1.0  0.12464  0.51155  0.80545  1.0000
  C   C957      1.0  0.12251  0.52950  0.79348  1.0000
  C   C958      1.0  0.13265  0.54668  0.79854  1.0000
  C   C959      1.0  0.14464  0.54609  0.81564  1.0000
  C   C960      1.0  0.15827  0.56061  0.87638  1.0000
  C   C961      1.0  0.14692  0.57413  0.88881  1.0000
  C   C962      1.0  0.12568  0.57305  0.89097  1.0000
  C   C963      1.0  0.11576  0.55837  0.88072  1.0000
  C   C964      1.0  0.12707  0.54471  0.86840  1.0000
  C   C965      1.0  0.35385  0.66308  0.95584  1.0000
  H   H762      1.0  0.21458  0.50371  0.80219  1.0000
  H   H763      1.0  0.23214  0.54462  0.86755  1.0000
  H   H764      1.0  0.21945  0.55322  0.80401  1.0000
  C   C966      1.0  0.43978  0.70636  0.97729  1.0000
  H   H765      1.0  0.11283  0.53018  0.78041  1.0000
  H   H766      1.0  0.13129  0.56056  0.78920  1.0000
  H   H767      1.0  0.15175  0.55985  0.81971  1.0000
  H   H768      1.0  0.06615  0.73058  0.52610  1.0000
  C   C967      1.0  0.11235  0.73208  0.51574  1.0000
  H   H769      1.0  0.11691  0.58387  0.90024  1.0000
  H   H770      1.0  0.09923  0.55782  0.88201  1.0000
  H   H771      1.0  0.11902  0.53372  0.86025  1.0000
  C   C968      1.0  0.03401  0.53127  0.75765  1.0000
  C   C969      1.0  0.19654  0.53165  0.94713  1.0000
  C   C970      1.0  0.05975  0.71730  0.53368  1.0000
  C   C971      1.0  0.40672  0.68700  0.96183  1.0000
  C   C972      1.0  0.01449  0.52319  0.76012  1.0000
  H   H772      1.0  0.18478  0.54145  0.81094  1.0000
  C   C973      1.0  0.20980  0.64239  0.83545  1.0000
  C   C974      1.0  0.18095  0.52462  0.91543  1.0000
  H   H773      1.0  0.20014  0.50914  0.72443  1.0000
  H   H774      1.0  0.31813  0.73713  0.92820  1.0000
  C   C975      1.0  0.04090  0.69390  0.66068  1.0000
  C   C976      1.0  0.17606  0.52529  0.76818  1.0000
  H   H775      1.0  0.30439  0.62952  0.85615  1.0000
  H   H776      1.0  0.28448  0.56576  0.82592  1.0000
  C   C977      1.0  0.25186  0.67732  0.99221  1.0000
  C   C978      1.0  0.44295  0.68769  0.96770  1.0000
  H   H777      1.0  0.13672  0.50517  0.87986  1.0000
  H   H778      1.0  0.39408  0.67981  0.95538  1.0000
  H   H779      1.0  0.16755  0.53846  0.77404  1.0000
  H   H780      1.0  0.01417  0.64198  0.68927  1.0000
  H   H781      1.0  0.33943  0.67848  0.83875  1.0000
  C   C979      1.0  0.02953  0.59340  0.70242  1.0000
  C   C980      1.0  0.28265  0.59865  0.82341  1.0000
  C   C981      1.0  0.24451  0.64458  0.84629  1.0000
  C   C982      1.0  0.14105  0.72262  0.68151  1.0000
  C   C983      1.0  0.31309  0.66214  0.83109  1.0000
  C   C984      1.0  0.34973  0.66170  0.97693  1.0000
  C   C985      1.0  0.20222  0.53680  0.85924  1.0000
  H   H782      1.0  0.05514  0.55199  0.76883  1.0000
  H   H783      1.0  0.42900  0.66393  0.95214  1.0000
  C   C986      1.0  0.21830  0.51413  0.98976  1.0000
  H   H784      1.0  0.01585  0.69132  0.53934  1.0000
  C   C987      1.0  0.03147  0.69535  0.54104  1.0000
  H   H785      1.0  0.25494  0.64606  0.85848  1.0000
  H   H786      1.0  0.24339  0.55509  0.83237  1.0000
  C   C988      1.0  0.30358  0.63133  0.76298  1.0000
  H   H787      1.0  0.18086  0.53929  0.73824  1.0000
  H   H788      1.0  0.15462  0.58591  0.89624  1.0000
  C   C989      1.0  0.29427  0.64719  0.75141  1.0000
  C   C990      1.0  0.05384  0.67639  0.65870  1.0000
  H   H789      1.0  0.06550  0.68014  0.60767  1.0000
  C   C991      1.0  0.06240  0.67132  0.63957  1.0000
  H   H790      1.0  0.27354  0.67359  0.75194  1.0000
  H   H791      1.0  0.30682  0.61715  0.79272  1.0000
  C   C992      1.0  0.26403  0.52407  0.97477  1.0000
  H   H792      1.0  0.03160  0.52161  0.70895  1.0000
  H   H793      1.0  0.00765  0.64077  0.65388  1.0000
  C   C993      1.0  0.01122  0.58379  0.70005  1.0000
  C   C994      1.0  0.05298  0.72172  0.71515  1.0000
  C   C995      1.0  0.05116  0.71917  0.69415  1.0000
  C   C996      1.0  0.47753  0.72719  0.89507  1.0000
  C   C997      1.0  0.04752  0.65692  0.72714  1.0000
  C   C998      1.0  0.04848  0.67196  0.71152  1.0000
  H   H794      1.0  0.26365  0.68034  0.83695  1.0000
  P   P34       1.0  0.46105  0.71950  0.98637  1.0000
  C   C999      1.0  0.04017  0.54561  0.77106  1.0000
  C   C1000     1.0  0.00251  0.61589  0.78542  1.0000
  C   C1001     1.0  0.28852  0.61683  0.83160  1.0000
  H   H795      1.0  0.06149  0.64945  0.73259  1.0000
  H   H796      1.0  0.06336  0.67614  0.70534  1.0000
  C   C1002     1.0  0.24030  0.71711  0.90342  1.0000
  C   C1003     1.0  0.23486  0.70090  0.89190  1.0000
  C   C1004     1.0  0.23880  0.68087  0.89902  1.0000
  C   C1005     1.0  0.24830  0.67700  0.91756  1.0000
  C   C1006     1.0  0.25434  0.69314  0.92896  1.0000
  C   C1007     1.0  0.24989  0.71327  0.92195  1.0000
  P   P35       1.0  0.26667  0.68813  0.95291  1.0000
  C   C1008     1.0  0.20871  0.50255  0.92781  1.0000
  C   C1009     1.0  0.28018  0.66354  0.95188  1.0000
  C   C1010     1.0  0.30039  0.66178  0.94390  1.0000
  C   C1011     1.0  0.31005  0.64256  0.94152  1.0000
  C   C1012     1.0  0.29979  0.62498  0.94737  1.0000
  C   C1013     1.0  0.27978  0.62657  0.95548  1.0000
  C   C1014     1.0  0.26992  0.64572  0.95759  1.0000
  C   C1015     1.0  0.13927  0.74274  0.68775  1.0000
  C   C1016     1.0  0.01327  0.62569  0.69174  1.0000
  C   C1017     1.0  0.30908  0.73148  0.94127  1.0000
  H   H797      1.0  0.03755  0.66981  0.56190  1.0000
  C   C1018     1.0  0.28441  0.70798  0.95612  1.0000
  C   C1019     1.0  0.29616  0.71540  0.93924  1.0000
  H   H798      1.0  0.11626  0.49850  0.80168  1.0000
  H   H799      1.0  0.45814  0.68067  0.96579  1.0000
  C   C1020     1.0  0.06441  0.72928  0.68016  1.0000
  H   H800      1.0  0.29135  0.53828  0.98309  1.0000
  H   H801      1.0  0.38814  0.71251  0.97279  1.0000
  H   H802      1.0  0.22756  0.70381  0.87748  1.0000
  H   H803      1.0  0.23478  0.66822  0.89013  1.0000
  H   H804      1.0  0.25125  0.66133  0.92263  1.0000
  H   H805      1.0  0.25389  0.72602  0.93073  1.0000
  H   H806      1.0  0.30866  0.65966  0.99343  1.0000
  C   C1021     1.0  0.03938  0.71265  0.53079  1.0000
  H   H807      1.0  0.30711  0.61009  0.94507  1.0000
  H   H808      1.0  0.27168  0.61289  0.95949  1.0000
  H   H809      1.0  0.25407  0.64650  0.96303  1.0000
  C   C1022     1.0  0.02689  0.55217  0.78692  1.0000
  C   C1023     1.0  0.19431  0.50763  0.91309  1.0000
  C   C1024     1.0  0.15083  0.71812  0.66277  1.0000
  H   H810      1.0  0.29522  0.70889  0.92443  1.0000
  H   H811      1.0  0.41702  0.72961  0.98645  1.0000
  H   H812      1.0  0.46464  0.71746  0.89491  1.0000
  C   C1025     1.0  0.21772  0.53474  0.99478  1.0000
  H   H813      1.0  0.07459  0.50436  0.74183  1.0000
  H   H814      1.0  0.34881  0.71438  0.94826  1.0000
  P   P36       1.0  0.03222  0.70265  0.68553  1.0000
  C   C1026     1.0  0.03055  0.61434  0.69828  1.0000
  C   C1027     1.0  0.48472  0.70942  0.97468  1.0000
  C   C1028     1.0  0.22186  0.54368  0.85518  1.0000
  H   H815      1.0  0.16602  0.73035  0.63554  1.0000
  C   C1029     1.0  0.19450  0.50882  0.74021  1.0000
  H   H816      1.0  0.35777  0.64948  0.94747  1.0000
  H   H817      1.0  0.07014  0.73470  0.73833  1.0000
  H   H818      1.0  0.04277  0.71430  0.72624  1.0000
  C   C1030     1.0  0.24752  0.68761  0.97359  1.0000
  H   H819      1.0  0.48452  0.73014  0.94800  1.0000
  C   C1031     1.0  0.07192  0.70513  0.54672  1.0000
  C   C1032     1.0  0.07991  0.74084  0.68714  1.0000
  C   C1033     1.0  0.28197  0.53450  0.97068  1.0000
  C   C1034     1.0  0.16957  0.73402  0.50347  1.0000
  H   H820      1.0  0.24043  0.50751  0.82790  1.0000
  H   H821      1.0  0.02699  0.71991  0.64422  1.0000
  H   H822      1.0  0.19358  0.49837  0.89986  1.0000
  C   C1035     1.0  0.16499  0.50272  0.86149  1.0000
  H   H823      1.0  0.32517  0.64126  0.93428  1.0000
  H   H824      1.0  0.17442  0.73527  0.53566  1.0000
  H   H825      1.0  0.35657  0.68320  0.92922  1.0000
  H   H826      1.0  0.19777  0.53225  0.87474  1.0000
  H   H827      1.0  0.35046  0.64687  0.98476  1.0000
  H   H828      1.0  0.06320  0.72800  0.66384  1.0000
  H   H829      1.0  0.03147  0.56382  0.79684  1.0000
  H   H830      1.0  0.27698  0.71160  0.98832  1.0000
  C   C1036     1.0  0.04375  0.68308  0.55399  1.0000
  C   C1037     1.0  0.06395  0.68801  0.55687  1.0000
  H   H831      1.0  0.34184  0.71238  0.98552  1.0000
  H   H832      1.0  0.07346  0.67862  0.56699  1.0000
  H   H833      1.0  0.04457  0.52683  0.74538  1.0000
  C   C1038     1.0  0.17912  0.50772  0.78062  1.0000
  C   C1039     1.0  0.06847  0.73332  0.72208  1.0000
  H   H834      1.0  0.17292  0.50741  0.79616  1.0000
  C   C1040     1.0  0.08206  0.74271  0.70810  1.0000
  C   C1041     1.0  0.49529  0.69269  0.98402  1.0000
  H   H835      1.0  0.30033  0.73972  0.99171  1.0000
  C   C1042     1.0  0.25842  0.50183  0.88569  1.0000
  H   H836      1.0  0.26678  0.67001  0.99449  1.0000
  C   C1043     1.0  0.00746  0.54424  0.78951  1.0000
  H   H837      1.0  0.44805  0.74079  0.94860  1.0000
  C   C1044     1.0  0.00252  0.58828  0.75429  1.0000
  C   C1045     1.0  0.31056  0.74019  0.96019  1.0000
  H   H838      1.0  0.25990  0.51971  0.99036  1.0000
  C   C1046     1.0  0.00134  0.52967  0.77630  1.0000
  H   H839      1.0  0.22248  0.54634  0.98359  1.0000
  C   C1047     1.0  0.49770  0.71879  0.89324  1.0000
  H   H840      1.0  0.01662  0.74403  0.69594  1.0000
  H   H841      1.0  0.19777  0.70238  0.98464  1.0000
  S   S142      1.0  0.39798  0.74407  0.87205  1.0000
  C   C1048     1.0  0.21292  0.69550  0.98679  1.0000
  C   C1049     1.0  0.23535  0.60995  0.98725  1.0000
  H   H842      1.0  0.06234  0.50776  0.69026  1.0000
  C   C1050     1.0  0.03711  0.50612  0.71238  1.0000
  C   C1051     1.0  0.45679  0.74619  0.97946  1.0000
  C   C1052     1.0  0.13366  0.49876  0.73867  1.0000
  H   H843      1.0  0.15017  0.49719  0.73731  1.0000
  H   H844      1.0  0.13092  0.74596  0.70190  1.0000
  H   H845      1.0  0.29261  0.49695  0.99568  1.0000
  S   S143      1.0  0.41657  0.77274  0.10060  1.0000
  H   H846      1.0  0.46471  0.84872  0.23515  1.0000
  C   C1053     1.0  0.26722  0.96217  0.44152  1.0000
  H   H847      1.0  0.20899  0.92390  0.34951  1.0000
  Fe  Fe71      1.0  0.38651  0.77139  0.11838  1.0000
  S   S144      1.0  0.37413  0.79399  0.14252  1.0000
  Fe  Fe72      1.0  0.40261  0.92132  0.24675  1.0000
  S   S145      1.0  0.40588  0.90232  0.27594  1.0000
  S   S146      1.0  0.40274  0.95439  0.25658  1.0000
  Fe  Fe73      1.0  0.40416  0.88211  0.22089  1.0000
  S   S147      1.0  0.40727  0.86189  0.24906  1.0000
  S   S148      1.0  0.41050  0.86781  0.18940  1.0000
  Fe  Fe74      1.0  0.38271  0.88250  0.26379  1.0000
  S   S149      1.0  0.35482  0.86996  0.28182  1.0000
  Fe  Fe75      1.0  0.43003  0.88413  0.25841  1.0000
  S   S150      1.0  0.46108  0.87359  0.27053  1.0000
  S   S151      1.0  0.37826  0.90187  0.23496  1.0000
  S   S152      1.0  0.42796  0.90379  0.22996  1.0000
  C   C1054     1.0  0.36988  0.78950  0.21783  1.0000
  C   C1055     1.0  0.22902  0.81164  0.43031  1.0000
  Fe  Fe76      1.0  0.11961  0.77484  0.39823  1.0000
  S   S153      1.0  0.13691  0.80376  0.40441  1.0000
  S   S154      1.0  0.09765  0.76847  0.37382  1.0000
  S   S155      1.0  0.09517  0.77048  0.42307  1.0000
  Fe  Fe77      1.0  0.26392  0.88062  0.42501  1.0000
  S   S156      1.0  0.23088  0.88679  0.41852  1.0000
  S   S157      1.0  0.27301  0.86586  0.45552  1.0000
  Fe  Fe78      1.0  0.27870  0.89467  0.38140  1.0000
  S   S158      1.0  0.24631  0.90202  0.37211  1.0000
  S   S159      1.0  0.30746  0.90387  0.36229  1.0000
  Fe  Fe79      1.0  0.24140  0.91595  0.40289  1.0000
  S   S160      1.0  0.22357  0.94524  0.41135  1.0000
  Fe  Fe80      1.0  0.23825  0.87226  0.38864  1.0000
  S   S161      1.0  0.21904  0.84821  0.37491  1.0000
  S   S162      1.0  0.27406  0.91058  0.41140  1.0000
  S   S163      1.0  0.27113  0.86408  0.39591  1.0000
  H   H848      1.0  0.24848  0.83394  0.47520  1.0000
  C   C1056     1.0  0.26615  0.87747  0.47892  1.0000
  C   C1057     1.0  0.25565  0.89643  0.47932  1.0000
  C   C1058     1.0  0.08639  0.76691  0.32039  1.0000
  H   H849      1.0  0.25161  0.90426  0.46514  1.0000
  C   C1059     1.0  0.24556  0.97200  0.38629  1.0000
  C   C1060     1.0  0.23070  0.96968  0.40203  1.0000
  C   C1061     1.0  0.44579  0.83251  0.21581  1.0000
  H   H850      1.0  0.25291  0.95864  0.37961  1.0000
  C   C1062     1.0  0.36165  0.82434  0.24047  1.0000
  C   C1063     1.0  0.16028  0.81526  0.39624  1.0000
  C   C1064     1.0  0.16759  0.83082  0.40783  1.0000
  C   C1065     1.0  0.18563  0.84084  0.40180  1.0000
  C   C1066     1.0  0.19662  0.83554  0.38389  1.0000
  C   C1067     1.0  0.18951  0.81978  0.37245  1.0000
  C   C1068     1.0  0.17156  0.80962  0.37862  1.0000
  H   H851      1.0  0.15932  0.83505  0.42168  1.0000
  H   H852      1.0  0.19095  0.85273  0.41092  1.0000
  H   H853      1.0  0.19790  0.81547  0.35861  1.0000
  H   H854      1.0  0.16627  0.79769  0.36952  1.0000
  C   C1069     1.0  0.47708  0.83615  0.01350  1.0000
  C   C1070     1.0  0.01902  0.76430  0.39652  1.0000
  C   C1071     1.0  0.35065  0.79966  0.21728  1.0000
  C   C1072     1.0  0.38088  0.81423  0.24104  1.0000
  H   H855      1.0  0.26058  0.81475  0.43713  1.0000
  H   H856      1.0  0.35848  0.83781  0.24933  1.0000
  C   C1073     1.0  0.22821  0.78217  0.46232  1.0000
  C   C1074     1.0  0.34190  0.87957  0.30427  1.0000
  C   C1075     1.0  0.34940  0.89542  0.31503  1.0000
  C   C1076     1.0  0.33880  0.90233  0.33284  1.0000
  C   C1077     1.0  0.32041  0.89376  0.34009  1.0000
  C   C1078     1.0  0.31282  0.87798  0.32928  1.0000
  C   C1079     1.0  0.32354  0.87091  0.31157  1.0000
  H   H857      1.0  0.36349  0.90222  0.30972  1.0000
  H   H858      1.0  0.34492  0.91439  0.34111  1.0000
  H   H859      1.0  0.29871  0.87120  0.33455  1.0000
  H   H860      1.0  0.31755  0.85863  0.30344  1.0000
  H   H861      1.0  0.29306  0.95090  0.49092  1.0000
  C   C1080     1.0  0.40185  0.97947  0.24552  1.0000
  S   S164      1.0  0.04222  0.77674  0.39910  1.0000
  H   H862      1.0  0.39754  0.97105  0.21471  1.0000
  H   H863      1.0  0.13917  0.87494  0.44049  1.0000
  C   C1081     1.0  0.47862  0.96045  0.27104  1.0000
  C   C1082     1.0  0.48385  0.88585  0.26258  1.0000
  H   H864      1.0  0.25165  0.75210  0.12880  1.0000
  H   H865      1.0  0.47145  0.83299  0.14871  1.0000
  C   C1083     1.0  0.41073  0.77770  0.18861  1.0000
  C   C1084     1.0  0.38499  0.81408  0.15567  1.0000
  C   C1085     1.0  0.37368  0.82295  0.17205  1.0000
  C   C1086     1.0  0.38152  0.83876  0.18306  1.0000
  C   C1087     1.0  0.40064  0.84642  0.17748  1.0000
  C   C1088     1.0  0.41208  0.83745  0.16120  1.0000
  C   C1089     1.0  0.40446  0.82125  0.15053  1.0000
  H   H866      1.0  0.35864  0.81759  0.17622  1.0000
  H   H867      1.0  0.37247  0.84541  0.19548  1.0000
  H   H868      1.0  0.42691  0.84314  0.15679  1.0000
  H   H869      1.0  0.41346  0.81450  0.13815  1.0000
  H   H870      1.0  0.46903  0.89059  0.07833  1.0000
  H   H871      1.0  0.17471  0.75680  0.38637  1.0000
  C   C1090     1.0  0.45030  0.82394  0.25154  1.0000
  H   H872      1.0  0.31438  0.95046  0.39313  1.0000
  H   H873      1.0  0.19765  0.80514  0.42659  1.0000
  H   H874      1.0  0.44991  0.80193  0.09043  1.0000
  C   C1091     1.0  0.48331  0.90410  0.25089  1.0000
  C   C1092     1.0  0.38527  0.79693  0.22947  1.0000
  H   H875      1.0  0.23059  0.78327  0.12087  1.0000
  H   H876      1.0  0.11579  0.82578  0.46491  1.0000
  C   C1093     1.0  0.38245  0.94601  0.46107  1.0000
  C   C1094     1.0  0.49233  0.95083  0.28470  1.0000
  C   C1095     1.0  0.40291  0.77622  0.00029  1.0000
  H   H877      1.0  0.45732  0.77596  0.17868  1.0000
  H   H878      1.0  0.13430  0.90067  0.37916  1.0000
  C   C1096     1.0  0.49259  0.97371  0.21576  1.0000
  H   H879      1.0  0.33067  0.97323  0.47674  1.0000
  H   H880      1.0  0.46324  0.75711  0.00917  1.0000
  H   H881      1.0  0.15602  0.90311  0.49188  1.0000
  H   H882      1.0  0.39633  0.97205  0.47275  1.0000
  H   H883      1.0  0.27702  0.93435  0.45718  1.0000
  C   C1097     1.0  0.11592  0.93581  0.41161  1.0000
  C   C1098     1.0  0.34526  0.94690  0.46246  1.0000
  P   P37       1.0  0.48405  0.82125  0.10753  1.0000
  C   C1099     1.0  0.47489  0.80683  0.12975  1.0000
  C   C1100     1.0  0.46845  0.84438  0.10392  1.0000
  C   C1101     1.0  0.44850  0.84603  0.11266  1.0000
  C   C1102     1.0  0.43639  0.86386  0.10968  1.0000
  C   C1103     1.0  0.44387  0.88000  0.09749  1.0000
  C   C1104     1.0  0.46339  0.87819  0.08805  1.0000
  H   H884      1.0  0.30138  0.74815  0.04856  1.0000
  C   C1105     1.0  0.47349  0.78565  0.12938  1.0000
  C   C1106     1.0  0.46702  0.77458  0.14695  1.0000
  C   C1107     1.0  0.46219  0.78457  0.16505  1.0000
  C   C1108     1.0  0.46370  0.80565  0.16554  1.0000
  C   C1109     1.0  0.47018  0.81672  0.14803  1.0000
  H   H885      1.0  0.46706  0.88711  0.21720  1.0000
  H   H886      1.0  0.12049  0.84532  0.43068  1.0000
  C   C1110     1.0  0.20040  0.85553  0.47419  1.0000
  C   C1111     1.0  0.16479  0.79077  0.45745  1.0000
  C   C1112     1.0  0.48182  0.80798  0.08420  1.0000
  C   C1113     1.0  0.16463  0.90490  0.47749  1.0000
  C   C1114     1.0  0.45376  0.93514  0.28093  1.0000
  C   C1115     1.0  0.09713  0.75149  0.48024  1.0000
  H   H887      1.0  0.09852  0.77746  0.32147  1.0000
  H   H888      1.0  0.43639  0.98417  0.20053  1.0000
  C   C1116     1.0  0.24110  0.75215  0.11648  1.0000
  H   H889      1.0  0.44207  0.83349  0.12155  1.0000
  H   H890      1.0  0.42109  0.86506  0.11671  1.0000
  H   H891      1.0  0.43440  0.89379  0.09516  1.0000
  C   C1117     1.0  0.48707  0.97082  0.19574  1.0000
  H   H892      1.0  0.09088  0.75889  0.46675  1.0000
  C   C1118     1.0  0.12313  0.85779  0.41978  1.0000
  C   C1119     1.0  0.48701  0.93308  0.29576  1.0000
  H   H893      1.0  0.00050  0.79210  0.39924  1.0000
  H   H894      1.0  0.45998  0.81340  0.17952  1.0000
  S   S165      1.0  0.36900  0.76420  0.09056  1.0000
  C   C1120     1.0  0.30267  0.95301  0.44855  1.0000
  H   H895      1.0  0.43281  0.79969  0.26454  1.0000
  C   C1121     1.0  0.24626  0.79217  0.45711  1.0000
  C   C1122     1.0  0.47492  0.87977  0.20449  1.0000
  H   H896      1.0  0.13541  0.98206  0.43898  1.0000
  H   H897      1.0  0.36360  0.99462  0.34559  1.0000
  H   H898      1.0  0.19563  0.91321  0.42644  1.0000
  H   H899      1.0  0.32879  0.87626  0.39706  1.0000
  H   H900      1.0  0.20615  0.78389  0.09290  1.0000
  C   C1123     1.0  0.46041  0.79130  0.06113  1.0000
  H   H901      1.0  0.37266  0.77595  0.20909  1.0000
  P   P38       1.0  0.32148  0.93495  0.45882  1.0000
  H   H902      1.0  0.44803  0.95989  0.25958  1.0000
  C   C1124     1.0  0.19376  0.85080  0.49431  1.0000
  C   C1125     1.0  0.22916  0.76983  0.11206  1.0000
  Fe  Fe81      1.0  0.07428  0.76158  0.39896  1.0000
  H   H903      1.0  0.30683  0.89318  0.45675  1.0000
  H   H904      1.0  0.02737  0.81402  0.42596  1.0000
  H   H905      1.0  0.22939  0.82279  0.41764  1.0000
  C   C1126     1.0  0.42832  0.80384  0.23195  1.0000
  H   H906      1.0  0.34153  0.93501  0.41832  1.0000
  H   H907      1.0  0.45057  0.88676  0.18392  1.0000
  C   C1127     1.0  0.36410  0.93686  0.45752  1.0000
  C   C1128     1.0  0.06745  0.77071  0.33042  1.0000
  C   C1129     1.0  0.09003  0.74902  0.30978  1.0000
  C   C1130     1.0  0.32932  0.98498  0.27765  1.0000
  C   C1131     1.0  0.47684  0.78958  0.04692  1.0000
  C   C1132     1.0  0.10336  0.95346  0.41370  1.0000
  H   H908      1.0  0.37774  0.76766  0.25832  1.0000
  H   H909      1.0  0.18124  0.81796  0.46219  1.0000
  C   C1133     1.0  0.18590  0.90621  0.47739  1.0000
  H   H910      1.0  0.17267  0.77895  0.41581  1.0000
  C   C1134     1.0  0.18678  0.75661  0.43643  1.0000
  C   C1135     1.0  0.31729  0.96471  0.38483  1.0000
  H   H911      1.0  0.46377  0.91116  0.30198  1.0000
  C   C1136     1.0  0.34657  0.81713  0.22850  1.0000
  C   C1137     1.0  0.17931  0.76368  0.41761  1.0000
  C   C1138     1.0  0.28790  0.97902  0.30591  1.0000
  H   H912      1.0  0.47494  0.78220  0.03273  1.0000
  C   C1139     1.0  0.33670  0.90601  0.40592  1.0000
  C   C1140     1.0  0.21099  0.80173  0.43554  1.0000
  C   C1141     1.0  0.16643  0.81155  0.46100  1.0000
  C   C1142     1.0  0.14532  0.78282  0.45656  1.0000
  H   H913      1.0  0.26005  0.78833  0.46526  1.0000
  C   C1143     1.0  0.30720  0.99041  0.35923  1.0000
  C   C1144     1.0  0.43259  0.81650  0.21469  1.0000
  C   C1145     1.0  0.45485  0.83605  0.23414  1.0000
  H   H914      1.0  0.30226  0.98309  0.26005  1.0000
  H   H915      1.0  0.03135  0.76469  0.48659  1.0000
  H   H916      1.0  0.25902  0.99257  0.31674  1.0000
  C   C1146     1.0  0.39929  0.98352  0.22468  1.0000
  P   P39       1.0  0.41019  0.78399  0.23057  1.0000
  P   P40       1.0  0.48481  0.98355  0.25666  1.0000
  H   H917      1.0  0.33174  0.82510  0.22795  1.0000
  H   H918      1.0  0.16934  0.94914  0.39646  1.0000
  H   H919      1.0  0.19378  0.95382  0.36746  1.0000
  C   C1147     1.0  0.21540  0.77018  0.09630  1.0000
  H   H920      1.0  0.44837  0.84265  0.20262  1.0000
  C   C1148     1.0  0.21357  0.75284  0.08496  1.0000
  H   H921      1.0  0.22548  0.85330  0.45186  1.0000
  H   H922      1.0  0.14364  0.76680  0.45396  1.0000
  H   H923      1.0  0.42520  0.81459  0.20052  1.0000
  C   C1149     1.0  0.18681  0.91035  0.44049  1.0000
  H   H924      1.0  0.39695  0.93826  0.45711  1.0000
  C   C1150     1.0  0.31774  0.88240  0.42773  1.0000
  H   H925      1.0  0.20967  0.98551  0.42275  1.0000
  H   H926      1.0  0.20285  0.75311  0.07278  1.0000
  P   P41       1.0  0.18712  0.77373  0.45718  1.0000
  C   C1151     1.0  0.13374  0.87466  0.42522  1.0000
  C   C1152     1.0  0.19695  0.90902  0.45888  1.0000
  H   H927      1.0  0.46898  0.87066  0.15453  1.0000
  C   C1153     1.0  0.29392  0.98457  0.42968  1.0000
  C   C1154     1.0  0.43690  0.80807  0.25056  1.0000
  H   H928      1.0  0.39226  0.81995  0.25058  1.0000
  H   H929      1.0  0.32459  0.97444  0.43607  1.0000
  C   C1155     1.0  0.47557  0.86036  0.09107  1.0000
  C   C1156     1.0  0.22124  0.98718  0.41061  1.0000
  C   C1157     1.0  0.28188  0.94851  0.44989  1.0000
  C   C1158     1.0  0.49547  0.86101  0.17165  1.0000
  C   C1159     1.0  0.41584  0.76946  0.20790  1.0000
  C   C1160     1.0  0.23301  0.83820  0.48042  1.0000
  H   H930      1.0  0.34406  0.90974  0.39121  1.0000
  C   C1161     1.0  0.49432  0.87050  0.20699  1.0000
  C   C1162     1.0  0.46686  0.97472  0.19021  1.0000
  C   C1163     1.0  0.46285  0.80054  0.07966  1.0000
  S   S166      1.0  0.40772  0.77592  0.04175  1.0000
  H   H931      1.0  0.19047  0.86425  0.46396  1.0000
  H   H932      1.0  0.49053  0.85902  0.08341  1.0000
  C   C1164     1.0  0.18533  0.76024  0.48166  1.0000
  H   H933      1.0  0.11281  0.78922  0.45863  1.0000
  C   C1165     1.0  0.41072  0.76737  0.25321  1.0000
  Fe  Fe82      1.0  0.39961  0.76272  0.07361  1.0000
  H   H934      1.0  0.48987  0.84620  0.04092  1.0000
  C   C1166     1.0  0.49567  0.75077  0.08474  1.0000
  H   H935      1.0  0.44573  0.98903  0.23585  1.0000
  C   C1167     1.0  0.31706  0.90709  0.26424  1.0000
  C   C1168     1.0  0.32506  0.91069  0.24444  1.0000
  C   C1169     1.0  0.33313  0.92951  0.23893  1.0000
  C   C1170     1.0  0.33328  0.94471  0.25322  1.0000
  C   C1171     1.0  0.32463  0.94150  0.27305  1.0000
  C   C1172     1.0  0.31687  0.92236  0.27849  1.0000
  P   P42       1.0  0.32547  0.96107  0.29171  1.0000
  C   C1173     1.0  0.30186  0.96217  0.30732  1.0000
  C   C1174     1.0  0.34715  0.95473  0.30725  1.0000
  C   C1175     1.0  0.34599  0.95744  0.32839  1.0000
  C   C1176     1.0  0.36301  0.95266  0.34017  1.0000
  C   C1177     1.0  0.38145  0.94568  0.33082  1.0000
  C   C1178     1.0  0.38283  0.94340  0.30972  1.0000
  C   C1179     1.0  0.36570  0.94769  0.29801  1.0000
  H   H936      1.0  0.43885  0.92910  0.27935  1.0000
  H   H937      1.0  0.25075  0.96327  0.34011  1.0000
  C   C1180     1.0  0.26497  0.96299  0.33102  1.0000
  C   C1181     1.0  0.27888  0.94634  0.33283  1.0000
  C   C1182     1.0  0.29737  0.94612  0.32136  1.0000
  C   C1183     1.0  0.45917  0.95259  0.26952  1.0000
  C   C1184     1.0  0.30863  0.97098  0.43807  1.0000
  H   H938      1.0  0.13790  0.90603  0.45944  1.0000
  C   C1185     1.0  0.33509  0.92028  0.42122  1.0000
  H   H939      1.0  0.03798  0.75955  0.33857  1.0000
  C   C1186     1.0  0.38210  0.96502  0.46994  1.0000
  H   H940      1.0  0.31165  0.89218  0.26880  1.0000
  H   H941      1.0  0.32565  0.89863  0.23361  1.0000
  H   H942      1.0  0.33996  0.93207  0.22376  1.0000
  H   H943      1.0  0.34061  0.95873  0.24878  1.0000
  H   H944      1.0  0.31117  0.91874  0.29378  1.0000
  H   H945      1.0  0.33195  0.96300  0.33586  1.0000
  H   H946      1.0  0.36183  0.95422  0.35655  1.0000
  H   H947      1.0  0.39465  0.94190  0.33989  1.0000
  H   H948      1.0  0.39712  0.93815  0.30234  1.0000
  H   H949      1.0  0.36699  0.94557  0.28170  1.0000
  H   H950      1.0  0.41089  0.77307  0.15623  1.0000
  C   C1187     1.0  0.39244  0.76188  0.26355  1.0000
  H   H951      1.0  0.33356  0.89793  0.48252  1.0000
  H   H952      1.0  0.27558  0.93369  0.34341  1.0000
  H   H953      1.0  0.30823  0.93346  0.32371  1.0000
  C   C1188     1.0  0.01472  0.80895  0.43581  1.0000
  C   C1189     1.0  0.46570  0.87962  0.18568  1.0000
  H   H954      1.0  0.36470  0.92190  0.45112  1.0000
  C   C1190     1.0  0.39642  0.76795  0.01944  1.0000
  H   H955      1.0  0.08821  0.95426  0.40759  1.0000
  H   H956      1.0  0.31057  0.86790  0.43003  1.0000
  C   C1191     1.0  0.41493  0.76660  0.17105  1.0000
  H   H957      1.0  0.34486  0.97009  0.40021  1.0000
  C   C1192     1.0  0.12992  0.96911  0.43142  1.0000
  C   C1193     1.0  0.45213  0.98144  0.20473  1.0000
  H   H958      1.0  0.25119  0.95857  0.44245  1.0000
  P   P43       1.0  0.15219  0.91214  0.41677  1.0000
  C   C1194     1.0  0.12777  0.79547  0.45930  1.0000
  C   C1195     1.0  0.13562  0.93470  0.41940  1.0000
  C   C1196     1.0  0.01597  0.78961  0.44538  1.0000
  C   C1197     1.0  0.21029  0.78724  0.45186  1.0000
  C   C1198     1.0  0.45756  0.98425  0.22478  1.0000
  C   C1199     1.0  0.11037  0.97011  0.42357  1.0000
  C   C1200     1.0  0.14248  0.95148  0.42941  1.0000
  H   H959      1.0  0.46578  0.75822  0.14654  1.0000
  C   C1201     1.0  0.36341  0.97479  0.47551  1.0000
  H   H960      1.0  0.46881  0.91100  0.24643  1.0000
  C   C1202     1.0  0.05215  0.75661  0.32992  1.0000
  H   H961      1.0  0.15015  0.84021  0.46621  1.0000
  C   C1203     1.0  0.17040  0.91612  0.39562  1.0000
  C   C1204     1.0  0.17966  0.89925  0.38579  1.0000
  C   C1205     1.0  0.19328  0.90209  0.36906  1.0000
  C   C1206     1.0  0.19812  0.92175  0.36225  1.0000
  C   C1207     1.0  0.18942  0.93860  0.37225  1.0000
  C   C1208     1.0  0.17558  0.93584  0.38885  1.0000
  C   C1209     1.0  0.12084  0.87184  0.38531  1.0000
  C   C1210     1.0  0.14881  0.82419  0.46357  1.0000
  H   H962      1.0  0.06487  0.78423  0.33929  1.0000
  C   C1211     1.0  0.31548  0.99180  0.26277  1.0000
  C   C1212     1.0  0.31583  0.89676  0.44297  1.0000
  C   C1213     1.0  0.12948  0.81611  0.46284  1.0000
  H   H963      1.0  0.11014  0.92316  0.40390  1.0000
  C   C1214     1.0  0.47605  0.87038  0.16919  1.0000
  C   C1215     1.0  0.34505  0.96567  0.47199  1.0000
  H   H964      1.0  0.15770  0.95106  0.43540  1.0000
  C   C1216     1.0  0.30364  0.97218  0.37029  1.0000
  H   H965      1.0  0.22845  0.77023  0.47414  1.0000
  C   C1217     1.0  0.42431  0.74714  0.17254  1.0000
  H   H966      1.0  0.17638  0.88385  0.39096  1.0000
  C   C1218     1.0  0.42948  0.75930  0.26032  1.0000
  H   H967      1.0  0.20034  0.88895  0.36158  1.0000
  H   H968      1.0  0.11630  0.87045  0.36974  1.0000
  H   H969      1.0  0.44576  0.78536  0.05788  1.0000
  H   H970      1.0  0.45657  0.82747  0.26598  1.0000
  H   H971      1.0  0.29021  0.96379  0.36770  1.0000
  C   C1219     1.0  0.22006  0.84928  0.46728  1.0000
  H   H972      1.0  0.33898  0.79411  0.20793  1.0000
  C   C1220     1.0  0.24663  0.80696  0.44118  1.0000
  C   C1221     1.0  0.31353  0.92503  0.48381  1.0000
  C   C1222     1.0  0.16552  0.90867  0.44037  1.0000
  H   H973      1.0  0.19384  0.90523  0.49161  1.0000
  H   H974      1.0  0.41441  0.78749  0.99953  1.0000
  C   C1223     1.0  0.13775  0.89043  0.41072  1.0000
  C   C1224     1.0  0.46774  0.92521  0.29385  1.0000
  H   H975      1.0  0.47756  0.77766  0.11563  1.0000
  H   H976      1.0  0.39484  0.99319  0.32350  1.0000
  C   C1225     1.0  0.32478  0.91569  0.43994  1.0000
  H   H977      1.0  0.46291  0.74834  0.08342  1.0000
  C   C1226     1.0  0.13112  0.88888  0.39073  1.0000
  H   H978      1.0  0.46251  0.97224  0.17478  1.0000
  H   H979      1.0  0.37577  0.74753  0.03503  1.0000
  C   C1227     1.0  0.32806  0.88706  0.40918  1.0000
  H   H980      1.0  0.40319  0.79261  0.18714  1.0000
  C   C1228     1.0  0.40403  0.99588  0.25829  1.0000
  C   C1229     1.0  0.33781  0.99416  0.37802  1.0000
  C   C1230     1.0  0.11689  0.85627  0.39983  1.0000
  H   H981      1.0  0.02959  0.77983  0.44295  1.0000
  H   H982      1.0  0.49706  0.75873  0.07010  1.0000
  H   H983      1.0  0.21340  0.91042  0.45874  1.0000
  C   C1231     1.0  0.26961  0.97944  0.31777  1.0000
  H   H984      1.0  0.46145  0.83707  0.01969  1.0000
  C   C1232     1.0  0.47794  0.98072  0.23045  1.0000
  H   H985      1.0  0.10949  0.84272  0.39552  1.0000
  C   C1233     1.0  0.33437  0.97573  0.38876  1.0000
  C   C1234     1.0  0.15444  0.90635  0.45908  1.0000
  H   H986      1.0  0.29099  0.99197  0.29587  1.0000
  C   C1235     1.0  0.00041  0.77590  0.39706  1.0000
  H   H987      1.0  0.31697  0.75203  0.09985  1.0000
  H   H988      1.0  0.10067  0.98382  0.42508  1.0000
  C   C1236     1.0  0.25069  0.99164  0.37903  1.0000
  C   C1237     1.0  0.27324  0.98021  0.43152  1.0000
  C   C1238     1.0  0.39297  0.74887  0.28094  1.0000
  C   C1239     1.0  0.38094  0.75393  0.02038  1.0000
  H   H989      1.0  0.35814  0.99099  0.29105  1.0000
  C   C1240     1.0  0.99946  0.78263  0.45743  1.0000
  C   C1241     1.0  0.37174  0.74871  0.00236  1.0000
  H   H990      1.0  0.36313  0.98936  0.48272  1.0000
  C   C1242     1.0  0.18058  0.75115  0.40084  1.0000
  C   C1243     1.0  0.32246  0.90669  0.49166  1.0000
  H   H991      1.0  0.26192  0.99069  0.42487  1.0000
  H   H992      1.0  0.47062  0.99084  0.29881  1.0000
  C   C1244     1.0  0.49310  0.84129  0.02548  1.0000
  C   C1245     1.0  0.49576  0.79707  0.05125  1.0000
  H   H993      1.0  0.04470  0.79834  0.49168  1.0000
  H   H994      1.0  0.45585  0.79309  0.99983  1.0000
  H   H995      1.0  0.44375  0.76314  0.25242  1.0000
  H   H996      1.0  0.26187  0.99334  0.36656  1.0000
  H   H997      1.0  0.00059  0.76757  0.46458  1.0000
  H   H998      1.0  0.40608  0.99286  0.27441  1.0000
  C   C1246     1.0  0.42526  0.74981  0.20924  1.0000
  H   H999      1.0  0.49794  0.92522  0.30559  1.0000
  C   C1247     1.0  0.29975  0.93643  0.49632  1.0000
  H   H1000     1.0  0.29636  0.99588  0.34804  1.0000
  C   C1248     1.0  0.34683  0.99608  0.28020  1.0000
  C   C1249     1.0  0.49825  0.80637  0.06976  1.0000
  H   H1001     1.0  0.01034  0.75992  0.64933  1.0000
  C   C1250     1.0  0.48514  0.85455  0.82268  1.0000
  Fe  Fe83      1.0  0.37753  0.76983  0.88379  1.0000
  S   S167      1.0  0.36524  0.79768  0.86477  1.0000
  C   C1251     1.0  0.47415  0.74816  0.89710  1.0000
  S   S168      1.0  0.39653  0.77513  0.91073  1.0000
  H   H1002     1.0  0.10039  0.78309  0.69600  1.0000
  S   S169      1.0  0.05173  0.76622  0.63420  1.0000
  Fe  Fe84      1.0  0.12769  0.76952  0.60730  1.0000
  S   S170      1.0  0.15805  0.78623  0.60896  1.0000
  S   S171      1.0  0.09844  0.78092  0.59295  1.0000
  H   H1003     1.0  0.40416  0.94875  0.56924  1.0000
  Fe  Fe85      1.0  0.27278  0.88798  0.61503  1.0000
  S   S172      1.0  0.24657  0.90224  0.63332  1.0000
  S   S173      1.0  0.30028  0.87254  0.63123  1.0000
  Fe  Fe86      1.0  0.25325  0.90121  0.57385  1.0000
  S   S174      1.0  0.22660  0.91693  0.59043  1.0000
  S   S175      1.0  0.25003  0.90829  0.53966  1.0000
  Fe  Fe87      1.0  0.24961  0.92904  0.61084  1.0000
  S   S176      1.0  0.25783  0.96065  0.62057  1.0000
  Fe  Fe88      1.0  0.22615  0.88840  0.61083  1.0000
  S   S177      1.0  0.19473  0.87448  0.61798  1.0000
  S   S178      1.0  0.27635  0.91491  0.59314  1.0000
  S   S179      1.0  0.25221  0.87238  0.59369  1.0000
  Fe  Fe89      1.0  0.42176  0.90331  0.73756  1.0000
  S   S180      1.0  0.41543  0.90360  0.77143  1.0000
  S   S181      1.0  0.45270  0.91219  0.72329  1.0000
  Fe  Fe90      1.0  0.37580  0.89792  0.72856  1.0000
  S   S182      1.0  0.36720  0.89711  0.76233  1.0000
  S   S183      1.0  0.34976  0.90378  0.70594  1.0000
  Fe  Fe91      1.0  0.38775  0.92367  0.76395  1.0000
  S   S184      1.0  0.37722  0.95282  0.77984  1.0000
  Fe  Fe92      1.0  0.39565  0.87691  0.76687  1.0000
  S   S185      1.0  0.40180  0.84671  0.78546  1.0000
  S   S186      1.0  0.39525  0.92511  0.73047  1.0000
  S   S187      1.0  0.40318  0.87594  0.73270  1.0000
  C   C1252     1.0  0.38509  0.97701  0.77022  1.0000
  H   H1004     1.0  0.48863  0.77689  0.89828  1.0000
  C   C1253     1.0  0.39999  0.97866  0.75443  1.0000
  H   H1005     1.0  0.21963  0.94408  0.54997  1.0000
  H   H1006     1.0  0.40718  0.96502  0.74818  1.0000
  C   C1254     1.0  0.47745  0.90275  0.73029  1.0000
  H   H1007     1.0  0.32345  0.88500  0.51719  1.0000
  C   C1255     1.0  0.48093  0.88297  0.73851  1.0000
  H   H1008     1.0  0.21491  0.87334  0.53033  1.0000
  H   H1009     1.0  0.46815  0.87331  0.74173  1.0000
  C   C1256     1.0  0.31376  0.88149  0.65211  1.0000
  C   C1257     1.0  0.33037  0.86958  0.65979  1.0000
  C   C1258     1.0  0.34147  0.87600  0.67625  1.0000
  C   C1259     1.0  0.33617  0.89455  0.68529  1.0000
  C   C1260     1.0  0.31959  0.90649  0.67760  1.0000
  C   C1261     1.0  0.30844  0.90002  0.66119  1.0000
  H   H1010     1.0  0.33466  0.85522  0.65295  1.0000
  H   H1011     1.0  0.35413  0.86658  0.68189  1.0000
  H   H1012     1.0  0.31529  0.92088  0.68437  1.0000
  H   H1013     1.0  0.29571  0.90940  0.65558  1.0000
  C   C1262     1.0  0.24748  0.98527  0.61349  1.0000
  H   H1014     1.0  0.19478  0.76603  0.53190  1.0000
  C   C1263     1.0  0.04306  0.78045  0.54106  1.0000
  C   C1264     1.0  0.19289  0.76864  0.49906  1.0000
  H   H1015     1.0  0.21900  0.97529  0.60309  1.0000
  C   C1265     1.0  0.25588  0.89550  0.51669  1.0000
  C   C1266     1.0  0.26614  0.87639  0.51632  1.0000
  H   H1016     1.0  0.11961  0.81737  0.74621  1.0000
  H   H1017     1.0  0.27035  0.86866  0.53050  1.0000
  C   C1267     1.0  0.48122  0.82962  0.99365  1.0000
  C   C1268     1.0  0.16772  0.81127  0.60992  1.0000
  C   C1269     1.0  0.15499  0.82874  0.61258  1.0000
  C   C1270     1.0  0.16353  0.84789  0.61473  1.0000
  C   C1271     1.0  0.18487  0.85012  0.61351  1.0000
  C   C1272     1.0  0.19757  0.83280  0.61002  1.0000
  C   C1273     1.0  0.18907  0.81353  0.60846  1.0000
  H   H1018     1.0  0.13858  0.82749  0.61343  1.0000
  H   H1019     1.0  0.15350  0.86109  0.61754  1.0000
  H   H1020     1.0  0.21398  0.83412  0.60934  1.0000
  H   H1021     1.0  0.19915  0.80023  0.60636  1.0000
  C   C1274     1.0  0.14201  0.78712  0.70976  1.0000
  C   C1275     1.0  0.46816  0.96762  0.75122  1.0000
  H   H1022     1.0  0.04726  0.78458  0.55611  1.0000
  C   C1276     1.0  0.02846  0.76475  0.62152  1.0000
  C   C1277     1.0  0.22475  0.80066  0.54309  1.0000
  H   H1023     1.0  0.06832  0.79173  0.67830  1.0000
  C   C1278     1.0  0.37622  0.81147  0.84317  1.0000
  C   C1279     1.0  0.39358  0.80413  0.83207  1.0000
  C   C1280     1.0  0.40109  0.81516  0.81459  1.0000
  C   C1281     1.0  0.39170  0.83388  0.80806  1.0000
  C   C1282     1.0  0.37459  0.84143  0.81937  1.0000
  C   C1283     1.0  0.36685  0.83023  0.83667  1.0000
  H   H1024     1.0  0.40099  0.78975  0.83673  1.0000
  H   H1025     1.0  0.41416  0.80902  0.80591  1.0000
  H   H1026     1.0  0.36713  0.85576  0.81463  1.0000
  H   H1027     1.0  0.35345  0.83612  0.84507  1.0000
  C   C1284     1.0  0.23737  0.96217  0.52832  1.0000
  C   C1285     1.0  0.49431  0.91497  0.72599  1.0000
  H   H1028     1.0  0.44475  0.80327  0.96493  1.0000
  H   H1029     1.0  0.18777  0.77577  0.67487  1.0000
  C   C1286     1.0  0.44625  0.77261  0.95462  1.0000
  C   C1287     1.0  0.45820  0.76360  0.84315  1.0000
  C   C1288     1.0  0.45314  0.76117  0.82294  1.0000
  C   C1289     1.0  0.45215  0.77806  0.80935  1.0000
  C   C1290     1.0  0.45586  0.79745  0.81604  1.0000
  C   C1291     1.0  0.46073  0.80007  0.83640  1.0000
  C   C1292     1.0  0.46215  0.78291  0.84979  1.0000
  P   P44       1.0  0.46364  0.82516  0.84609  1.0000
  C   C1293     1.0  0.48208  0.82374  0.76808  1.0000
  C   C1294     1.0  0.46687  0.84416  0.82563  1.0000
  C   C1295     1.0  0.04645  0.79379  0.52428  1.0000
  C   C1296     1.0  0.20654  0.83918  0.50746  1.0000
  C   C1297     1.0  0.47051  0.87475  0.79469  1.0000
  C   C1298     1.0  0.45230  0.86461  0.79768  1.0000
  C   C1299     1.0  0.45036  0.84961  0.81323  1.0000
  Fe  Fe93      1.0  0.10181  0.75302  0.57397  1.0000
  H   H1030     1.0  0.16137  0.76548  0.75339  1.0000
  C   C1300     1.0  0.47210  0.98756  0.75652  1.0000
  H   H1031     1.0  0.23698  0.82503  0.51031  1.0000
  C   C1301     1.0  0.43185  0.97099  0.60433  1.0000
  C   C1302     1.0  0.44068  0.83298  0.86061  1.0000
  C   C1303     1.0  0.42744  0.81857  0.86948  1.0000
  C   C1304     1.0  0.40915  0.82494  0.87952  1.0000
  C   C1305     1.0  0.40383  0.84565  0.88079  1.0000
  C   C1306     1.0  0.41702  0.86011  0.87234  1.0000
  C   C1307     1.0  0.43540  0.85384  0.86236  1.0000
  C   C1308     1.0  0.27133  0.86747  0.49748  1.0000
  H   H1032     1.0  0.24524  0.94905  0.52165  1.0000
  H   H1033     1.0  0.44797  0.77623  0.79373  1.0000
  H   H1034     1.0  0.45445  0.81026  0.80533  1.0000
  H   H1035     1.0  0.46571  0.78455  0.86561  1.0000
  H   H1036     1.0  0.45816  0.80106  0.90865  1.0000
  H   H1037     1.0  0.25402  0.98368  0.50958  1.0000
  H   H1038     1.0  0.47190  0.88652  0.78270  1.0000
  H   H1039     1.0  0.43956  0.86844  0.78801  1.0000
  H   H1040     1.0  0.43589  0.84230  0.81560  1.0000
  H   H1041     1.0  0.47685  0.96013  0.73909  1.0000
  H   H1042     1.0  0.03345  0.75093  0.55144  1.0000
  C   C1309     1.0  0.16650  0.81194  0.51631  1.0000
  H   H1043     1.0  0.46862  0.82552  0.98471  1.0000
  H   H1044     1.0  0.36446  0.99385  0.79049  1.0000
  H   H1045     1.0  0.43072  0.80239  0.86837  1.0000
  H   H1046     1.0  0.39871  0.81377  0.88577  1.0000
  H   H1047     1.0  0.38929  0.85041  0.88801  1.0000
  H   H1048     1.0  0.41275  0.87619  0.87306  1.0000
  H   H1049     1.0  0.44520  0.86532  0.85558  1.0000
  H   H1050     1.0  0.20093  0.78269  0.49777  1.0000
  H   H1051     1.0  0.20935  0.83440  0.65540  1.0000
  P   P45       1.0  0.14367  0.78471  0.68244  1.0000
  C   C1310     1.0  0.47421  0.84222  0.94488  1.0000
  C   C1311     1.0  0.17179  0.80477  0.55223  1.0000
  C   C1312     1.0  0.24214  0.98182  0.52141  1.0000
  C   C1313     1.0  0.19001  0.85675  0.54501  1.0000
  C   C1314     1.0  0.17721  0.83354  0.66350  1.0000
  C   C1315     1.0  0.19669  0.89212  0.55067  1.0000
  C   C1316     1.0  0.18023  0.89315  0.56488  1.0000
  C   C1317     1.0  0.16849  0.87614  0.56900  1.0000
  C   C1318     1.0  0.17338  0.85794  0.55921  1.0000
  H   H1052     1.0  0.17967  0.80715  0.56610  1.0000
  H   H1053     1.0  0.05310  0.80831  0.52641  1.0000
  H   H1054     1.0  0.44084  0.77693  0.93959  1.0000
  C   C1319     1.0  0.00910  0.76777  0.59063  1.0000
  H   H1055     1.0  0.17691  0.90695  0.57314  1.0000
  H   H1056     1.0  0.15605  0.87686  0.58040  1.0000
  H   H1057     1.0  0.16450  0.84479  0.56324  1.0000
  C   C1320     1.0  0.43077  0.90516  0.66677  1.0000
  C   C1321     1.0  0.41866  0.89138  0.67793  1.0000
  C   C1322     1.0  0.39736  0.89368  0.67767  1.0000
  C   C1323     1.0  0.38815  0.90989  0.66648  1.0000
  C   C1324     1.0  0.40017  0.92370  0.65502  1.0000
  C   C1325     1.0  0.42160  0.92125  0.65535  1.0000
  P   P46       1.0  0.38844  0.94669  0.64382  1.0000
  C   C1326     1.0  0.36223  0.94319  0.63722  1.0000
  C   C1327     1.0  0.38972  0.96646  0.66205  1.0000
  C   C1328     1.0  0.30306  0.91073  0.52361  1.0000
  H   H1058     1.0  0.44729  0.90372  0.66757  1.0000
  Fe  Fe94      1.0  0.37848  0.75180  0.92849  1.0000
  C   C1329     1.0  0.15752  0.75382  0.65671  1.0000
  C   C1330     1.0  0.39367  0.96144  0.68257  1.0000
  C   C1331     1.0  0.34741  0.95929  0.63862  1.0000
  S   S188      1.0  0.44929  0.75981  0.89956  1.0000
  H   H1059     1.0  0.32942  0.94882  0.77528  1.0000
  C   C1332     1.0  0.33649  0.92197  0.62430  1.0000
  C   C1333     1.0  0.35660  0.92452  0.62985  1.0000
  C   C1334     1.0  0.40304  0.95387  0.62085  1.0000
  C   C1335     1.0  0.42048  0.96542  0.62204  1.0000
  H   H1060     1.0  0.26063  0.79235  0.57896  1.0000
  H   H1061     1.0  0.42906  0.95760  0.78550  1.0000
  H   H1062     1.0  0.00874  0.77054  0.57430  1.0000
  C   C1336     1.0  0.39729  0.94784  0.60167  1.0000
  C   C1337     1.0  0.01004  0.76189  0.63291  1.0000
  H   H1063     1.0  0.42579  0.87926  0.68720  1.0000
  H   H1064     1.0  0.38791  0.88333  0.68673  1.0000
  H   H1065     1.0  0.37167  0.91204  0.66743  1.0000
  H   H1066     1.0  0.43131  0.93213  0.64747  1.0000
  C   C1338     1.0  0.44522  0.98552  0.78320  1.0000
  H   H1067     1.0  0.22182  0.84548  0.56787  1.0000
  C   C1339     1.0  0.15364  0.77385  0.72247  1.0000
  H   H1068     1.0  0.39511  0.94575  0.68811  1.0000
  H   H1069     1.0  0.09429  0.75129  0.71356  1.0000
  C   C1340     1.0  0.44130  0.96580  0.77769  1.0000
  C   C1341     1.0  0.48658  0.83837  0.87759  1.0000
  H   H1070     1.0  0.33211  0.90743  0.61894  1.0000
  H   H1071     1.0  0.36770  0.91189  0.62839  1.0000
  H   H1072     1.0  0.13411  0.77629  0.53560  1.0000
  C   C1342     1.0  0.45034  0.75207  0.95983  1.0000
  S   S189      1.0  0.36527  0.75080  0.96124  1.0000
  C   C1343     1.0  0.29454  0.92925  0.51613  1.0000
  C   C1344     1.0  0.39589  0.97676  0.69636  1.0000
  H   H1073     1.0  0.35465  0.94540  0.71394  1.0000
  C   C1345     1.0  0.19699  0.82492  0.66091  1.0000
  C   C1346     1.0  0.45496  0.78174  0.98844  1.0000
  C   C1347     1.0  0.22287  0.95936  0.54430  1.0000
  C   C1348     1.0  0.15252  0.77590  0.74364  1.0000
  C   C1349     1.0  0.31701  0.89944  0.51139  1.0000
  H   H1074     1.0  0.24885  0.82748  0.58728  1.0000
  C   C1350     1.0  0.18927  0.75942  0.51842  1.0000
  S   S190      1.0  0.11062  0.75168  0.63251  1.0000
  C   C1351     1.0  0.15105  0.79787  0.51692  1.0000
  C   C1352     1.0  0.24880  0.80020  0.57019  1.0000
  C   C1353     1.0  0.22795  0.98830  0.60570  1.0000
  S   S191      1.0  0.35704  0.74876  0.90281  1.0000
  C   C1354     1.0  0.48554  0.82444  0.86206  1.0000
  H   H1075     1.0  0.43479  0.96933  0.57159  1.0000
  H   H1076     1.0  0.30612  0.93583  0.62214  1.0000
  H   H1077     1.0  0.38406  0.93881  0.60025  1.0000
  H   H1078     1.0  0.20216  0.97407  0.56606  1.0000
  C   C1355     1.0  0.14789  0.75847  0.67558  1.0000
  C   C1356     1.0  0.33523  0.98805  0.68928  1.0000
  C   C1357     1.0  0.32727  0.95660  0.63322  1.0000
  H   H1079     1.0  0.21820  0.79305  0.53076  1.0000
  H   H1080     1.0  0.24519  0.77511  0.55072  1.0000
  H   H1081     1.0  0.48754  0.79398  0.93039  1.0000
  H   H1082     1.0  0.20606  0.90518  0.54777  1.0000
  C   C1358     1.0  0.45904  0.76120  0.99374  1.0000
  H   H1083     1.0  0.35815  0.97007  0.74084  1.0000
  C   C1359     1.0  0.42595  0.96502  0.58530  1.0000
  C   C1360     1.0  0.09338  0.76012  0.49940  1.0000
  H   H1084     1.0  0.29852  0.90499  0.53879  1.0000
  C   C1361     1.0  0.13003  0.80306  0.71842  1.0000
  C   C1362     1.0  0.12897  0.80511  0.73960  1.0000
  C   C1363     1.0  0.12017  0.79320  0.67073  1.0000
  C   C1364     1.0  0.10117  0.78993  0.68076  1.0000
  C   C1365     1.0  0.08299  0.79491  0.67085  1.0000
  C   C1366     1.0  0.08367  0.80332  0.65094  1.0000
  C   C1367     1.0  0.10252  0.80670  0.64092  1.0000
  C   C1368     1.0  0.12068  0.80142  0.65069  1.0000
  H   H1085     1.0  0.12162  0.81400  0.70882  1.0000
  C   C1369     1.0  0.24218  0.82003  0.57486  1.0000
  C   C1370     1.0  0.47947  0.80865  0.93111  1.0000
  C   C1371     1.0  0.32181  0.93795  0.62610  1.0000
  H   H1086     1.0  0.06959  0.80668  0.64308  1.0000
  H   H1087     1.0  0.10309  0.81284  0.62534  1.0000
  H   H1088     1.0  0.13514  0.80327  0.64244  1.0000
  C   C1372     1.0  0.21300  0.97624  0.55330  1.0000
  H   H1089     1.0  0.09040  0.74804  0.67617  1.0000
  H   H1090     1.0  0.28358  0.93780  0.52566  1.0000
  C   C1373     1.0  0.02793  0.76728  0.60029  1.0000
  Fe  Fe95      1.0  0.41664  0.74880  0.89959  1.0000
  C   C1374     1.0  0.22636  0.83315  0.50041  1.0000
  C   C1375     1.0  0.31920  0.93228  0.75014  1.0000
  C   C1376     1.0  0.32344  0.93468  0.77058  1.0000
  C   C1377     1.0  0.32070  0.91858  0.78483  1.0000
  C   C1378     1.0  0.31378  0.90006  0.77862  1.0000
  C   C1379     1.0  0.30944  0.89755  0.75808  1.0000
  C   C1380     1.0  0.31258  0.91370  0.74382  1.0000
  P   P47       1.0  0.30257  0.87290  0.75002  1.0000
  C   C1381     1.0  0.29124  0.87410  0.72528  1.0000
  C   C1382     1.0  0.32593  0.85724  0.75076  1.0000
  C   C1383     1.0  0.33962  0.85680  0.73374  1.0000
  C   C1384     1.0  0.35822  0.84557  0.73463  1.0000
  C   C1385     1.0  0.36345  0.83495  0.75267  1.0000
  C   C1386     1.0  0.35007  0.83557  0.76981  1.0000
  C   C1387     1.0  0.33145  0.84680  0.76896  1.0000
  C   C1388     1.0  0.29523  0.85845  0.71148  1.0000
  C   C1389     1.0  0.28624  0.85944  0.69247  1.0000
  C   C1390     1.0  0.27281  0.87575  0.68727  1.0000
  C   C1391     1.0  0.26819  0.89101  0.70116  1.0000
  C   C1392     1.0  0.27718  0.89010  0.72018  1.0000
  C   C1393     1.0  0.28316  0.86263  0.76727  1.0000
  C   C1394     1.0  0.28089  0.84150  0.76900  1.0000
  C   C1395     1.0  0.26570  0.83343  0.78217  1.0000
  C   C1396     1.0  0.25249  0.84643  0.79345  1.0000
  C   C1397     1.0  0.25438  0.86752  0.79145  1.0000
  C   C1398     1.0  0.26958  0.87562  0.77831  1.0000
  H   H1091     1.0  0.32157  0.94462  0.73905  1.0000
  C   C1399     1.0  0.48531  0.81998  0.74736  1.0000
  H   H1092     1.0  0.32458  0.92028  0.80055  1.0000
  H   H1093     1.0  0.31236  0.88752  0.78972  1.0000
  H   H1094     1.0  0.31055  0.91187  0.72771  1.0000
  H   H1095     1.0  0.33607  0.86540  0.71988  1.0000
  H   H1096     1.0  0.36877  0.84551  0.72146  1.0000
  H   H1097     1.0  0.37811  0.82667  0.75358  1.0000
  H   H1098     1.0  0.35444  0.82772  0.78393  1.0000
  H   H1099     1.0  0.32163  0.84762  0.78262  1.0000
  H   H1100     1.0  0.30533  0.84551  0.71525  1.0000
  H   H1101     1.0  0.28997  0.84779  0.68150  1.0000
  H   H1102     1.0  0.26630  0.87671  0.67229  1.0000
  H   H1103     1.0  0.25781  0.90368  0.69703  1.0000
  H   H1104     1.0  0.27330  0.90198  0.73082  1.0000
  H   H1105     1.0  0.29088  0.83127  0.76017  1.0000
  H   H1106     1.0  0.26414  0.81709  0.78359  1.0000
  H   H1107     1.0  0.24072  0.84017  0.80366  1.0000
  H   H1108     1.0  0.24402  0.87761  0.80004  1.0000
  H   H1109     1.0  0.27064  0.89201  0.77672  1.0000
  H   H1110     1.0  0.46734  0.82993  0.77360  1.0000
  C   C1400     1.0  0.45162  0.83118  0.91957  1.0000
  C   C1401     1.0  0.45742  0.84604  0.93255  1.0000
  H   H1111     1.0  0.45874  0.75058  0.85384  1.0000
  H   H1112     1.0  0.08439  0.77426  0.50044  1.0000
  H   H1113     1.0  0.32934  0.99288  0.67460  1.0000
  C   C1402     1.0  0.22682  0.83022  0.56370  1.0000
  S   S192      1.0  0.09403  0.76143  0.54100  1.0000
  C   C1403     1.0  0.45279  0.95686  0.76173  1.0000
  C   C1404     1.0  0.44854  0.78745  0.96890  1.0000
  H   H1114     1.0  0.47426  0.84958  0.88032  1.0000
  H   H1115     1.0  0.43852  0.83404  0.91014  1.0000
  C   C1405     1.0  0.03527  0.76134  0.53833  1.0000
  H   H1116     1.0  0.42539  0.97005  0.63668  1.0000
  C   C1406     1.0  0.04177  0.78814  0.50475  1.0000
  H   H1117     1.0  0.21603  0.79743  0.66287  1.0000
  P   P48       1.0  0.19767  0.83305  0.53337  1.0000
  C   C1407     1.0  0.20069  0.80409  0.66501  1.0000
  C   C1408     1.0  0.18458  0.79183  0.67159  1.0000
  C   C1409     1.0  0.46270  0.81256  0.91877  1.0000
  C   C1410     1.0  0.37829  0.75693  0.98321  1.0000
  H   H1118     1.0  0.27946  0.85278  0.49728  1.0000
  H   H1119     1.0  0.34001  0.95659  0.68106  1.0000
  C   C1411     1.0  0.16455  0.80030  0.67370  1.0000
  C   C1412     1.0  0.17700  0.81557  0.53398  1.0000
  H   H1120     1.0  0.17028  0.81963  0.50198  1.0000
  Fe  Fe96      1.0  0.08174  0.76064  0.61599  1.0000
  C   C1413     1.0  0.21799  0.82058  0.54769  1.0000
  H   H1121     1.0  0.44880  0.86048  0.93313  1.0000
  C   C1414     1.0  0.16105  0.82133  0.66996  1.0000
  C   C1415     1.0  0.14012  0.79146  0.75221  1.0000
  C   C1416     1.0  0.25056  0.90538  0.49811  1.0000
  H   H1122     1.0  0.16342  0.76577  0.64662  1.0000
  H   H1123     1.0  0.47309  0.82329  0.73689  1.0000
  C   C1417     1.0  0.48682  0.86986  0.80730  1.0000
  C   C1418     1.0  0.14598  0.78728  0.53515  1.0000
  H   H1124     1.0  0.14583  0.82831  0.67180  1.0000
  H   H1125     1.0  0.17439  0.84967  0.66002  1.0000
  C   C1419     1.0  0.20162  0.87400  0.54077  1.0000
  C   C1420     1.0  0.15632  0.79074  0.55277  1.0000
  H   H1126     1.0  0.15233  0.78247  0.56688  1.0000
  C   C1421     1.0  0.34146  0.96760  0.69272  1.0000
  H   H1127     1.0  0.17865  0.85616  0.49965  1.0000
  C   C1422     1.0  0.34965  0.96118  0.71132  1.0000
  H   H1128     1.0  0.14309  0.79493  0.50324  1.0000
  C   C1423     1.0  0.03411  0.76898  0.50194  1.0000
  C   C1424     1.0  0.35163  0.97514  0.72652  1.0000
  C   C1425     1.0  0.40871  0.95344  0.58398  1.0000
  C   C1426     1.0  0.49107  0.76061  0.89715  1.0000
  C   C1427     1.0  0.48528  0.82341  0.94442  1.0000
  H   H1129     1.0  0.48040  0.98648  0.70464  1.0000
  C   C1428     1.0  0.39417  0.77050  0.98220  1.0000
  C   C1429     1.0  0.03089  0.75536  0.51872  1.0000
  H   H1130     1.0  0.31575  0.96892  0.63457  1.0000
  H   H1131     1.0  0.44966  0.94160  0.75734  1.0000
  H   H1132     1.0  0.39917  0.77715  0.96759  1.0000
  C   C1430     1.0  0.24009  0.79051  0.55429  1.0000
  H   H1133     1.0  0.39895  0.97270  0.71212  1.0000
  C   C1431     1.0  0.37607  0.99495  0.77832  1.0000
  H   H1134     1.0  0.13930  0.79306  0.76862  1.0000
  H   H1135     1.0  0.04199  0.76951  0.59140  1.0000
  H   H1136     1.0  0.47846  0.85391  0.95489  1.0000
  H   H1137     1.0  0.32073  0.75257  0.96176  1.0000
  H   H1138     1.0  0.24261  0.92015  0.49821  1.0000
  C   C1432     1.0  0.10084  0.75045  0.51725  1.0000
  H   H1139     1.0  0.35122  0.97390  0.64401  1.0000
  C   C1433     1.0  0.38778  0.98708  0.65566  1.0000
  H   H1140     1.0  0.00396  0.80311  0.53250  1.0000
  H   H1141     1.0  0.49185  0.93020  0.71949  1.0000
  H   H1142     1.0  0.49763  0.96304  0.68017  1.0000
  H   H1143     1.0  0.43600  0.99257  0.79532  1.0000
  H   H1144     1.0  0.44527  0.97990  0.60538  1.0000
  H   H1145     1.0  0.49538  0.82308  0.79749  1.0000
  C   C1434     1.0  0.34526  0.99554  0.72325  1.0000
  H   H1146     1.0  0.38485  0.99133  0.63990  1.0000
  H   H1147     1.0  0.16364  0.76197  0.71603  1.0000
  H   H1148     1.0  0.49818  0.75442  0.82671  1.0000
  C   C1435     1.0  0.49584  0.98062  0.70729  1.0000
  H   H1149     1.0  0.49808  0.85099  0.83213  1.0000
  C   C1436     1.0  0.49798  0.81998  0.78151  1.0000
  C   C1437     1.0  0.21759  0.99596  0.54630  1.0000
  C   C1438     1.0  0.46070  0.99627  0.77283  1.0000
  Fe  Fe97      1.0  0.61501  0.10171  0.27816  1.0000
  S   S193      1.0  0.63070  0.10507  0.24707  1.0000
  S   S194      1.0  0.62775  0.10857  0.30933  1.0000
  Fe  Fe98      1.0  0.57503  0.08800  0.25974  1.0000
  S   S195      1.0  0.58845  0.09015  0.22759  1.0000
  S   S196      1.0  0.54422  0.07328  0.26551  1.0000
  Fe  Fe99      1.0  0.61662  0.07504  0.24110  1.0000
  S   S197      1.0  0.63559  0.04932  0.22622  1.0000
  Fe  Fe100     1.0  0.60097  0.11996  0.23614  1.0000
  S   S198      1.0  0.59509  0.15119  0.21931  1.0000
  S   S199      1.0  0.60265  0.07108  0.27254  1.0000
  S   S200      1.0  0.58594  0.11839  0.26793  1.0000
  H   H1150     1.0  0.74762  0.00047  0.29292  1.0000
  S   S201      1.0  0.90262  0.23020  0.38100  1.0000
  C   C1439     1.0  0.83826  0.17922  0.49213  1.0000
  S   S202      1.0  0.61212  0.19820  0.13243  1.0000
  C   C1440     1.0  0.52984  0.22599  0.00409  1.0000
  C   C1441     1.0  0.69707  0.16320  0.41091  1.0000
  H   H1151     1.0  0.67789  0.02119  0.33710  1.0000
  S   S203      1.0  0.89195  0.22407  0.42991  1.0000
  H   H1152     1.0  0.56129  0.06644  0.11914  1.0000
  S   S204      1.0  0.95098  0.22239  0.42126  1.0000
  Fe  Fe101     1.0  0.87423  0.22438  0.40111  1.0000
  S   S205      1.0  0.84471  0.20690  0.39704  1.0000
  Fe  Fe102     1.0  0.73009  0.10485  0.38084  1.0000
  S   S206      1.0  0.75912  0.08506  0.38230  1.0000
  S   S207      1.0  0.71573  0.10322  0.34943  1.0000
  Fe  Fe103     1.0  0.73330  0.11501  0.42633  1.0000
  S   S208      1.0  0.76154  0.09528  0.43055  1.0000
  S   S209      1.0  0.71840  0.13307  0.45220  1.0000
  Fe  Fe104     1.0  0.77225  0.10972  0.40037  1.0000
  S   S210      1.0  0.80570  0.11885  0.39578  1.0000
  Fe  Fe105     1.0  0.74595  0.07268  0.41205  1.0000
  S   S211      1.0  0.73879  0.03995  0.42105  1.0000
  S   S212      1.0  0.74439  0.13050  0.39666  1.0000
  S   S213      1.0  0.71660  0.09162  0.41014  1.0000
  C   C1442     1.0  0.75018  0.01708  0.41170  1.0000
  C   C1443     1.0  0.76900  0.01658  0.40086  1.0000
  H   H1153     1.0  0.73243  0.18117  0.44869  1.0000
  H   H1154     1.0  0.77701  0.03048  0.39817  1.0000
  C   C1444     1.0  0.52750  0.12959  0.21275  1.0000
  C   C1445     1.0  0.53303  0.18415  0.23195  1.0000
  C   C1446     1.0  0.72285  0.13240  0.47885  1.0000
  H   H1155     1.0  0.81549  0.00514  0.46101  1.0000
  H   H1156     1.0  0.70236  0.15854  0.48292  1.0000
  H   H1157     1.0  0.74419  0.10643  0.48016  1.0000
  C   C1447     1.0  0.83447  0.18204  0.39811  1.0000
  C   C1448     1.0  0.81304  0.18039  0.39956  1.0000
  C   C1449     1.0  0.80403  0.16123  0.39950  1.0000
  C   C1450     1.0  0.81630  0.14336  0.39757  1.0000
  C   C1451     1.0  0.83772  0.14500  0.39623  1.0000
  C   C1452     1.0  0.84676  0.16413  0.39675  1.0000
  H   H1158     1.0  0.80331  0.19407  0.40061  1.0000
  H   H1159     1.0  0.78756  0.16036  0.40037  1.0000
  H   H1160     1.0  0.84743  0.13137  0.39455  1.0000
  H   H1161     1.0  0.86323  0.16504  0.39551  1.0000
  H   H1162     1.0  0.79819  0.21500  0.47338  1.0000
  C   C1453     1.0  0.70794  0.18064  0.40592  1.0000
  H   H1163     1.0  0.86450  0.21799  0.46916  1.0000
  Fe  Fe106     1.0  0.60429  0.22998  0.11746  1.0000
  C   C1454     1.0  0.54471  0.06611  0.14823  1.0000
  C   C1455     1.0  0.56668  0.18276  0.10754  1.0000
  C   C1456     1.0  0.68631  0.16245  0.32854  1.0000
  C   C1457     1.0  0.74749  0.17656  0.45388  1.0000
  C   C1458     1.0  0.60053  0.16388  0.19508  1.0000
  C   C1459     1.0  0.60940  0.15381  0.17825  1.0000
  C   C1460     1.0  0.61269  0.16451  0.15929  1.0000
  C   C1461     1.0  0.60730  0.18546  0.15680  1.0000
  C   C1462     1.0  0.59851  0.19550  0.17367  1.0000
  C   C1463     1.0  0.59500  0.18477  0.19253  1.0000
  H   H1164     1.0  0.61367  0.13776  0.17979  1.0000
  H   H1165     1.0  0.61956  0.15650  0.14647  1.0000
  H   H1166     1.0  0.59478  0.21163  0.17234  1.0000
  H   H1167     1.0  0.58818  0.19282  0.20537  1.0000
  C   C1464     1.0  0.65220  0.10576  0.32047  1.0000
  C   C1465     1.0  0.66985  0.09886  0.30960  1.0000
  C   C1466     1.0  0.68902  0.09814  0.31884  1.0000
  C   C1467     1.0  0.69084  0.10385  0.33913  1.0000
  C   C1468     1.0  0.67311  0.11028  0.35016  1.0000
  C   C1469     1.0  0.65397  0.11126  0.34086  1.0000
  H   H1168     1.0  0.66880  0.09462  0.29392  1.0000
  H   H1169     1.0  0.70264  0.09353  0.31010  1.0000
  H   H1170     1.0  0.67410  0.11475  0.36575  1.0000
  H   H1171     1.0  0.64044  0.11659  0.34945  1.0000
  C   C1470     1.0  0.51956  0.08576  0.26515  1.0000
  C   C1471     1.0  0.51647  0.10649  0.26898  1.0000
  H   H1172     1.0  0.50401  0.21457  0.15782  1.0000
  H   H1173     1.0  0.52941  0.11546  0.27191  1.0000
  H   H1174     1.0  0.54973  0.99845  0.21192  1.0000
  C   C1472     1.0  0.62007  0.01118  0.23877  1.0000
  C   C1473     1.0  0.63161  0.02286  0.22439  1.0000
  C   C1474     1.0  0.64191  0.01302  0.20821  1.0000
  H   H1175     1.0  0.61214  0.01857  0.25144  1.0000
  H   H1176     1.0  0.65085  0.02175  0.19703  1.0000
  H   H1177     1.0  0.62014  0.07444  0.34760  1.0000
  C   C1475     1.0  0.66209  0.04412  0.28435  1.0000
  C   C1476     1.0  0.68209  0.03651  0.28706  1.0000
  C   C1477     1.0  0.68769  0.02816  0.30606  1.0000
  C   C1478     1.0  0.67323  0.02734  0.32235  1.0000
  C   C1479     1.0  0.65287  0.03427  0.31957  1.0000
  C   C1480     1.0  0.64752  0.04297  0.30051  1.0000
  P   P49       1.0  0.63389  0.03182  0.34031  1.0000
  C   C1481     1.0  0.97892  0.22549  0.38816  1.0000
  H   H1178     1.0  0.53082  0.07700  0.09940  1.0000
  H   H1179     1.0  0.84605  0.14516  0.45027  1.0000
  H   H1180     1.0  0.70323  0.02239  0.30821  1.0000
  C   C1482     1.0  0.61109  0.04692  0.33384  1.0000
  C   C1483     1.0  0.59621  0.03867  0.32207  1.0000
  C   C1484     1.0  0.57901  0.05055  0.31622  1.0000
  H   H1181     1.0  0.65771  0.05070  0.26961  1.0000
  H   H1182     1.0  0.69321  0.03709  0.27439  1.0000
  C   C1485     1.0  0.73573  0.11783  0.48892  1.0000
  C   C1486     1.0  0.78553  0.16248  0.46835  1.0000
  H   H1183     1.0  0.63214  0.04892  0.29799  1.0000
  H   H1184     1.0  0.79553  0.18013  0.35813  1.0000
  C   C1487     1.0  0.53945  0.14584  0.13428  1.0000
  C   C1488     1.0  0.54608  0.18991  0.10811  1.0000
  H   H1185     1.0  0.70214  0.01702  0.46321  1.0000
  H   H1186     1.0  0.77727  0.18068  0.49441  1.0000
  H   H1187     1.0  0.69292  0.20861  0.35563  1.0000
  C   C1489     1.0  0.59140  0.07917  0.33337  1.0000
  H   H1188     1.0  0.58996  0.09512  0.33704  1.0000
  C   C1490     1.0  0.74826  0.16547  0.34606  1.0000
  H   H1189     1.0  0.56303  0.11412  0.16923  1.0000
  C   C1491     1.0  0.84335  0.19978  0.45434  1.0000
  P   P50       1.0  0.53082  0.18772  0.13175  1.0000
  C   C1492     1.0  0.57838  0.03996  0.20298  1.0000
  C   C1493     1.0  0.57358  0.01993  0.20839  1.0000
  H   H1190     1.0  0.67982  0.02579  0.22436  1.0000
  C   C1494     1.0  0.77310  0.13684  0.34592  1.0000
  C   C1495     1.0  0.95819  0.23293  0.47743  1.0000
  C   C1496     1.0  0.55342  0.01398  0.20758  1.0000
  H   H1191     1.0  0.77388  0.03384  0.36261  1.0000
  H   H1192     1.0  0.58042  0.19686  0.05854  1.0000
  C   C1497     1.0  0.66185  0.05550  0.39786  1.0000
  H   H1193     1.0  0.50467  0.05828  0.25877  1.0000
  C   C1498     1.0  0.54288  0.24413  0.16864  1.0000
  C   C1499     1.0  0.54274  0.04813  0.19547  1.0000
  H   H1194     1.0  0.59402  0.04460  0.20386  1.0000
  C   C1500     1.0  0.77285  0.17603  0.47970  1.0000
  H   H1195     1.0  0.64508  0.03237  0.41454  1.0000
  H   H1196     1.0  0.55532  0.20615  0.01299  1.0000
  C   C1501     1.0  0.96750  0.23969  0.49462  1.0000
  C   C1502     1.0  0.73463  0.20964  0.32270  1.0000
  H   H1197     1.0  0.56778  0.04434  0.30676  1.0000
  H   H1198     1.0  0.62973  0.01980  0.38402  1.0000
  C   C1503     1.0  0.63995  0.03228  0.38227  1.0000
  C   C1504     1.0  0.81396  0.09687  0.45319  1.0000
  C   C1505     1.0  0.83186  0.09753  0.44087  1.0000
  C   C1506     1.0  0.84339  0.11494  0.44006  1.0000
  C   C1507     1.0  0.83694  0.13182  0.45136  1.0000
  H   H1199     1.0  0.59499  0.18023  0.08973  1.0000
  H   H1200     1.0  0.50564  0.19275  0.18937  1.0000
  C   C1508     1.0  0.70445  0.21455  0.34494  1.0000
  H   H1201     1.0  0.55825  0.06155  0.15642  1.0000
  H   H1202     1.0  0.74141  0.13453  0.33987  1.0000
  H   H1203     1.0  0.67824  0.16885  0.34171  1.0000
  C   C1509     1.0  0.71155  0.17082  0.37055  1.0000
  H   H1204     1.0  0.73403  0.15573  0.30631  1.0000
  H   H1205     1.0  0.54275  0.08033  0.22222  1.0000
  C   C1510     1.0  0.72054  0.20178  0.33736  1.0000
  H   H1206     1.0  0.71091  0.19107  0.41770  1.0000
  C   C1511     1.0  0.57664  0.07082  0.32181  1.0000
  H   H1207     1.0  0.76014  0.19404  0.35463  1.0000
  H   H1208     1.0  0.54747  0.11366  0.13532  1.0000
  H   H1209     1.0  0.66866  0.06097  0.41130  1.0000
  C   C1512     1.0  0.80539  0.22324  0.48492  1.0000
  H   H1210     1.0  0.56366  0.08021  0.31667  1.0000
  C   C1513     1.0  0.66637  0.06459  0.37870  1.0000
  C   C1514     1.0  0.72911  0.01213  0.35004  1.0000
  H   H1211     1.0  0.54415  0.20911  0.05900  1.0000
  H   H1212     1.0  0.78429  0.00274  0.34597  1.0000
  H   H1213     1.0  0.80494  0.08347  0.45379  1.0000
  H   H1214     1.0  0.83664  0.08469  0.43171  1.0000
  H   H1215     1.0  0.85715  0.11554  0.43031  1.0000
  C   C1515     1.0  0.62738  0.00545  0.34492  1.0000
  C   C1516     1.0  0.55647  0.12801  0.16227  1.0000
  H   H1216     1.0  0.54863  0.18445  0.23693  1.0000
  C   C1517     1.0  0.70096  0.15315  0.37578  1.0000
  C   C1518     1.0  0.64863  0.03937  0.39965  1.0000
  C   C1519     1.0  0.55546  0.21617  0.14797  1.0000
  C   C1520     1.0  0.71530  0.18438  0.38585  1.0000
  C   C1521     1.0  0.75313  0.14473  0.34341  1.0000
  C   C1522     1.0  0.76364  0.17818  0.35159  1.0000
  H   H1217     1.0  0.69046  0.24487  0.34439  1.0000
  H   H1218     1.0  0.67668  0.07705  0.37735  1.0000
  C   C1523     1.0  0.60859  0.06733  0.33933  1.0000
  C   C1524     1.0  0.71004  0.02051  0.23594  1.0000
  P   P51       1.0  0.52315  0.06610  0.18609  1.0000
  C   C1525     1.0  0.71719  0.04847  0.36873  1.0000
  H   H1219     1.0  0.80075  0.05436  0.37572  1.0000
  H   H1220     1.0  0.50887  0.14061  0.18811  1.0000
  H   H1221     1.0  0.49910  0.03435  0.16992  1.0000
  C   C1526     1.0  0.73720  0.03056  0.34251  1.0000
  C   C1527     1.0  0.73094  0.04873  0.35188  1.0000
  P   P52       1.0  0.75705  0.03089  0.32249  1.0000
  C   C1528     1.0  0.80743  0.11370  0.46449  1.0000
  C   C1529     1.0  0.74815  0.04259  0.29884  1.0000
  C   C1530     1.0  0.75950  0.03942  0.28048  1.0000
  C   C1531     1.0  0.75332  0.04908  0.26223  1.0000
  C   C1532     1.0  0.73570  0.06189  0.26212  1.0000
  C   C1533     1.0  0.72439  0.06521  0.28030  1.0000
  C   C1534     1.0  0.73062  0.05572  0.29864  1.0000
  C   C1535     1.0  0.70776  0.16262  0.32645  1.0000
  C   C1536     1.0  0.56308  0.05397  0.19644  1.0000
  C   C1537     1.0  0.99265  0.22624  0.42175  1.0000
  P   P53       1.0  0.72203  0.17512  0.34494  1.0000
  H   H1222     1.0  0.59710  0.01272  0.35805  1.0000
  C   C1538     1.0  0.77754  0.04539  0.33150  1.0000
  C   C1539     1.0  0.78827  0.05897  0.31837  1.0000
  C   C1540     1.0  0.80334  0.07078  0.32591  1.0000
  C   C1541     1.0  0.80788  0.06910  0.34656  1.0000
  C   C1542     1.0  0.79744  0.05550  0.35965  1.0000
  C   C1543     1.0  0.78226  0.04383  0.35219  1.0000
  H   H1223     1.0  0.71298  0.06251  0.37622  1.0000
  C   C1544     1.0  0.60811  0.00072  0.35367  1.0000
  C   C1545     1.0  0.53975  0.16425  0.14442  1.0000
  C   C1546     1.0  0.51642  0.12739  0.19532  1.0000
  H   H1224     1.0  0.73720  0.06308  0.34660  1.0000
  H   H1225     1.0  0.77337  0.02977  0.28037  1.0000
  H   H1226     1.0  0.76226  0.04674  0.24816  1.0000
  H   H1227     1.0  0.73089  0.06941  0.24799  1.0000
  H   H1228     1.0  0.71076  0.07522  0.28018  1.0000
  H   H1229     1.0  0.72171  0.05880  0.31253  1.0000
  C   C1547     1.0  0.50375  0.18813  0.12686  1.0000
  H   H1230     1.0  0.75531  0.15874  0.42768  1.0000
  C   C1548     1.0  0.65775  0.05756  0.36128  1.0000
  C   C1549     1.0  0.51534  0.10820  0.18705  1.0000
  C   C1550     1.0  0.52564  0.06919  0.15855  1.0000
  H   H1231     1.0  0.78491  0.06081  0.30240  1.0000
  H   H1232     1.0  0.81138  0.08142  0.31579  1.0000
  H   H1233     1.0  0.81930  0.07850  0.35249  1.0000
  C   C1551     1.0  0.53846  0.01321  0.25983  1.0000
  C   C1552     1.0  0.95514  0.21221  0.47554  1.0000
  C   C1553     1.0  0.53793  0.19907  0.09030  1.0000
  H   H1234     1.0  0.85664  0.22000  0.35295  1.0000
  H   H1235     1.0  0.75705  0.06245  0.47984  1.0000
  H   H1236     1.0  0.55012  0.17835  0.17126  1.0000
  H   H1237     1.0  0.54581  0.11434  0.23568  1.0000
  C   C1554     1.0  0.51747  0.17731  0.24542  1.0000
  C   C1555     1.0  0.52520  0.09102  0.19633  1.0000
  H   H1238     1.0  0.69972  0.02985  0.39011  1.0000
  H   H1239     1.0  0.52255  0.02300  0.20111  1.0000
  C   C1556     1.0  0.55024  0.20131  0.07245  1.0000
  H   H1240     1.0  0.94785  0.20705  0.46225  1.0000
  C   C1557     1.0  0.53727  0.11263  0.22209  1.0000
  C   C1558     1.0  0.74021  0.99880  0.41581  1.0000
  H   H1241     1.0  0.52861  0.14441  0.21905  1.0000
  H   H1242     1.0  0.58550  0.00902  0.21322  1.0000
  C   C1559     1.0  0.83084  0.24144  0.35501  1.0000
  H   H1243     1.0  0.50232  0.22019  0.11773  1.0000
  C   C1560     1.0  0.85428  0.20543  0.47091  1.0000
  C   C1561     1.0  0.53557  0.20930  0.14701  1.0000
  C   C1562     1.0  0.82728  0.17330  0.47552  1.0000
  C   C1563     1.0  0.81596  0.24070  0.47927  1.0000
  H   H1244     1.0  0.69432  0.05392  0.46738  1.0000
  H   H1245     1.0  0.72183  0.07654  0.47556  1.0000
  C   C1564     1.0  0.70961  0.03008  0.37645  1.0000
  H   H1246     1.0  0.54296  0.02870  0.26168  1.0000
  C   C1565     1.0  0.72522  0.06036  0.47408  1.0000
  H   H1247     1.0  0.56717  0.06938  0.19212  1.0000
  C   C1566     1.0  0.78369  0.17034  0.35374  1.0000
  H   H1248     1.0  0.72414  0.19769  0.38233  1.0000
  C   C1567     1.0  0.68952  0.01619  0.23415  1.0000
  H   H1249     1.0  0.52228  0.20494  0.09009  1.0000
  H   H1250     1.0  0.79219  0.99772  0.38543  1.0000
  C   C1568     1.0  0.61168  0.23262  0.02004  1.0000
  H   H1251     1.0  0.56395  0.14643  0.18706  1.0000
  C   C1569     1.0  0.81882  0.13132  0.46359  1.0000
  H   H1252     1.0  0.87877  0.24412  0.33326  1.0000
  H   H1253     1.0  0.81656  0.03244  0.48962  1.0000
  C   C1570     1.0  0.70968  0.04759  0.46951  1.0000
  C   C1571     1.0  0.71228  0.14722  0.49040  1.0000
  H   H1254     1.0  0.73848  0.01113  0.24958  1.0000
  H   H1255     1.0  0.50668  0.10689  0.17355  1.0000
  C   C1572     1.0  0.53578  0.09335  0.21418  1.0000
  H   H1256     1.0  0.54077  0.19512  0.20143  1.0000
  C   C1573     1.0  0.73310  0.23019  0.31632  1.0000
  H   H1257     1.0  0.57428  0.23933  0.15853  1.0000
  C   C1574     1.0  0.67503  0.15391  0.31365  1.0000
  C   C1575     1.0  0.68501  0.14590  0.29632  1.0000
  C   C1576     1.0  0.70629  0.14650  0.29382  1.0000
  C   C1577     1.0  0.69361  0.14944  0.39585  1.0000
  H   H1258     1.0  0.65853  0.15326  0.31558  1.0000
  H   H1259     1.0  0.67619  0.13910  0.28494  1.0000
  H   H1260     1.0  0.71396  0.14034  0.28033  1.0000
  H   H1261     1.0  0.68571  0.13563  0.39987  1.0000
  H   H1262     1.0  0.69884  0.14197  0.36450  1.0000
  C   C1578     1.0  0.52861  0.19000  0.21184  1.0000
  H   H1263     1.0  0.69172  0.16006  0.42655  1.0000
  H   H1264     1.0  0.53329  0.14559  0.11921  1.0000
  H   H1265     1.0  0.66139  0.06491  0.34656  1.0000
  C   C1579     1.0  0.71730  0.24292  0.32426  1.0000
  H   H1266     1.0  0.80379  0.14346  0.35343  1.0000
  P   P54       1.0  0.77575  0.02140  0.47670  1.0000
  C   C1580     1.0  0.74981  0.03146  0.47379  1.0000
  C   C1581     1.0  0.76034  0.16373  0.44210  1.0000
  Fe  Fe107     1.0  0.91953  0.23301  0.41008  1.0000
  H   H1267     1.0  0.57363  0.17606  0.12109  1.0000
  H   H1268     1.0  0.74670  0.19985  0.31607  1.0000
  C   C1582     1.0  0.54877  0.16434  0.16347  1.0000
  C   C1583     1.0  0.57891  0.18502  0.08967  1.0000
  C   C1584     1.0  0.53802  0.02802  0.20133  1.0000
  C   C1585     1.0  0.64453  0.04127  0.36292  1.0000
  C   C1586     1.0  0.71762  0.15503  0.30871  1.0000
  C   C1587     1.0  0.71408  0.02679  0.46725  1.0000
  C   C1588     1.0  0.73405  0.01870  0.46940  1.0000
  C   C1589     1.0  0.79246  0.02919  0.45536  1.0000
  C   C1590     1.0  0.81104  0.01823  0.45139  1.0000
  C   C1591     1.0  0.82399  0.02401  0.43486  1.0000
  C   C1592     1.0  0.81852  0.04077  0.42217  1.0000
  C   C1593     1.0  0.80005  0.05169  0.42594  1.0000
  C   C1594     1.0  0.78702  0.04585  0.44240  1.0000
  H   H1269     1.0  0.52101  0.17220  0.26085  1.0000
  C   C1595     1.0  0.78840  0.14966  0.35102  1.0000
  C   C1596     1.0  0.54762  0.12777  0.14326  1.0000
  H   H1270     1.0  0.77661  0.12069  0.34441  1.0000
  C   C1597     1.0  0.74517  0.05232  0.47637  1.0000
  C   C1598     1.0  0.55697  0.14627  0.17236  1.0000
  C   C1599     1.0  0.97565  0.22542  0.40938  1.0000
  H   H1271     1.0  0.71630  0.03341  0.22741  1.0000
  C   C1600     1.0  0.57073  0.19436  0.07215  1.0000
  C   C1601     1.0  0.52937  0.07486  0.11587  1.0000
  H   H1272     1.0  0.56823  0.20835  0.14023  1.0000
  C   C1602     1.0  0.72247  0.00805  0.24851  1.0000
  H   H1273     1.0  0.77258  0.05416  0.44469  1.0000
  C   C1603     1.0  0.77929  0.15668  0.44926  1.0000
  H   H1274     1.0  0.79332  0.11309  0.47373  1.0000
  C   C1604     1.0  0.68144  0.99935  0.24480  1.0000
  C   C1605     1.0  0.54653  0.06891  0.12699  1.0000
  H   H1275     1.0  0.82850  0.04521  0.40931  1.0000
  H   H1276     1.0  0.79568  0.06457  0.41598  1.0000
  C   C1606     1.0  0.71547  0.01193  0.36703  1.0000
  C   C1607     1.0  0.85070  0.23517  0.34869  1.0000
  H   H1277     1.0  0.50643  0.02140  0.26167  1.0000
  C   C1608     1.0  0.55342  0.99754  0.25737  1.0000
  C   C1609     1.0  0.55903  0.23360  0.15858  1.0000
  H   H1278     1.0  0.61894  0.22768  0.03402  1.0000
  H   H1279     1.0  0.59804  0.02320  0.31705  1.0000
  C   C1610     1.0  0.50248  0.07430  0.26171  1.0000
  H   H1280     1.0  0.62248  0.00905  0.29064  1.0000
  H   H1281     1.0  0.96604  0.22455  0.37848  1.0000
  C   C1611     1.0  0.77582  0.23453  0.12561  1.0000
  P   P55       1.0  0.80965  0.15280  0.47815  1.0000
  S   S214      1.0  0.57384  0.23581  0.10299  1.0000
  C   C1612     1.0  0.50864  0.18902  0.20519  1.0000
  H   H1282     1.0  0.78881  0.14653  0.43991  1.0000
  H   H1283     1.0  0.52378  0.22704  0.01962  1.0000
  H   H1284     1.0  0.95948  0.18206  0.48899  1.0000
  C   C1613     1.0  0.70293  0.23509  0.33850  1.0000
  H   H1285     1.0  0.84530  0.20787  0.43974  1.0000
  H   H1286     1.0  0.73385  0.99775  0.34348  1.0000
  H   H1287     1.0  0.82160  0.17965  0.44352  1.0000
  C   C1614     1.0  0.50847  0.07520  0.14722  1.0000
  C   C1615     1.0  0.51948  0.21962  0.15781  1.0000
  H   H1288     1.0  0.75782  0.22416  0.15193  1.0000
  C   C1616     1.0  0.82988  0.18383  0.45659  1.0000
  C   C1617     1.0  0.52313  0.23705  0.16841  1.0000
  H   H1289     1.0  0.73709  0.00261  0.46721  1.0000
  C   C1618     1.0  0.51769  0.00900  0.25977  1.0000
  C   C1619     1.0  0.96167  0.19813  0.49064  1.0000
  C   C1620     1.0  0.75379  0.18283  0.47261  1.0000
  H   H1290     1.0  0.99032  0.22597  0.43818  1.0000
  H   H1291     1.0  0.83821  0.01537  0.43180  1.0000
  C   C1621     1.0  0.75964  0.23603  0.14013  1.0000
  H   H1292     1.0  0.78657  0.22151  0.12615  1.0000
  H   H1293     1.0  0.65811  0.00291  0.27868  1.0000
  H   H1294     1.0  0.82152  0.23103  0.36416  1.0000
  C   C1622     1.0  0.76603  0.00477  0.31901  1.0000
  C   C1623     1.0  0.77758  0.99800  0.39378  1.0000
  C   C1624     1.0  0.85173  0.19515  0.48981  1.0000
  H   H1295     1.0  0.74367  0.19252  0.48187  1.0000
  H   H1296     1.0  0.90204  0.23877  0.47220  1.0000
  S   S215      1.0  0.62173  0.24052  0.08853  1.0000
  H   H1297     1.0  0.72578  0.99901  0.42448  1.0000
  C   C1625     1.0  0.51035  0.07802  0.12599  1.0000
  C   C1626     1.0  0.62189  0.22953  0.00097  1.0000
  H   H1298     1.0  0.74406  0.23618  0.30504  1.0000
  H   H1299     1.0  0.95340  0.24360  0.46539  1.0000
  C   C1627     1.0  0.54753  0.21374  0.00035  1.0000
  H   H1300     1.0  0.56950  0.00085  0.25728  1.0000
  S   S216      1.0  0.57769  0.24423  0.04433  1.0000
  C   C1628     1.0  0.59192  0.24162  0.02092  1.0000
  H   H1301     1.0  0.63708  0.22234  0.00041  1.0000
  H   H1302     1.0  0.51062  0.24549  0.17595  1.0000
  H   H1303     1.0  0.71008  0.99761  0.37344  1.0000
  H   H1304     1.0  0.81691  0.24606  0.46341  1.0000
  H   H1305     1.0  0.49914  0.15651  0.13597  1.0000
  C   C1629     1.0  0.89628  0.24632  0.48575  1.0000
  C   C1630     1.0  0.85747  0.16994  0.54940  1.0000
  S   S217      1.0  0.58460  0.23043  0.91597  1.0000
  H   H1306     1.0  0.74274  0.19516  0.54143  1.0000
  H   H1307     1.0  0.52599  0.07183  0.85630  1.0000
  Fe  Fe108     1.0  0.60201  0.23068  0.88535  1.0000
  S   S218      1.0  0.59699  0.20130  0.86788  1.0000
  C   C1631     1.0  0.99155  0.21367  0.57013  1.0000
  S   S219      1.0  0.90508  0.22082  0.59850  1.0000
  Fe  Fe109     1.0  0.87578  0.23029  0.61530  1.0000
  S   S220      1.0  0.84821  0.21122  0.62604  1.0000
  H   H1308     1.0  0.69275  0.18435  0.68547  1.0000
  S   S221      1.0  0.95190  0.23231  0.63359  1.0000
  Fe  Fe110     1.0  0.75258  0.07531  0.59640  1.0000
  S   S222      1.0  0.72228  0.09312  0.59634  1.0000
  S   S223      1.0  0.74837  0.04237  0.58779  1.0000
  Fe  Fe111     1.0  0.77641  0.11461  0.60304  1.0000
  S   S224      1.0  0.74721  0.13390  0.60395  1.0000
  S   S225      1.0  0.80859  0.12810  0.60126  1.0000
  Fe  Fe112     1.0  0.73339  0.10846  0.62358  1.0000
  S   S226      1.0  0.71648  0.11318  0.65475  1.0000
  Fe  Fe113     1.0  0.73898  0.11641  0.57664  1.0000
  S   S227      1.0  0.72678  0.13461  0.54894  1.0000
  S   S228      1.0  0.76338  0.08989  0.62438  1.0000
  S   S229      1.0  0.76838  0.09791  0.57506  1.0000
  Fe  Fe114     1.0  0.59869  0.12810  0.76587  1.0000
  S   S230      1.0  0.58352  0.12939  0.73536  1.0000
  S   S231      1.0  0.60203  0.15938  0.78036  1.0000
  Fe  Fe115     1.0  0.60536  0.08111  0.76407  1.0000
  S   S232      1.0  0.59126  0.08025  0.73376  1.0000
  S   S233      1.0  0.61528  0.05109  0.78019  1.0000
  Fe  Fe116     1.0  0.60951  0.10769  0.72492  1.0000
  S   S234      1.0  0.62456  0.10873  0.69250  1.0000
  Fe  Fe117     1.0  0.56688  0.10162  0.74698  1.0000
  S   S235      1.0  0.53455  0.08973  0.74913  1.0000
  S   S236      1.0  0.62532  0.10746  0.75477  1.0000
  S   S237      1.0  0.58059  0.10163  0.77788  1.0000
  H   H1309     1.0  0.62611  0.00866  0.78957  1.0000
  C   C1632     1.0  0.60497  0.02807  0.77255  1.0000
  C   C1633     1.0  0.58828  0.02837  0.75988  1.0000
  H   H1310     1.0  0.53729  0.23662  0.90509  1.0000
  H   H1311     1.0  0.58134  0.04272  0.75462  1.0000
  H   H1312     1.0  0.68683  0.14035  0.63317  1.0000
  C   C1634     1.0  0.51046  0.10063  0.74212  1.0000
  H   H1313     1.0  0.93545  0.19698  0.57463  1.0000
  C   C1635     1.0  0.52267  0.24492  0.90629  1.0000
  H   H1314     1.0  0.52182  0.12660  0.72498  1.0000
  C   C1636     1.0  0.69105  0.11014  0.66524  1.0000
  C   C1637     1.0  0.68691  0.11362  0.68612  1.0000
  C   C1638     1.0  0.66689  0.11245  0.69495  1.0000
  C   C1639     1.0  0.65055  0.10826  0.68287  1.0000
  C   C1640     1.0  0.65472  0.10460  0.66204  1.0000
  C   C1641     1.0  0.67482  0.10524  0.65335  1.0000
  H   H1315     1.0  0.69929  0.11739  0.69551  1.0000
  H   H1316     1.0  0.66400  0.11538  0.71094  1.0000
  H   H1317     1.0  0.64226  0.10134  0.65252  1.0000
  H   H1318     1.0  0.67768  0.10234  0.63735  1.0000
  C   C1642     1.0  0.72632  0.13281  0.52192  1.0000
  H   H1319     1.0  0.51933  0.13555  0.84004  1.0000
  C   C1643     1.0  0.73735  0.11794  0.51051  1.0000
  H   H1320     1.0  0.70558  0.15907  0.52010  1.0000
  H   H1321     1.0  0.74703  0.10660  0.51827  1.0000
  C   C1644     1.0  0.97118  0.20477  0.50771  1.0000
  C   C1645     1.0  0.75598  0.01843  0.59931  1.0000
  C   C1646     1.0  0.79369  0.18670  0.56932  1.0000
  C   C1647     1.0  0.81427  0.22650  0.52025  1.0000
  H   H1322     1.0  0.85782  0.19725  0.75857  1.0000
  C   C1648     1.0  0.83719  0.18854  0.61784  1.0000
  C   C1649     1.0  0.81725  0.18395  0.62505  1.0000
  C   C1650     1.0  0.80814  0.16587  0.61974  1.0000
  C   C1651     1.0  0.81892  0.15182  0.60742  1.0000
  C   C1652     1.0  0.83875  0.15652  0.59999  1.0000
  C   C1653     1.0  0.84774  0.17481  0.60494  1.0000
  H   H1323     1.0  0.80886  0.19439  0.63500  1.0000
  H   H1324     1.0  0.79292  0.16251  0.62545  1.0000
  H   H1325     1.0  0.84733  0.14583  0.59047  1.0000
  H   H1326     1.0  0.86305  0.17800  0.59924  1.0000
  H   H1327     1.0  0.77250  0.13406  0.54336  1.0000
  H   H1328     1.0  0.75490  0.03143  0.51558  1.0000
  C   C1654     1.0  0.50925  0.12702  0.85022  1.0000
  C   C1655     1.0  0.83214  0.21880  0.75640  1.0000
  C   C1656     1.0  0.78720  0.13443  0.53511  1.0000
  C   C1657     1.0  0.59853  0.19006  0.84330  1.0000
  C   C1658     1.0  0.60412  0.20093  0.82528  1.0000
  C   C1659     1.0  0.60505  0.19130  0.80630  1.0000
  C   C1660     1.0  0.60038  0.17068  0.80489  1.0000
  C   C1661     1.0  0.59462  0.15986  0.82287  1.0000
  C   C1662     1.0  0.59375  0.16946  0.84187  1.0000
  H   H1329     1.0  0.60780  0.21676  0.82597  1.0000
  H   H1330     1.0  0.60950  0.19992  0.79256  1.0000
  H   H1331     1.0  0.59088  0.14407  0.82209  1.0000
  H   H1332     1.0  0.58939  0.16083  0.85562  1.0000
  C   C1663     1.0  0.83887  0.18102  0.54747  1.0000
  C   C1664     1.0  0.54637  0.24271  0.81660  1.0000
  H   H1333     1.0  0.55292  0.18411  0.85417  1.0000
  H   H1334     1.0  0.54262  0.08104  0.79232  1.0000
  H   H1335     1.0  0.50688  0.15064  0.87218  1.0000
  H   H1336     1.0  0.54187  0.04556  0.77301  1.0000
  C   C1665     1.0  0.51367  0.17617  0.82323  1.0000
  C   C1666     1.0  0.52030  0.23672  0.98788  1.0000
  H   H1337     1.0  0.69670  0.19552  0.59727  1.0000
  C   C1667     1.0  0.68771  0.14818  0.58173  1.0000
  C   C1668     1.0  0.50833  0.11879  0.73038  1.0000
  P   P56       1.0  0.98669  0.23381  0.53192  1.0000
  H   H1338     1.0  0.68662  0.13987  0.56789  1.0000
  H   H1339     1.0  0.73088  0.20064  0.62496  1.0000
  C   C1669     1.0  0.59297  0.24504  0.98358  1.0000
  C   C1670     1.0  0.54104  0.01610  0.78869  1.0000
  C   C1671     1.0  0.67912  0.17695  0.68142  1.0000
  C   C1672     1.0  0.63241  0.03544  0.67008  1.0000
  C   C1673     1.0  0.77746  0.04240  0.53456  1.0000
  C   C1674     1.0  0.90427  0.24058  0.50485  1.0000
  H   H1340     1.0  0.56171  0.21664  0.83105  1.0000
  H   H1341     1.0  0.88969  0.17144  0.55449  1.0000
  C   C1675     1.0  0.50228  0.13560  0.86854  1.0000
  C   C1676     1.0  0.68593  0.13795  0.60073  1.0000
  C   C1677     1.0  0.80546  0.03509  0.50199  1.0000
  C   C1678     1.0  0.66543  0.17022  0.69695  1.0000
  C   C1679     1.0  0.64770  0.16073  0.69203  1.0000
  C   C1680     1.0  0.64351  0.15821  0.67161  1.0000
  C   C1681     1.0  0.65715  0.16490  0.65605  1.0000
  C   C1682     1.0  0.50192  0.19619  0.85205  1.0000
  H   H1342     1.0  0.70982  0.21973  0.65625  1.0000
  H   H1343     1.0  0.66863  0.17214  0.71280  1.0000
  H   H1344     1.0  0.63731  0.15498  0.70401  1.0000
  H   H1345     1.0  0.62989  0.15053  0.66791  1.0000
  H   H1346     1.0  0.65348  0.16282  0.64037  1.0000
  H   H1347     1.0  0.83965  0.13406  0.50538  1.0000
  H   H1348     1.0  0.92477  0.20728  0.66444  1.0000
  C   C1683     1.0  0.96423  0.19702  0.58936  1.0000
  H   H1349     1.0  0.99330  0.22615  0.64667  1.0000
  C   C1684     1.0  0.50624  0.12507  0.78821  1.0000
  C   C1685     1.0  0.69845  0.01432  0.55962  1.0000
  H   H1350     1.0  0.74625  0.16772  0.56819  1.0000
  C   C1686     1.0  0.71410  0.14750  0.51158  1.0000
  C   C1687     1.0  0.77721  0.17444  0.57447  1.0000
  H   H1351     1.0  0.79781  0.20178  0.50921  1.0000
  C   C1688     1.0  0.52175  0.19514  0.85929  1.0000
  C   C1689     1.0  0.53444  0.03114  0.77450  1.0000
  C   C1690     1.0  0.66570  0.02014  0.69219  1.0000
  C   C1691     1.0  0.92396  0.23392  0.68257  1.0000
  H   H1352     1.0  0.78268  0.00164  0.55821  1.0000
  H   H1353     1.0  0.88868  0.19936  0.67333  1.0000
  H   H1354     1.0  0.88836  0.20895  0.55671  1.0000
  H   H1355     1.0  0.51149  0.02876  0.71289  1.0000
  H   H1356     1.0  0.86002  0.19977  0.50272  1.0000
  C   C1692     1.0  0.95811  0.21239  0.55589  1.0000
  C   C1693     1.0  0.71006  0.04248  0.52872  1.0000
  C   C1694     1.0  0.79227  0.20162  0.55346  1.0000
  H   H1357     1.0  0.76660  0.04527  0.54719  1.0000
  C   C1695     1.0  0.58022  0.01003  0.75416  1.0000
  H   H1358     1.0  0.53808  0.15856  0.76387  1.0000
  C   C1696     1.0  0.74447  0.00150  0.59571  1.0000
  H   H1359     1.0  0.86753  0.22155  0.69604  1.0000
  C   C1697     1.0  0.69557  0.03522  0.56258  1.0000
  H   H1360     1.0  0.85576  0.22874  0.55331  1.0000
  C   C1698     1.0  0.97398  0.22562  0.50994  1.0000
  H   H1361     1.0  0.69581  0.00488  0.66725  1.0000
  H   H1362     1.0  0.77422  0.14659  0.50777  1.0000
  S   S238      1.0  0.90984  0.24423  0.54568  1.0000
  H   H1363     1.0  0.52054  0.24159  0.95495  1.0000
  C   C1699     1.0  0.98444  0.20301  0.58769  1.0000
  C   C1700     1.0  0.70148  0.04930  0.54720  1.0000
  C   C1701     1.0  0.80489  0.12705  0.54460  1.0000
  H   H1364     1.0  0.93950  0.23758  0.67803  1.0000
  H   H1365     1.0  0.55801  0.23031  0.86572  1.0000
  H   H1366     1.0  0.68933  0.04055  0.57709  1.0000
  C   C1702     1.0  0.81966  0.23446  0.58347  1.0000
  H   H1367     1.0  0.55495  0.04671  0.85969  1.0000
  H   H1368     1.0  0.56955  0.20267  0.97758  1.0000
  P   P57       1.0  0.51114  0.09695  0.82103  1.0000
  H   H1369     1.0  0.78305  0.02823  0.61288  1.0000
  C   C1703     1.0  0.82496  0.13450  0.51364  1.0000
  C   C1704     1.0  0.64354  0.04860  0.68110  1.0000
  H   H1370     1.0  0.82692  0.22001  0.58816  1.0000
  H   H1371     1.0  0.80397  0.12110  0.56021  1.0000
  C   C1705     1.0  0.59618  0.11101  0.85232  1.0000
  C   C1706     1.0  0.59185  0.09702  0.83779  1.0000
  C   C1707     1.0  0.60684  0.09124  0.82311  1.0000
  C   C1708     1.0  0.62603  0.09979  0.82262  1.0000
  C   C1709     1.0  0.63045  0.11407  0.83702  1.0000
  C   C1710     1.0  0.61545  0.11941  0.85205  1.0000
  P   P58       1.0  0.65557  0.12448  0.83676  1.0000
  C   C1711     1.0  0.65381  0.14841  0.84960  1.0000
  C   C1712     1.0  0.67311  0.10694  0.84980  1.0000
  C   C1713     1.0  0.66952  0.08603  0.85153  1.0000
  C   C1714     1.0  0.68340  0.07256  0.86138  1.0000
  C   C1715     1.0  0.70095  0.07984  0.86950  1.0000
  C   C1716     1.0  0.70469  0.10061  0.86772  1.0000
  C   C1717     1.0  0.69088  0.11412  0.85785  1.0000
  C   C1718     1.0  0.65136  0.16706  0.83856  1.0000
  C   C1719     1.0  0.64935  0.18534  0.84880  1.0000
  C   C1720     1.0  0.64946  0.18518  0.87009  1.0000
  C   C1721     1.0  0.65185  0.16673  0.88120  1.0000
  C   C1722     1.0  0.65406  0.14841  0.87103  1.0000
  C   C1723     1.0  0.66437  0.12856  0.81049  1.0000
  C   C1724     1.0  0.65079  0.13707  0.79621  1.0000
  C   C1725     1.0  0.65725  0.14037  0.77582  1.0000
  C   C1726     1.0  0.67723  0.13468  0.76939  1.0000
  C   C1727     1.0  0.69086  0.12602  0.78347  1.0000
  C   C1728     1.0  0.68451  0.12303  0.80399  1.0000
  H   H1372     1.0  0.58456  0.11552  0.86370  1.0000
  H   H1373     1.0  0.57689  0.09068  0.83787  1.0000
  H   H1374     1.0  0.60362  0.08016  0.81199  1.0000
  H   H1375     1.0  0.63738  0.09517  0.81099  1.0000
  H   H1376     1.0  0.61835  0.13033  0.86337  1.0000
  H   H1377     1.0  0.65614  0.08000  0.84523  1.0000
  H   H1378     1.0  0.68056  0.05643  0.86262  1.0000
  H   H1379     1.0  0.71168  0.06936  0.87709  1.0000
  H   H1380     1.0  0.71835  0.10624  0.87393  1.0000
  H   H1381     1.0  0.69411  0.13014  0.85638  1.0000
  H   H1382     1.0  0.65056  0.16768  0.82213  1.0000
  H   H1383     1.0  0.64696  0.19964  0.84027  1.0000
  H   H1384     1.0  0.64714  0.19933  0.87798  1.0000
  H   H1385     1.0  0.65156  0.16666  0.89774  1.0000
  H   H1386     1.0  0.65547  0.13423  0.87992  1.0000
  H   H1387     1.0  0.63517  0.14118  0.80090  1.0000
  H   H1388     1.0  0.64655  0.14705  0.76497  1.0000
  H   H1389     1.0  0.68205  0.13682  0.75346  1.0000
  H   H1390     1.0  0.70631  0.12147  0.77843  1.0000
  H   H1391     1.0  0.69531  0.11623  0.81457  1.0000
  C   C1729     1.0  0.69709  0.22422  0.64679  1.0000
  C   C1730     1.0  0.75895  0.17737  0.56426  1.0000
  H   H1392     1.0  0.69356  0.23126  0.98396  1.0000
  C   C1731     1.0  0.54556  0.13967  0.79030  1.0000
  C   C1732     1.0  0.53892  0.12455  0.80432  1.0000
  C   C1733     1.0  0.51931  0.11689  0.80317  1.0000
  C   C1734     1.0  0.86580  0.22432  0.74097  1.0000
  H   H1393     1.0  0.62888  0.00470  0.66161  1.0000
  C   C1735     1.0  0.53232  0.07860  0.82410  1.0000
  C   C1736     1.0  0.81214  0.23741  0.56382  1.0000
  C   C1737     1.0  0.91564  0.21674  0.67488  1.0000
  C   C1738     1.0  0.50307  0.10773  0.84517  1.0000
  C   C1739     1.0  0.85891  0.24341  0.73290  1.0000
  H   H1394     1.0  0.97643  0.19361  0.51914  1.0000
  H   H1395     1.0  0.50537  0.21933  0.89872  1.0000
  C   C1740     1.0  0.53587  0.06868  0.84307  1.0000
  C   C1741     1.0  0.55228  0.05441  0.84506  1.0000
  C   C1742     1.0  0.56529  0.05003  0.82818  1.0000
  C   C1743     1.0  0.56182  0.05983  0.80930  1.0000
  C   C1744     1.0  0.54533  0.07392  0.80721  1.0000
  C   C1745     1.0  0.55399  0.23136  0.83328  1.0000
  H   H1396     1.0  0.80303  0.05254  0.55038  1.0000
  H   H1397     1.0  0.51077  0.16824  0.80959  1.0000
  H   H1398     1.0  0.66877  0.05125  0.70065  1.0000
  H   H1399     1.0  0.56092  0.14510  0.79084  1.0000
  H   H1400     1.0  0.54929  0.11853  0.81573  1.0000
  H   H1401     1.0  0.83630  0.17193  0.50700  1.0000
  C   C1746     1.0  0.89534  0.21229  0.67991  1.0000
  C   C1747     1.0  0.51298  0.14017  0.77426  1.0000
  C   C1748     1.0  0.77087  0.03458  0.51657  1.0000
  H   H1402     1.0  0.63914  0.06471  0.68128  1.0000
  H   H1403     1.0  0.82799  0.04602  0.52153  1.0000
  H   H1404     1.0  0.82531  0.17290  0.54464  1.0000
  H   H1405     1.0  0.76719  0.19376  0.63291  1.0000
  H   H1406     1.0  0.57808  0.03906  0.82964  1.0000
  H   H1407     1.0  0.57187  0.05641  0.79616  1.0000
  C   C1749     1.0  0.88340  0.22494  0.69278  1.0000
  C   C1750     1.0  0.52804  0.23404  0.96780  1.0000
  C   C1751     1.0  0.67534  0.17389  0.66086  1.0000
  S   S239      1.0  0.63113  0.24081  0.89896  1.0000
  H   H1408     1.0  0.88143  0.21875  0.73797  1.0000
  C   C1752     1.0  0.68625  0.20952  0.63729  1.0000
  H   H1409     1.0  0.71356  0.15365  0.66928  1.0000
  H   H1410     1.0  0.54595  0.16750  0.82211  1.0000
  P   P59       1.0  0.69301  0.18278  0.64089  1.0000
  H   H1411     1.0  0.71483  0.05346  0.51692  1.0000
  C   C1753     1.0  0.69322  0.17958  0.59844  1.0000
  C   C1754     1.0  0.69050  0.16955  0.61761  1.0000
  C   C1755     1.0  0.66915  0.21572  0.62601  1.0000
  C   C1756     1.0  0.72497  0.16307  0.66176  1.0000
  H   H1412     1.0  0.72049  0.01661  0.51165  1.0000
  C   C1757     1.0  0.69168  0.16891  0.58056  1.0000
  C   C1758     1.0  0.71940  0.17846  0.64738  1.0000
  H   H1413     1.0  0.69390  0.17652  0.56573  1.0000
  H   H1414     1.0  0.74970  0.14665  0.67662  1.0000
  P   P60       1.0  0.81404  0.21680  0.54643  1.0000
  H   H1415     1.0  0.77869  0.16257  0.58633  1.0000
  H   H1416     1.0  0.66015  0.20453  0.61919  1.0000
  C   C1759     1.0  0.68765  0.14854  0.61857  1.0000
  C   C1760     1.0  0.74555  0.15902  0.66596  1.0000
  C   C1761     1.0  0.53183  0.99732  0.79003  1.0000
  H   H1417     1.0  0.82173  0.20917  0.76522  1.0000
  H   H1418     1.0  0.69972  0.06549  0.54978  1.0000
  H   H1419     1.0  0.50315  0.14570  0.76222  1.0000
  C   C1762     1.0  0.76072  0.17032  0.65584  1.0000
  C   C1763     1.0  0.78835  0.14196  0.51489  1.0000
  H   H1420     1.0  0.68357  0.12173  0.60166  1.0000
  C   C1764     1.0  0.77352  0.20514  0.54394  1.0000
  C   C1765     1.0  0.50993  0.00823  0.76224  1.0000
  C   C1766     1.0  0.70758  0.00730  0.54129  1.0000
  C   C1767     1.0  0.53355  0.17541  0.83044  1.0000
  C   C1768     1.0  0.73477  0.18935  0.63679  1.0000
  H   H1421     1.0  0.94743  0.21644  0.54405  1.0000
  H   H1422     1.0  0.54806  0.23663  0.80147  1.0000
  H   H1423     1.0  0.77667  0.16697  0.65901  1.0000
  C   C1769     1.0  0.75534  0.18543  0.64118  1.0000
  C   C1770     1.0  0.53754  0.18475  0.84853  1.0000
  C   C1771     1.0  0.85246  0.21209  0.75267  1.0000
  S   S240      1.0  0.62628  0.23229  0.95903  1.0000
  H   H1424     1.0  0.52497  0.20248  0.87323  1.0000
  H   H1425     1.0  0.95859  0.18935  0.60326  1.0000
  C   C1772     1.0  0.83790  0.20228  0.54923  1.0000
  C   C1773     1.0  0.66023  0.04097  0.69208  1.0000
  C   C1774     1.0  0.53266  0.14735  0.77515  1.0000
  Fe  Fe118     1.0  0.92149  0.24087  0.61893  1.0000
  H   H1426     1.0  0.99444  0.20003  0.60034  1.0000
  H   H1427     1.0  0.55183  0.22016  0.94865  1.0000
  C   C1775     1.0  0.87528  0.18001  0.55280  1.0000
  C   C1776     1.0  0.50459  0.23517  0.90259  1.0000
  H   H1428     1.0  0.51453  0.03920  0.75039  1.0000
  C   C1777     1.0  0.87452  0.20117  0.55414  1.0000
  C   C1778     1.0  0.95116  0.20150  0.57335  1.0000
  C   C1779     1.0  0.61267  0.23590  0.98266  1.0000
  C   C1780     1.0  0.63788  0.01461  0.67007  1.0000
  C   C1781     1.0  0.97844  0.21846  0.55403  1.0000
  C   C1782     1.0  0.75704  0.19282  0.54912  1.0000
  H   H1429     1.0  0.73059  0.00373  0.58744  1.0000
  C   C1783     1.0  0.61331  0.00911  0.77963  1.0000
  H   H1430     1.0  0.85804  0.15352  0.54853  1.0000
  C   C1784     1.0  0.77397  0.01537  0.61005  1.0000
  H   H1431     1.0  0.69406  0.00391  0.57198  1.0000
  H   H1432     1.0  0.83728  0.12066  0.54117  1.0000
  C   C1785     1.0  0.82371  0.12685  0.53382  1.0000
  H   H1433     1.0  0.74788  0.00817  0.54645  1.0000
  C   C1786     1.0  0.81203  0.04282  0.52009  1.0000
  C   C1787     1.0  0.79802  0.04650  0.53635  1.0000
  C   C1788     1.0  0.66343  0.23640  0.62362  1.0000
  C   C1789     1.0  0.55194  0.23910  0.85281  1.0000
  H   H1434     1.0  0.56726  0.01055  0.74441  1.0000
  C   C1790     1.0  0.55555  0.21175  0.98040  1.0000
  C   C1791     1.0  0.85595  0.21231  0.55229  1.0000
  H   H1435     1.0  0.50845  0.05999  0.79718  1.0000
  H   H1436     1.0  0.80758  0.18439  0.57768  1.0000
  H   H1437     1.0  0.61939  0.04143  0.66172  1.0000
  C   C1792     1.0  0.51890  0.02731  0.76140  1.0000
  C   C1793     1.0  0.54570  0.22177  0.96412  1.0000
  C   C1794     1.0  0.71312  0.02159  0.52577  1.0000
  C   C1795     1.0  0.82519  0.23783  0.74857  1.0000
  C   C1796     1.0  0.97563  0.24036  0.62255  1.0000
  H   H1438     1.0  0.77158  0.21735  0.53256  1.0000
  Fe  Fe119     1.0  0.61261  0.24277  0.92879  1.0000
  C   C1797     1.0  0.65457  0.00677  0.68118  1.0000
  H   H1439     1.0  0.67848  0.01442  0.70106  1.0000
  H   H1440     1.0  0.50032  0.06170  0.69672  1.0000
  H   H1441     1.0  0.55375  0.01872  0.79816  1.0000
  H   H1442     1.0  0.91621  0.22867  0.50576  1.0000
  C   C1798     1.0  0.89175  0.24213  0.70079  1.0000
  C   C1799     1.0  0.80494  0.21593  0.50525  1.0000
  C   C1800     1.0  0.99391  0.23492  0.63237  1.0000
  C   C1801     1.0  0.80740  0.14281  0.50422  1.0000
  H   H1443     1.0  0.80939  0.24297  0.75133  1.0000
  H   H1444     1.0  0.65024  0.24109  0.61485  1.0000
  C   C1802     1.0  0.78476  0.03099  0.50005  1.0000
  C   C1803     1.0  0.69135  0.24490  0.64436  1.0000
  C   C1804     1.0  0.82546  0.24364  0.51432  1.0000
  H   H1445     1.0  0.84451  0.24251  0.79225  1.0000
  Fe  Fe120     1.0  0.74768  0.39122  0.07867  1.0000
  S   S241      1.0  0.71955  0.40839  0.09091  1.0000
  S   S242      1.0  0.74952  0.37686  0.04737  1.0000
  Fe  Fe121     1.0  0.76736  0.38789  0.12154  1.0000
  S   S243      1.0  0.73975  0.40362  0.13634  1.0000
  S   S244      1.0  0.79803  0.37769  0.13575  1.0000
  Fe  Fe122     1.0  0.72050  0.38461  0.11678  1.0000
  S   S245      1.0  0.69183  0.36804  0.12904  1.0000
  Fe  Fe123     1.0  0.74120  0.42586  0.10918  1.0000
  S   S246      1.0  0.74904  0.45893  0.11403  1.0000
  S   S247      1.0  0.74820  0.36729  0.10416  1.0000
  S   S248      1.0  0.76920  0.41020  0.09476  1.0000
  S   S249      1.0  0.58991  0.28046  0.08672  1.0000
  S   S250      1.0  0.60442  0.26101  0.13113  1.0000
  Fe  Fe124     1.0  0.57454  0.26693  0.11504  1.0000
  S   S251      1.0  0.54620  0.28177  0.13047  1.0000
  Fe  Fe125     1.0  0.61981  0.27215  0.10139  1.0000
  S   S252      1.0  0.64749  0.29217  0.09331  1.0000
  Fe  Fe126     1.0  0.87080  0.39424  0.23541  1.0000
  S   S253      1.0  0.86918  0.40949  0.26593  1.0000
  S   S254      1.0  0.83929  0.39379  0.22073  1.0000
  Fe  Fe127     1.0  0.91757  0.38740  0.23749  1.0000
  S   S255      1.0  0.91831  0.40168  0.26765  1.0000
  S   S256      1.0  0.94833  0.37649  0.22316  1.0000
  Fe  Fe128     1.0  0.89076  0.38384  0.27691  1.0000
  S   S257      1.0  0.88807  0.37123  0.31027  1.0000
  Fe  Fe129     1.0  0.89698  0.42598  0.25439  1.0000
  S   S258      1.0  0.90785  0.45848  0.25487  1.0000
  S   S259      1.0  0.89095  0.36766  0.24718  1.0000
  S   S260      1.0  0.89746  0.41240  0.22341  1.0000
  Fe  Fe130     1.0  0.89494  0.26394  0.38391  1.0000
  S   S261      1.0  0.89979  0.28228  0.35348  1.0000
  C   C1805     1.0  0.86310  0.24869  0.33754  1.0000
  S   S262      1.0  0.87267  0.27149  0.46008  1.0000
  S   S263      1.0  0.91299  0.26670  0.41211  1.0000
  H   H1446     1.0  0.70352  0.28682  0.01358  1.0000
  C   C1806     1.0  0.88161  0.26240  0.48414  1.0000
  C   C1807     1.0  0.77721  0.47810  0.17854  1.0000
  H   H1447     1.0  0.95354  0.34051  0.46018  1.0000
  C   C1808     1.0  0.83832  0.31165  0.31142  1.0000
  H   H1448     1.0  0.71804  0.26634  0.08930  1.0000
  C   C1809     1.0  0.89163  0.34636  0.32198  1.0000
  C   C1810     1.0  0.89010  0.34404  0.34343  1.0000
  C   C1811     1.0  0.89252  0.32466  0.35338  1.0000
  C   C1812     1.0  0.89635  0.30725  0.34199  1.0000
  C   C1813     1.0  0.89810  0.30961  0.32056  1.0000
  C   C1814     1.0  0.89568  0.32896  0.31062  1.0000
  H   H1449     1.0  0.88701  0.35735  0.35243  1.0000
  H   H1450     1.0  0.89166  0.32326  0.36985  1.0000
  H   H1451     1.0  0.90119  0.29632  0.31152  1.0000
  H   H1452     1.0  0.89660  0.33036  0.29415  1.0000
  C   C1815     1.0  0.89555  0.48252  0.25967  1.0000
  H   H1453     1.0  0.93066  0.44484  0.20513  1.0000
  H   H1454     1.0  0.65511  0.38626  0.02137  1.0000
  C   C1816     1.0  0.96332  0.29946  0.46046  1.0000
  H   H1455     1.0  0.86857  0.47116  0.27526  1.0000
  H   H1456     1.0  0.87135  0.47151  0.22836  1.0000
  C   C1817     1.0  0.97118  0.38731  0.23072  1.0000
  H   H1457     1.0  0.74641  0.36139  0.00764  1.0000
  H   H1458     1.0  0.95608  0.41354  0.24421  1.0000
  H   H1459     1.0  0.96336  0.28576  0.37734  1.0000
  C   C1818     1.0  0.83196  0.34564  0.37722  1.0000
  C   C1819     1.0  0.57568  0.30016  0.03644  1.0000
  C   C1820     1.0  0.50611  0.29038  0.14019  1.0000
  C   C1821     1.0  0.51956  0.27850  0.12797  1.0000
  H   H1460     1.0  0.76250  0.43398  0.99798  1.0000
  C   C1822     1.0  0.87195  0.49555  0.16143  1.0000
  C   C1823     1.0  0.78715  0.49311  0.16645  1.0000
  C   C1824     1.0  0.67930  0.34721  0.11880  1.0000
  C   C1825     1.0  0.68594  0.33865  0.10037  1.0000
  C   C1826     1.0  0.67611  0.32182  0.09305  1.0000
  C   C1827     1.0  0.65909  0.31353  0.10367  1.0000
  C   C1828     1.0  0.65227  0.32218  0.12206  1.0000
  C   C1829     1.0  0.66238  0.33881  0.12959  1.0000
  H   H1461     1.0  0.69869  0.34510  0.09179  1.0000
  H   H1462     1.0  0.68182  0.31511  0.07905  1.0000
  H   H1463     1.0  0.63933  0.31600  0.13059  1.0000
  H   H1464     1.0  0.65703  0.34522  0.14388  1.0000
  C   C1830     1.0  0.80922  0.38275  0.15938  1.0000
  C   C1831     1.0  0.79810  0.39200  0.17548  1.0000
  C   C1832     1.0  0.80763  0.39535  0.19397  1.0000
  C   C1833     1.0  0.82845  0.38980  0.19663  1.0000
  C   C1834     1.0  0.83965  0.38090  0.18038  1.0000
  C   C1835     1.0  0.83004  0.37724  0.16201  1.0000
  H   H1465     1.0  0.78210  0.39633  0.17381  1.0000
  H   H1466     1.0  0.79873  0.40216  0.20640  1.0000
  H   H1467     1.0  0.85562  0.37647  0.18210  1.0000
  H   H1468     1.0  0.83886  0.37012  0.14971  1.0000
  H   H1469     1.0  0.71975  0.30998  0.03880  1.0000
  H   H1470     1.0  0.81661  0.49359  0.23809  1.0000
  H   H1471     1.0  0.95483  0.47166  0.21110  1.0000
  C   C1836     1.0  0.97664  0.33553  0.43597  1.0000
  C   C1837     1.0  0.77816  0.24985  0.11042  1.0000
  C   C1838     1.0  0.75167  0.38900  0.02278  1.0000
  H   H1472     1.0  0.79566  0.30221  0.36804  1.0000
  C   C1839     1.0  0.75601  0.40956  0.01995  1.0000
  C   C1840     1.0  0.74957  0.37732  0.00553  1.0000
  H   H1473     1.0  0.75774  0.41870  0.03309  1.0000
  H   H1474     1.0  0.87541  0.46664  0.02622  1.0000
  C   C1841     1.0  0.75707  0.30766  0.33489  1.0000
  H   H1475     1.0  0.52156  0.25578  0.10505  1.0000
  C   C1842     1.0  0.99449  0.27641  0.38347  1.0000
  C   C1843     1.0  0.69997  0.34660  0.01035  1.0000
  H   H1476     1.0  0.83843  0.47256  0.17255  1.0000
  C   C1844     1.0  0.98769  0.29581  0.42065  1.0000
  C   C1845     1.0  0.97060  0.40561  0.24095  1.0000
  P   P61       1.0  0.87329  0.49358  0.18891  1.0000
  H   H1477     1.0  0.78689  0.33038  0.14681  1.0000
  H   H1478     1.0  0.70763  0.47503  0.10408  1.0000
  C   C1846     1.0  0.58259  0.24767  0.00261  1.0000
  C   C1847     1.0  0.55864  0.29903  0.04992  1.0000
  C   C1848     1.0  0.77649  0.45823  0.17183  1.0000
  Fe  Fe131     1.0  0.88468  0.25755  0.43034  1.0000
  C   C1849     1.0  0.84352  0.33213  0.30911  1.0000
  C   C1850     1.0  0.96595  0.37565  0.42294  1.0000
  P   P62       1.0  0.60360  0.32029  0.01065  1.0000
  H   H1479     1.0  0.94434  0.37565  0.44864  1.0000
  C   C1851     1.0  0.69571  0.35461  0.02958  1.0000
  C   C1852     1.0  0.63215  0.34872  0.99772  1.0000
  H   H1480     1.0  0.53492  0.31587  0.06661  1.0000
  C   C1853     1.0  0.79680  0.48771  0.14778  1.0000
  H   H1481     1.0  0.90298  0.41427  0.05733  1.0000
  H   H1482     1.0  0.98819  0.42837  0.25410  1.0000
  C   C1854     1.0  0.76245  0.31251  0.13691  1.0000
  H   H1483     1.0  0.54540  0.34950  0.05221  1.0000
  C   C1855     1.0  0.69985  0.27918  0.99998  1.0000
  C   C1856     1.0  0.75864  0.41819  0.00003  1.0000
  H   H1484     1.0  0.61042  0.34525  0.04584  1.0000
  C   C1857     1.0  0.83515  0.42723  0.14735  1.0000
  C   C1858     1.0  0.85479  0.43214  0.15236  1.0000
  C   C1859     1.0  0.86850  0.43925  0.13711  1.0000
  C   C1860     1.0  0.86269  0.44103  0.11679  1.0000
  C   C1861     1.0  0.84328  0.43507  0.11151  1.0000
  C   C1862     1.0  0.82939  0.42859  0.12704  1.0000
  P   P63       1.0  0.83532  0.43785  0.08544  1.0000
  C   C1863     1.0  0.81949  0.46106  0.08407  1.0000
  C   C1864     1.0  0.85733  0.43949  0.06805  1.0000
  C   C1865     1.0  0.85798  0.45442  0.05214  1.0000
  C   C1866     1.0  0.87497  0.45511  0.03849  1.0000
  H   H1485     1.0  0.98860  0.37112  0.39864  1.0000
  C   C1867     1.0  0.89050  0.42559  0.05599  1.0000
  C   C1868     1.0  0.87354  0.42485  0.06964  1.0000
  C   C1869     1.0  0.79843  0.46070  0.08092  1.0000
  C   C1870     1.0  0.78648  0.47886  0.08005  1.0000
  C   C1871     1.0  0.72657  0.29658  0.09654  1.0000
  C   C1872     1.0  0.68960  0.27819  0.12704  1.0000
  C   C1873     1.0  0.82820  0.47979  0.08709  1.0000
  C   C1874     1.0  0.82257  0.41593  0.07725  1.0000
  C   C1875     1.0  0.82298  0.39745  0.08880  1.0000
  C   C1876     1.0  0.81323  0.38062  0.08201  1.0000
  C   C1877     1.0  0.80339  0.38192  0.06347  1.0000
  C   C1878     1.0  0.80355  0.39999  0.05154  1.0000
  C   C1879     1.0  0.81319  0.41690  0.05832  1.0000
  H   H1486     1.0  0.82444  0.42208  0.15924  1.0000
  H   H1487     1.0  0.85933  0.43040  0.16809  1.0000
  H   H1488     1.0  0.88367  0.44326  0.14107  1.0000
  H   H1489     1.0  0.87342  0.44695  0.10531  1.0000
  H   H1490     1.0  0.81413  0.42441  0.12346  1.0000
  H   H1491     1.0  0.73128  0.33607  0.06150  1.0000
  H   H1492     1.0  0.85419  0.35599  0.28837  1.0000
  H   H1493     1.0  0.67816  0.35175  0.05799  1.0000
  C   C1880     1.0  0.84501  0.33635  0.39149  1.0000
  H   H1494     1.0  0.87298  0.41280  0.08140  1.0000
  H   H1495     1.0  0.79101  0.44649  0.07950  1.0000
  H   H1496     1.0  0.77018  0.47843  0.07774  1.0000
  C   C1881     1.0  0.67144  0.32841  0.03737  1.0000
  C   C1882     1.0  0.74790  0.26823  0.12417  1.0000
  C   C1883     1.0  0.76859  0.30756  0.31646  1.0000
  H   H1497     1.0  0.83053  0.39588  0.10317  1.0000
  H   H1498     1.0  0.81287  0.36670  0.09144  1.0000
  H   H1499     1.0  0.79534  0.36906  0.05847  1.0000
  C   C1884     1.0  0.69905  0.25792  0.00075  1.0000
  H   H1500     1.0  0.81312  0.43079  0.04888  1.0000
  H   H1501     1.0  0.90184  0.48107  0.15507  1.0000
  C   C1885     1.0  0.85308  0.31659  0.38861  1.0000
  C   C1886     1.0  0.73069  0.31606  0.08833  1.0000
  C   C1887     1.0  0.83585  0.27504  0.33921  1.0000
  H   H1502     1.0  0.70179  0.24937  0.01491  1.0000
  H   H1503     1.0  0.83478  0.26398  0.48932  1.0000
  C   C1888     1.0  0.78996  0.30549  0.31652  1.0000
  C   C1889     1.0  0.78564  0.45317  0.15300  1.0000
  H   H1504     1.0  0.80235  0.46408  0.12619  1.0000
  H   H1505     1.0  0.58375  0.28617  0.03207  1.0000
  H   H1506     1.0  0.84894  0.34446  0.40475  1.0000
  C   C1890     1.0  0.63228  0.36705  0.03544  1.0000
  C   C1891     1.0  0.85572  0.26853  0.33280  1.0000
  C   C1892     1.0  0.84834  0.30620  0.37134  1.0000
  H   H1507     1.0  0.82577  0.36100  0.37940  1.0000
  C   C1893     1.0  0.82611  0.25079  0.49393  1.0000
  H   H1508     1.0  0.89551  0.45413  0.19513  1.0000
  H   H1509     1.0  0.79586  0.40092  0.03719  1.0000
  C   C1894     1.0  0.94800  0.28783  0.45295  1.0000
  H   H1510     1.0  0.84269  0.34204  0.32189  1.0000
  H   H1511     1.0  0.65848  0.26877  0.13025  1.0000
  H   H1512     1.0  0.51218  0.30071  0.15063  1.0000
  H   H1513     1.0  0.51849  0.27532  0.05917  1.0000
  C   C1895     1.0  0.61947  0.35096  0.03282  1.0000
  C   C1896     1.0  0.62116  0.29881  0.01508  1.0000
  C   C1897     1.0  0.84027  0.29930  0.29436  1.0000
  C   C1898     1.0  0.87654  0.48460  0.27013  1.0000
  H   H1514     1.0  0.95480  0.49312  0.27866  1.0000
  H   H1515     1.0  0.99225  0.35550  0.27390  1.0000
  H   H1516     1.0  0.80775  0.49143  0.20223  1.0000
  H   H1517     1.0  0.77289  0.30076  0.13104  1.0000
  C   C1899     1.0  0.61891  0.34204  0.01375  1.0000
  C   C1900     1.0  0.63005  0.28800  0.99868  1.0000
  C   C1901     1.0  0.85211  0.32777  0.27320  1.0000
  C   C1902     1.0  0.85019  0.34016  0.29003  1.0000
  C   C1903     1.0  0.85654  0.47433  0.19942  1.0000
  C   C1904     1.0  0.99036  0.37758  0.22616  1.0000
  H   H1518     1.0  0.72692  0.45634  0.01551  1.0000
  C   C1905     1.0  0.67586  0.32024  0.01823  1.0000
  C   C1906     1.0  0.57088  0.33689  0.03415  1.0000
  C   C1907     1.0  0.71816  0.28649  0.06268  1.0000
  C   C1908     1.0  0.55388  0.33574  0.04778  1.0000
  H   H1519     1.0  0.71179  0.32702  0.14114  1.0000
  C   C1909     1.0  0.83512  0.31536  0.35698  1.0000
  C   C1910     1.0  0.97232  0.29626  0.40627  1.0000
  H   H1520     1.0  0.65649  0.27106  0.16783  1.0000
  H   H1521     1.0  0.99699  0.26837  0.36941  1.0000
  H   H1522     1.0  0.71838  0.29011  0.16668  1.0000
  C   C1911     1.0  0.64493  0.37404  0.01920  1.0000
  C   C1912     1.0  0.73626  0.34376  0.15190  1.0000
  C   C1913     1.0  0.98889  0.41402  0.24653  1.0000
  H   H1523     1.0  0.66782  0.30713  0.01397  1.0000
  H   H1524     1.0  0.68647  0.28192  0.18598  1.0000
  H   H1525     1.0  0.84879  0.29772  0.26230  1.0000
  H   H1526     1.0  0.90020  0.48586  0.11774  1.0000
  H   H1527     1.0  0.96169  0.39109  0.41783  1.0000
  C   C1914     1.0  0.64499  0.36476  0.00038  1.0000
  C   C1915     1.0  0.78827  0.30366  0.35353  1.0000
  C   C1916     1.0  0.97557  0.28621  0.38795  1.0000
  C   C1917     1.0  0.96258  0.30383  0.48132  1.0000
  H   H1528     1.0  0.91989  0.27277  0.45992  1.0000
  H   H1529     1.0  0.97422  0.31266  0.48760  1.0000
  C   C1918     1.0  0.93185  0.28145  0.46590  1.0000
  H   H1530     1.0  0.84531  0.46534  0.04999  1.0000
  H   H1531     1.0  0.94831  0.28347  0.43726  1.0000
  C   C1919     1.0  0.75739  0.34475  0.15352  1.0000
  C   C1920     1.0  0.72835  0.32081  0.06756  1.0000
  C   C1921     1.0  0.77048  0.32920  0.14594  1.0000
  H   H1532     1.0  0.98326  0.33638  0.24431  1.0000
  H   H1533     1.0  0.71069  0.35417  0.99992  1.0000
  H   H1534     1.0  0.97736  0.40428  0.28686  1.0000
  C   C1922     1.0  0.94905  0.35084  0.36961  1.0000
  C   C1923     1.0  0.94345  0.33074  0.36778  1.0000
  C   C1924     1.0  0.94598  0.32151  0.34899  1.0000
  C   C1925     1.0  0.95366  0.33246  0.33187  1.0000
  C   C1926     1.0  0.95861  0.35292  0.33337  1.0000
  C   C1927     1.0  0.95680  0.36185  0.35250  1.0000
  P   P64       1.0  0.96815  0.36743  0.31128  1.0000
  C   C1928     1.0  0.96183  0.35510  0.28840  1.0000
  C   C1929     1.0  0.95542  0.39238  0.30933  1.0000
  C   C1930     1.0  0.96350  0.40747  0.29598  1.0000
  C   C1931     1.0  0.95339  0.42659  0.29378  1.0000
  C   C1932     1.0  0.93484  0.43063  0.30448  1.0000
  C   C1933     1.0  0.92632  0.41546  0.31728  1.0000
  C   C1934     1.0  0.93645  0.39635  0.31958  1.0000
  C   C1935     1.0  0.97683  0.35044  0.27314  1.0000
  C   C1936     1.0  0.97178  0.33972  0.25620  1.0000
  C   C1937     1.0  0.95162  0.33436  0.25393  1.0000
  C   C1938     1.0  0.93648  0.33973  0.26859  1.0000
  C   C1939     1.0  0.94152  0.35015  0.28572  1.0000
  H   H1535     1.0  0.86590  0.27902  0.32491  1.0000
  C   C1940     1.0  0.88829  0.48844  0.14870  1.0000
  H   H1536     1.0  0.56720  0.25441  0.00313  1.0000
  C   C1941     1.0  0.72191  0.30609  0.05477  1.0000
  C   C1942     1.0  0.64069  0.27695  0.03861  1.0000
  C   C1943     1.0  0.79998  0.30357  0.33508  1.0000
  H   H1537     1.0  0.94690  0.35800  0.38416  1.0000
  H   H1538     1.0  0.93679  0.32238  0.38080  1.0000
  H   H1539     1.0  0.94134  0.30600  0.34752  1.0000
  H   H1540     1.0  0.95528  0.32495  0.31746  1.0000
  H   H1541     1.0  0.96084  0.37750  0.35402  1.0000
  C   C1944     1.0  0.84725  0.30731  0.27538  1.0000
  H   H1542     1.0  0.95945  0.43799  0.28306  1.0000
  H   H1543     1.0  0.92657  0.44513  0.30201  1.0000
  H   H1544     1.0  0.91138  0.41816  0.32466  1.0000
  H   H1545     1.0  0.92895  0.38453  0.32864  1.0000
  C   C1945     1.0  0.95618  0.36695  0.44030  1.0000
  H   H1546     1.0  0.80827  0.26596  0.35599  1.0000
  H   H1547     1.0  0.94756  0.32693  0.24030  1.0000
  H   H1548     1.0  0.92075  0.33620  0.26642  1.0000
  H   H1549     1.0  0.92958  0.35443  0.29686  1.0000
  C   C1946     1.0  0.94660  0.29706  0.49428  1.0000
  S   S264      1.0  0.86578  0.25805  0.40232  1.0000
  C   C1947     1.0  0.70544  0.28544  0.15850  1.0000
  C   C1948     1.0  0.68742  0.28071  0.16954  1.0000
  C   C1949     1.0  0.50944  0.26509  0.03013  1.0000
  H   H1550     1.0  0.81650  0.34244  0.34936  1.0000
  H   H1551     1.0  0.76641  0.27848  0.09791  1.0000
  H   H1552     1.0  0.55414  0.28429  0.05610  1.0000
  P   P65       1.0  0.82760  0.30150  0.33541  1.0000
  C   C1950     1.0  0.76429  0.26665  0.10970  1.0000
  H   H1553     1.0  0.71314  0.27505  0.05281  1.0000
  C   C1951     1.0  0.82342  0.26130  0.35034  1.0000
  H   H1554     1.0  0.52503  0.26405  0.02390  1.0000
  C   C1952     1.0  0.64411  0.27177  0.00227  1.0000
  H   H1555     1.0  0.54563  0.25812  0.17611  1.0000
  C   C1953     1.0  0.84074  0.46719  0.18808  1.0000
  H   H1556     1.0  0.86330  0.30936  0.39959  1.0000
  C   C1954     1.0  0.51133  0.26513  0.11451  1.0000
  C   C1955     1.0  0.93951  0.47590  0.20635  1.0000
  C   C1956     1.0  0.50581  0.27177  0.05002  1.0000
  C   C1957     1.0  0.98112  0.36440  0.41214  1.0000
  C   C1958     1.0  0.74119  0.31136  0.13531  1.0000
  H   H1557     1.0  0.99469  0.33384  0.35429  1.0000
  C   C1959     1.0  0.72819  0.32723  0.14270  1.0000
  H   H1558     1.0  0.85518  0.29110  0.36929  1.0000
  C   C1960     1.0  0.62679  0.29334  0.03506  1.0000
  H   H1559     1.0  0.75800  0.30584  0.36772  1.0000
  H   H1560     1.0  0.84813  0.44612  0.24351  1.0000
  H   H1561     1.0  0.85743  0.33408  0.25849  1.0000
  C   C1961     1.0  0.64929  0.26612  0.02223  1.0000
  H   H1562     1.0  0.64457  0.27251  0.05412  1.0000
  H   H1563     1.0  0.95772  0.30418  0.40929  1.0000
  H   H1564     1.0  0.65960  0.25307  0.02506  1.0000
  H   H1565     1.0  0.71602  0.25880  0.31917  1.0000
  H   H1566     1.0  0.76935  0.48197  0.19283  1.0000
  H   H1567     1.0  0.63274  0.37379  0.05024  1.0000
  H   H1568     1.0  0.79853  0.30562  0.30206  1.0000
  H   H1569     1.0  0.78428  0.43800  0.14739  1.0000
  C   C1962     1.0  0.85908  0.46655  0.21944  1.0000
  H   H1570     1.0  0.76099  0.30927  0.30208  1.0000
  C   C1963     1.0  0.70670  0.28427  0.13711  1.0000
  H   H1571     1.0  0.66023  0.32151  0.04783  1.0000
  C   C1964     1.0  0.67054  0.27459  0.15937  1.0000
  H   H1572     1.0  0.62030  0.30157  0.04799  1.0000
  C   C1965     1.0  0.96149  0.34697  0.44683  1.0000
  C   C1966     1.0  0.93115  0.28605  0.48653  1.0000
  H   H1573     1.0  0.73538  0.32777  0.09797  1.0000
  C   C1967     1.0  0.76691  0.30568  0.35341  1.0000
  C   C1968     1.0  0.89926  0.48672  0.19567  1.0000
  H   H1574     1.0  0.99104  0.36368  0.21784  1.0000
  H   H1575     1.0  0.73502  0.32060  0.00287  1.0000
  C   C1969     1.0  0.79588  0.46787  0.14107  1.0000
  C   C1970     1.0  0.88741  0.49112  0.12747  1.0000
  C   C1971     1.0  0.98662  0.34449  0.41872  1.0000
  H   H1576     1.0  0.76369  0.35781  0.16023  1.0000
  H   H1577     1.0  0.76828  0.44687  0.18091  1.0000
  C   C1972     1.0  0.92589  0.46076  0.20292  1.0000
  H   H1578     1.0  0.82015  0.43392  0.22350  1.0000
  C   C1973     1.0  0.58227  0.31912  0.02891  1.0000
  H   H1579     1.0  0.70351  0.36788  0.03403  1.0000
  H   H1580     1.0  0.74053  0.30943  0.33481  1.0000
  C   C1974     1.0  0.54787  0.31680  0.05580  1.0000
  C   C1975     1.0  0.83017  0.44530  0.21682  1.0000
  H   H1581     1.0  0.84432  0.48028  0.08994  1.0000
  C   C1976     1.0  0.71715  0.48767  0.10650  1.0000
  H   H1582     1.0  0.81575  0.44687  0.18796  1.0000
  P   P66       1.0  0.73038  0.29024  0.12327  1.0000
  H   H1583     1.0  0.72609  0.35607  0.15728  1.0000
  H   H1584     1.0  0.57517  0.35162  0.02782  1.0000
  C   C1977     1.0  0.67169  0.27324  0.13817  1.0000
  C   C1978     1.0  0.82770  0.45264  0.19677  1.0000
  H   H1585     1.0  0.68966  0.27758  0.11062  1.0000
  C   C1979     1.0  0.72075  0.28166  0.08343  1.0000
  C   C1980     1.0  0.73760  0.48390  0.11144  1.0000
  C   C1981     1.0  0.82688  0.33514  0.36013  1.0000
  C   C1982     1.0  0.90587  0.46612  0.19747  1.0000
  C   C1983     1.0  0.84592  0.45217  0.22811  1.0000
  P   P67       1.0  0.98352  0.30959  0.44388  1.0000
  H   H1586     1.0  0.99236  0.49409  0.27455  1.0000
  H   H1587     1.0  0.83619  0.28351  0.29566  1.0000
  C   C1984     1.0  0.68152  0.34546  0.04312  1.0000
  H   H1588     1.0  0.90436  0.44124  0.02980  1.0000
  H   H1589     1.0  0.79076  0.24875  0.09921  1.0000
  H   H1590     1.0  0.96969  0.25580  0.49583  1.0000
  Fe  Fe132     1.0  0.59110  0.24860  0.07541  1.0000
  C   C1985     1.0  0.73226  0.48744  0.00566  1.0000
  C   C1986     1.0  0.72824  0.46707  0.00258  1.0000
  H   H1591     1.0  0.99657  0.40046  0.31780  1.0000
  C   C1987     1.0  0.99562  0.36799  0.31315  1.0000
  C   C1988     1.0  0.89126  0.44076  0.04046  1.0000
  H   H1592     1.0  0.73421  0.49201  0.02108  1.0000
  H   H1593     1.0  0.73337  0.25365  0.15091  1.0000
  C   C1989     1.0  0.69062  0.32891  0.00482  1.0000
  H   H1594     1.0  0.91869  0.28104  0.49658  1.0000
  C   C1990     1.0  0.74576  0.25284  0.13949  1.0000
  C   C1991     1.0  0.93319  0.49643  0.20418  1.0000
  Fe  Fe133     1.0  0.73276  0.37791  0.89843  1.0000
  S   S265      1.0  0.76417  0.37636  0.91207  1.0000
  S   S266      1.0  0.71632  0.34744  0.90231  1.0000
  Fe  Fe134     1.0  0.73635  0.42354  0.88764  1.0000
  S   S267      1.0  0.76727  0.42429  0.90049  1.0000
  S   S268      1.0  0.72332  0.45370  0.87429  1.0000
  Fe  Fe135     1.0  0.77473  0.39531  0.88433  1.0000
  S   S269      1.0  0.80746  0.39076  0.87015  1.0000
  Fe  Fe136     1.0  0.75422  0.40561  0.92697  1.0000
  S   S270      1.0  0.76025  0.41820  0.95810  1.0000
  S   S271      1.0  0.74411  0.39516  0.86975  1.0000
  S   S272      1.0  0.72252  0.40643  0.91492  1.0000
  Fe  Fe137     1.0  0.61922  0.27331  0.89300  1.0000
  S   S273      1.0  0.63489  0.30236  0.88079  1.0000
  Fe  Fe138     1.0  0.57562  0.26303  0.90835  1.0000
  S   S274      1.0  0.54433  0.27821  0.91550  1.0000
  S   S275      1.0  0.60243  0.27542  0.92339  1.0000
  S   S276      1.0  0.59138  0.26306  0.87720  1.0000
  Fe  Fe139     1.0  0.90535  0.37865  0.72666  1.0000
  S   S277      1.0  0.90348  0.37051  0.76043  1.0000
  S   S278      1.0  0.91090  0.35101  0.70599  1.0000
  Fe  Fe140     1.0  0.91106  0.42421  0.73591  1.0000
  S   S279      1.0  0.91012  0.41844  0.76992  1.0000
  S   S280      1.0  0.92117  0.45475  0.72257  1.0000
  Fe  Fe141     1.0  0.93020  0.39065  0.76284  1.0000
  S   S281      1.0  0.95871  0.37894  0.77906  1.0000
  Fe  Fe142     1.0  0.88338  0.39910  0.76455  1.0000
  S   S282      1.0  0.85166  0.40316  0.78128  1.0000
  S   S283      1.0  0.93280  0.39762  0.72933  1.0000
  S   S284      1.0  0.88346  0.40613  0.73028  1.0000
  Fe  Fe143     1.0  0.88868  0.27502  0.61679  1.0000
  S   S285      1.0  0.87804  0.30617  0.62914  1.0000
  C   C1992     1.0  0.85718  0.46472  0.87054  1.0000
  C   C1993     1.0  0.96607  0.39297  0.67193  1.0000
  H   H1595     1.0  0.79607  0.47666  0.91694  1.0000
  S   S286      1.0  0.91825  0.26895  0.59870  1.0000
  H   H1596     1.0  0.91841  0.31619  0.73235  1.0000
  C   C1994     1.0  0.98519  0.38823  0.66258  1.0000
  C   C1995     1.0  0.69588  0.29037  0.98178  1.0000
  H   H1597     1.0  0.79231  0.45238  0.94603  1.0000
  H   H1598     1.0  0.87688  0.27392  0.53474  1.0000
  C   C1996     1.0  0.90121  0.33895  0.68461  1.0000
  C   C1997     1.0  0.91033  0.32013  0.67874  1.0000
  C   C1998     1.0  0.90314  0.30969  0.66222  1.0000
  C   C1999     1.0  0.88711  0.31825  0.65080  1.0000
  C   C2000     1.0  0.87806  0.33714  0.65657  1.0000
  C   C2001     1.0  0.88493  0.34736  0.67343  1.0000
  H   H1599     1.0  0.92297  0.31347  0.68714  1.0000
  H   H1600     1.0  0.91019  0.29513  0.65816  1.0000
  H   H1601     1.0  0.86567  0.34397  0.64787  1.0000
  H   H1602     1.0  0.87782  0.36187  0.67755  1.0000
  C   C2002     1.0  0.90871  0.47788  0.73014  1.0000
  H   H1603     1.0  0.79631  0.43531  0.86319  1.0000
  C   C2003     1.0  0.89824  0.26406  0.75194  1.0000
  C   C2004     1.0  0.57449  0.31670  0.94810  1.0000
  H   H1604     1.0  0.99687  0.39944  0.66175  1.0000
  C   C2005     1.0  0.99722  0.35897  0.71389  1.0000
  C   C2006     1.0  0.98267  0.38935  0.77179  1.0000
  H   H1605     1.0  0.65786  0.30479  0.96622  1.0000
  C   C2007     1.0  0.75172  0.38605  0.98561  1.0000
  H   H1606     1.0  0.96783  0.37478  0.71231  1.0000
  C   C2008     1.0  0.57505  0.29985  0.96172  1.0000
  H   H1607     1.0  0.67299  0.37047  0.93024  1.0000
  H   H1608     1.0  0.75233  0.33266  0.92913  1.0000
  C   C2009     1.0  0.52178  0.26537  0.91139  1.0000
  C   C2010     1.0  0.91107  0.27467  0.76394  1.0000
  C   C2011     1.0  0.81941  0.39539  0.84542  1.0000
  C   C2012     1.0  0.84088  0.39307  0.84308  1.0000
  C   C2013     1.0  0.85104  0.39570  0.82376  1.0000
  C   C2014     1.0  0.83986  0.40036  0.80633  1.0000
  C   C2015     1.0  0.81840  0.40297  0.80871  1.0000
  C   C2016     1.0  0.80824  0.40059  0.82807  1.0000
  H   H1609     1.0  0.84976  0.38916  0.85634  1.0000
  H   H1610     1.0  0.86753  0.39415  0.82239  1.0000
  H   H1611     1.0  0.80951  0.40663  0.79541  1.0000
  H   H1612     1.0  0.79175  0.40225  0.82948  1.0000
  C   C2017     1.0  0.69326  0.33549  0.89645  1.0000
  C   C2018     1.0  0.67841  0.34500  0.88411  1.0000
  C   C2019     1.0  0.66069  0.33469  0.87964  1.0000
  C   C2020     1.0  0.65730  0.31483  0.88765  1.0000
  C   C2021     1.0  0.67197  0.30545  0.90028  1.0000
  C   C2022     1.0  0.68985  0.31563  0.90446  1.0000
  H   H1613     1.0  0.68072  0.36018  0.87774  1.0000
  H   H1614     1.0  0.64957  0.34212  0.86978  1.0000
  H   H1615     1.0  0.66975  0.29020  0.90649  1.0000
  H   H1616     1.0  0.70121  0.30792  0.91382  1.0000
  H   H1617     1.0  0.96099  0.30005  0.71331  1.0000
  C   C2023     1.0  0.75643  0.40654  0.98276  1.0000
  H   H1618     1.0  0.80683  0.41717  0.94394  1.0000
  H   H1619     1.0  0.85782  0.46948  0.88612  1.0000
  C   C2024     1.0  0.69143  0.25866  0.96494  1.0000
  C   C2025     1.0  0.73101  0.47621  0.88533  1.0000
  C   C2026     1.0  0.73856  0.32331  0.98675  1.0000
  C   C2027     1.0  0.74102  0.47525  0.90378  1.0000
  H   H1620     1.0  0.99591  0.30846  0.60864  1.0000
  H   H1621     1.0  0.74495  0.46065  0.91104  1.0000
  C   C2028     1.0  0.93559  0.33314  0.59040  1.0000
  H   H1622     1.0  0.95747  0.35305  0.57579  1.0000
  C   C2029     1.0  0.97419  0.35445  0.65553  1.0000
  C   C2030     1.0  0.77092  0.44477  0.84507  1.0000
  C   C2031     1.0  0.80228  0.25613  0.55832  1.0000
  H   H1623     1.0  0.95076  0.35175  0.73767  1.0000
  C   C2032     1.0  0.99580  0.25699  0.59524  1.0000
  C   C2033     1.0  0.67912  0.32915  0.96283  1.0000
  H   H1624     1.0  0.58179  0.34815  0.94305  1.0000
  H   H1625     1.0  0.85930  0.31196  0.83319  1.0000
  H   H1626     1.0  0.96829  0.31690  0.54974  1.0000
  H   H1627     1.0  0.91563  0.26824  0.77861  1.0000
  C   C2034     1.0  0.72326  0.32278  0.97241  1.0000
  C   C2035     1.0  0.96680  0.34896  0.73337  1.0000
  C   C2036     1.0  0.68278  0.34811  0.95308  1.0000
  C   C2037     1.0  0.66943  0.35640  0.93854  1.0000
  C   C2038     1.0  0.65217  0.34600  0.93386  1.0000
  H   H1628     1.0  0.79578  0.25856  0.54347  1.0000
  P   P68       1.0  0.97853  0.32978  0.64449  1.0000
  H   H1629     1.0  0.69054  0.28804  0.94953  1.0000
  C   C2039     1.0  0.67458  0.25100  0.63272  1.0000
  H   H1630     1.0  0.96720  0.43997  0.78654  1.0000
  C   C2040     1.0  0.78776  0.44826  0.85665  1.0000
  C   C2041     1.0  0.81332  0.45547  0.89746  1.0000
  C   C2042     1.0  0.50261  0.27586  0.91311  1.0000
  H   H1631     1.0  0.69633  0.35620  0.95613  1.0000
  H   H1632     1.0  0.82902  0.42988  0.88260  1.0000
  H   H1633     1.0  0.64236  0.35200  0.92193  1.0000
  H   H1634     1.0  0.72411  0.44440  0.98037  1.0000
  H   H1635     1.0  0.94283  0.34872  0.66521  1.0000
  C   C2043     1.0  0.97414  0.45283  0.77857  1.0000
  C   C2044     1.0  0.98918  0.36915  0.65415  1.0000
  H   H1636     1.0  0.83679  0.32350  0.70367  1.0000
  H   H1637     1.0  0.53174  0.27070  0.80612  1.0000
  H   H1638     1.0  0.79650  0.45579  0.79699  1.0000
  H   H1639     1.0  0.86426  0.25914  0.67396  1.0000
  H   H1640     1.0  0.62604  0.29185  0.98312  1.0000
  C   C2045     1.0  0.83981  0.30555  0.67689  1.0000
  H   H1641     1.0  0.68810  0.25071  0.95135  1.0000
  H   H1642     1.0  0.65041  0.26308  0.98958  1.0000
  H   H1643     1.0  0.94564  0.28998  0.56374  1.0000
  H   H1644     1.0  0.85539  0.44497  0.81571  1.0000
  H   H1645     1.0  0.96851  0.25784  0.66479  1.0000
  C   C2046     1.0  0.79332  0.46823  0.85983  1.0000
  H   H1646     1.0  0.96086  0.26461  0.70139  1.0000
  H   H1647     1.0  0.84555  0.28456  0.65271  1.0000
  C   C2047     1.0  0.84356  0.47048  0.78007  1.0000
  S   S287      1.0  0.89266  0.24775  0.63800  1.0000
  H   H1648     1.0  0.98064  0.35085  0.60469  1.0000
  C   C2048     1.0  0.97246  0.30939  0.66268  1.0000
  C   C2049     1.0  0.84255  0.30925  0.69741  1.0000
  C   C2050     1.0  0.96412  0.27710  0.69065  1.0000
  C   C2051     1.0  0.93055  0.32141  0.60795  1.0000
  H   H1649     1.0  0.92524  0.33430  0.57789  1.0000
  C   C2052     1.0  0.97642  0.36200  0.71906  1.0000
  C   C2053     1.0  0.80908  0.46570  0.79354  1.0000
  C   C2054     1.0  0.74858  0.33001  0.94526  1.0000
  C   C2055     1.0  0.80098  0.44788  0.93237  1.0000
  H   H1650     1.0  0.99814  0.30769  0.52669  1.0000
  C   C2056     1.0  0.72859  0.32553  0.95159  1.0000
  C   C2057     1.0  0.85591  0.45092  0.83086  1.0000
  H   H1651     1.0  0.75265  0.49211  0.92785  1.0000
  H   H1652     1.0  0.51664  0.31853  0.88053  1.0000
  H   H1653     1.0  0.67797  0.47060  0.89029  1.0000
  S   S288      1.0  0.87007  0.25825  0.59486  1.0000
  H   H1654     1.0  0.91869  0.26018  0.70070  1.0000
  H   H1655     1.0  0.82364  0.45726  0.83337  1.0000
  H   H1656     1.0  0.93505  0.49577  0.72291  1.0000
  H   H1657     1.0  0.86119  0.36418  0.71533  1.0000
  H   H1658     1.0  0.79352  0.28649  0.56765  1.0000
  H   H1659     1.0  0.75009  0.37688  0.97248  1.0000
  C   C2058     1.0  0.75951  0.46115  0.83652  1.0000
  H   H1660     1.0  0.56782  0.31542  0.93337  1.0000
  C   C2059     1.0  0.53711  0.26206  0.81934  1.0000
  C   C2060     1.0  0.72882  0.47394  0.96606  1.0000
  C   C2061     1.0  0.91926  0.49609  0.72843  1.0000
  C   C2062     1.0  0.97258  0.28931  0.65613  1.0000
  C   C2063     1.0  0.95872  0.28606  0.55375  1.0000
  C   C2064     1.0  0.81794  0.25020  0.59724  1.0000
  C   C2065     1.0  0.96680  0.34236  0.60561  1.0000
  H   H1661     1.0  0.82848  0.44206  0.78001  1.0000
  H   H1662     1.0  0.58433  0.28796  0.99097  1.0000
  H   H1663     1.0  0.79334  0.49170  0.80622  1.0000
  H   H1664     1.0  0.97060  0.32292  0.75394  1.0000
  C   C2066     1.0  0.67880  0.48481  0.89802  1.0000
  P   P69       1.0  0.52521  0.29583  0.84264  1.0000
  C   C2067     1.0  0.52535  0.30994  0.81837  1.0000
  C   C2068     1.0  0.54135  0.30725  0.86036  1.0000
  C   C2069     1.0  0.56273  0.30539  0.85742  1.0000
  C   C2070     1.0  0.57549  0.31423  0.87082  1.0000
  C   C2071     1.0  0.56705  0.32473  0.88746  1.0000
  C   C2072     1.0  0.54580  0.32637  0.89074  1.0000
  C   C2073     1.0  0.53296  0.31761  0.87729  1.0000
  C   C2074     1.0  0.54100  0.32322  0.81267  1.0000
  H   H1665     1.0  0.77894  0.33526  0.95472  1.0000
  C   C2075     1.0  0.98011  0.26028  0.53654  1.0000
  H   H1666     1.0  0.89608  0.29750  0.71101  1.0000
  H   H1667     1.0  0.95086  0.45633  0.75623  1.0000
  H   H1668     1.0  0.76638  0.42933  0.84323  1.0000
  C   C2076     1.0  0.97668  0.25169  0.60406  1.0000
  C   C2077     1.0  0.89226  0.27238  0.73294  1.0000
  C   C2078     1.0  0.96838  0.27327  0.67006  1.0000
  C   C2079     1.0  0.54083  0.33392  0.79381  1.0000
  H   H1669     1.0  0.54169  0.26443  0.87080  1.0000
  H   H1670     1.0  0.59200  0.31257  0.86856  1.0000
  H   H1671     1.0  0.57706  0.33119  0.89798  1.0000
  H   H1672     1.0  0.53928  0.33392  0.90401  1.0000
  C   C2080     1.0  0.96297  0.26569  0.54909  1.0000
  H   H1673     1.0  0.55336  0.32546  0.82265  1.0000
  C   C2081     1.0  0.97799  0.33272  0.74249  1.0000
  C   C2082     1.0  0.69455  0.24769  0.98331  1.0000
  H   H1674     1.0  0.74596  0.45838  0.82828  1.0000
  C   C2083     1.0  0.99280  0.48529  0.75703  1.0000
  C   C2084     1.0  0.91817  0.29354  0.75698  1.0000
  H   H1675     1.0  0.83215  0.31694  0.66717  1.0000
  C   C2085     1.0  0.83788  0.45788  0.84102  1.0000
  C   C2086     1.0  0.83837  0.46494  0.86095  1.0000
  H   H1676     1.0  0.80776  0.28128  0.60208  1.0000
  H   H1677     1.0  0.92801  0.30186  0.76627  1.0000
  C   C2087     1.0  0.96198  0.33028  0.62315  1.0000
  H   H1678     1.0  0.89310  0.24940  0.75753  1.0000
  C   C2088     1.0  0.98821  0.29601  0.53283  1.0000
  H   H1679     1.0  0.87184  0.36256  0.79138  1.0000
  C   C2089     1.0  0.80872  0.26901  0.59148  1.0000
  C   C2090     1.0  0.66131  0.31918  0.95861  1.0000
  C   C2091     1.0  0.81952  0.42174  0.91331  1.0000
  C   C2092     1.0  0.80918  0.42796  0.93121  1.0000
  C   C2093     1.0  0.50939  0.31838  0.78608  1.0000
  C   C2094     1.0  0.87523  0.45806  0.86019  1.0000
  H   H1680     1.0  0.82522  0.40608  0.91208  1.0000
  C   C2095     1.0  0.97144  0.30119  0.54580  1.0000
  C   C2096     1.0  0.82159  0.43538  0.89653  1.0000
  H   H1681     1.0  0.88850  0.44567  0.83241  1.0000
  C   C2097     1.0  0.87459  0.45115  0.84036  1.0000
  C   C2098     1.0  0.53543  0.27018  0.83889  1.0000
  H   H1682     1.0  0.71728  0.32448  0.94019  1.0000
  H   H1683     1.0  0.69981  0.25619  0.65167  1.0000
  P   P70       1.0  0.69719  0.31778  0.98052  1.0000
  C   C2099     1.0  0.51655  0.28361  0.96898  1.0000
  C   C2100     1.0  0.64802  0.32747  0.94401  1.0000
  H   H1684     1.0  0.85764  0.46437  0.77288  1.0000
  H   H1685     1.0  0.91630  0.31361  0.60903  1.0000
  Fe  Fe144     1.0  0.90020  0.24953  0.57898  1.0000
  H   H1686     1.0  0.55298  0.34410  0.78949  1.0000
  C   C2101     1.0  0.72660  0.46032  0.98279  1.0000
  H   H1687     1.0  0.93926  0.31105  0.63783  1.0000
  H   H1688     1.0  0.88970  0.45790  0.86766  1.0000
  P   P71       1.0  0.87609  0.25865  0.71703  1.0000
  C   C2102     1.0  0.91273  0.30164  0.73787  1.0000
  C   C2103     1.0  0.76354  0.33138  0.95966  1.0000
  C   C2104     1.0  0.59121  0.33641  0.97255  1.0000
  H   H1689     1.0  0.87976  0.46475  0.73774  1.0000
  C   C2105     1.0  0.89997  0.29105  0.72585  1.0000
  H   H1690     1.0  0.67009  0.26702  0.63094  1.0000
  C   C2106     1.0  0.75858  0.32782  0.98039  1.0000
  H   H1691     1.0  0.72807  0.46852  0.95072  1.0000
  C   C2107     1.0  0.51660  0.30218  0.95784  1.0000
  C   C2108     1.0  0.54269  0.25843  0.85563  1.0000
  H   H1692     1.0  0.65525  0.36976  0.98797  1.0000
  H   H1693     1.0  0.88801  0.32107  0.85389  1.0000
  C   C2109     1.0  0.80304  0.46160  0.91562  1.0000
  C   C2110     1.0  0.58398  0.30114  0.98057  1.0000
  H   H1694     1.0  0.53070  0.30722  0.95050  1.0000
  C   C2111     1.0  0.95371  0.34365  0.58923  1.0000
  C   C2112     1.0  0.49883  0.29569  0.85194  1.0000
  H   H1695     1.0  0.86922  0.31513  0.75956  1.0000
  C   C2113     1.0  0.88214  0.26603  0.52121  1.0000
  C   C2114     1.0  0.82712  0.45790  0.78408  1.0000
  H   H1696     1.0  0.58563  0.24982  0.96960  1.0000
  H   H1697     1.0  0.94603  0.30039  0.51034  1.0000
  C   C2115     1.0  0.96423  0.29701  0.69735  1.0000
  C   C2116     1.0  0.97431  0.47808  0.75065  1.0000
  C   C2117     1.0  0.88814  0.47858  0.73680  1.0000
  H   H1698     1.0  0.69727  0.47133  0.92180  1.0000
  C   C2118     1.0  0.52505  0.33150  0.78051  1.0000
  H   H1699     1.0  0.90097  0.37087  0.81160  1.0000
  C   C2119     1.0  0.68975  0.48521  0.91581  1.0000
  H   H1700     1.0  0.83267  0.26469  0.73088  1.0000
  H   H1701     1.0  0.90910  0.35034  0.84298  1.0000
  C   C2120     1.0  0.86133  0.27666  0.70140  1.0000
  H   H1702     1.0  0.56961  0.29695  0.84484  1.0000
  C   C2121     1.0  0.84739  0.28729  0.66872  1.0000
  C   C2122     1.0  0.69252  0.27986  0.96405  1.0000
  C   C2123     1.0  0.80735  0.48616  0.79875  1.0000
  C   C2124     1.0  0.72593  0.49546  0.87627  1.0000
  H   H1703     1.0  0.87687  0.33068  0.72546  1.0000
  C   C2125     1.0  0.59252  0.31926  0.98597  1.0000
  H   H1704     1.0  0.56877  0.28567  0.95752  1.0000
  H   H1705     1.0  0.97592  0.28600  0.64022  1.0000
  H   H1706     1.0  0.97027  0.41271  0.75134  1.0000
  H   H1707     1.0  0.59675  0.35087  0.97671  1.0000
  C   C2126     1.0  0.89740  0.25050  0.52263  1.0000
  P   P72       1.0  0.81505  0.47248  0.87504  1.0000
  C   C2127     1.0  0.86258  0.26897  0.79348  1.0000
  C   C2128     1.0  0.84428  0.25899  0.79257  1.0000
  C   C2129     1.0  0.82568  0.27026  0.79215  1.0000
  C   C2130     1.0  0.82534  0.29151  0.79280  1.0000
  C   C2131     1.0  0.84366  0.30167  0.79398  1.0000
  C   C2132     1.0  0.86233  0.29022  0.79398  1.0000
  P   P73       1.0  0.84346  0.32916  0.79463  1.0000
  C   C2133     1.0  0.84796  0.33957  0.76898  1.0000
  C   C2134     1.0  0.81914  0.33871  0.80543  1.0000
  C   C2135     1.0  0.80191  0.34076  0.79328  1.0000
  C   C2136     1.0  0.78299  0.34778  0.80162  1.0000
  C   C2137     1.0  0.78105  0.35261  0.82219  1.0000
  C   C2138     1.0  0.79804  0.35048  0.83439  1.0000
  C   C2139     1.0  0.81705  0.34376  0.82605  1.0000
  C   C2140     1.0  0.83912  0.35863  0.76306  1.0000
  C   C2141     1.0  0.84369  0.36736  0.74371  1.0000
  C   C2142     1.0  0.85716  0.35716  0.73012  1.0000
  C   C2143     1.0  0.86606  0.33824  0.73590  1.0000
  C   C2144     1.0  0.86159  0.32947  0.75526  1.0000
  C   C2145     1.0  0.86387  0.33619  0.81033  1.0000
  C   C2146     1.0  0.86840  0.32473  0.82825  1.0000
  C   C2147     1.0  0.88464  0.32984  0.84001  1.0000
  C   C2148     1.0  0.89649  0.34635  0.83393  1.0000
  C   C2149     1.0  0.89193  0.35791  0.81624  1.0000
  C   C2150     1.0  0.87553  0.35302  0.80464  1.0000
  H   H1708     1.0  0.87698  0.26021  0.79394  1.0000
  C   C2151     1.0  0.78212  0.48463  0.85064  1.0000
  H   H1709     1.0  0.81146  0.26252  0.79149  1.0000
  H   H1710     1.0  0.81075  0.29987  0.79258  1.0000
  H   H1711     1.0  0.87670  0.29773  0.79448  1.0000
  H   H1712     1.0  0.80312  0.33700  0.77734  1.0000
  H   H1713     1.0  0.76981  0.34956  0.79215  1.0000
  H   H1714     1.0  0.76645  0.35817  0.82870  1.0000
  H   H1715     1.0  0.79657  0.35446  0.85029  1.0000
  H   H1716     1.0  0.83000  0.34281  0.83581  1.0000
  H   H1717     1.0  0.82934  0.36724  0.77365  1.0000
  H   H1718     1.0  0.83739  0.38243  0.73961  1.0000
  H   H1719     1.0  0.93600  0.38231  0.67996  1.0000
  H   H1720     1.0  0.96703  0.48460  0.73729  1.0000
  C   C2152     1.0  0.98398  0.40608  0.75802  1.0000
  C   C2153     1.0  0.84191  0.49091  0.78533  1.0000
  H   H1721     1.0  0.85508  0.29782  0.72554  1.0000
  C   C2154     1.0  0.95088  0.37866  0.67277  1.0000
  H   H1722     1.0  0.95299  0.25424  0.55560  1.0000
  H   H1723     1.0  0.63482  0.31924  0.94008  1.0000
  C   C2155     1.0  0.96502  0.46196  0.76142  1.0000
  C   C2156     1.0  0.94364  0.31999  0.62430  1.0000
  C   C2157     1.0  0.95487  0.35955  0.66452  1.0000
  H   H1724     1.0  0.96888  0.32831  0.68914  1.0000
  H   H1725     1.0  0.99642  0.26536  0.58071  1.0000
  H   H1726     1.0  0.96295  0.40774  0.67850  1.0000
  C   C2158     1.0  0.96854  0.31310  0.68347  1.0000
  C   C2159     1.0  0.58245  0.33502  0.95354  1.0000
  H   H1727     1.0  0.77019  0.32888  0.99157  1.0000
  H   H1728     1.0  0.83389  0.25139  0.52536  1.0000
  H   H1729     1.0  0.50182  0.29171  0.91699  1.0000
  C   C2160     1.0  0.85819  0.27292  0.68086  1.0000
  C   C2161     1.0  0.85310  0.29478  0.70967  1.0000
  C   C2162     1.0  0.83851  0.25013  0.73692  1.0000
  C   C2163     1.0  0.80079  0.27194  0.57206  1.0000
  C   C2164     1.0  0.76512  0.48107  0.83927  1.0000
  H   H1730     1.0  0.63278  0.34135  0.98326  1.0000
  H   H1731     1.0  0.96283  0.25590  0.59625  1.0000
  H   H1732     1.0  0.53085  0.27490  0.97054  1.0000
  C   C2165     1.0  0.99246  0.27565  0.52810  1.0000
  H   H1733     1.0  0.52497  0.33981  0.76590  1.0000
  C   C2166     1.0  0.73270  0.49433  0.96910  1.0000
  H   H1734     1.0  0.86328  0.28466  0.50093  1.0000
  H   H1735     1.0  0.99176  0.49423  0.70293  1.0000
  C   C2167     1.0  0.99248  0.45998  0.78509  1.0000
  C   C2168     1.0  0.50952  0.30765  0.80492  1.0000
  C   C2169     1.0  0.74502  0.49319  0.91354  1.0000
  C   C2170     1.0  0.87446  0.27208  0.50201  1.0000
  H   H1736     1.0  0.75604  0.49374  0.83293  1.0000
  C   C2171     1.0  0.49847  0.31401  0.95583  1.0000
  H   H1737     1.0  0.49859  0.32834  0.94712  1.0000
  H   H1738     1.0  0.71827  0.49633  0.86196  1.0000
  H   H1739     1.0  0.82404  0.24782  0.61231  1.0000
  C   C2172     1.0  0.91208  0.24666  0.69539  1.0000
  S   S289      1.0  0.59338  0.73210  0.08103  1.0000
  C   C2173     1.0  0.74610  0.61391  0.00203  1.0000
  Fe  Fe145     1.0  0.61083  0.73217  0.10986  1.0000
  S   S290      1.0  0.62580  0.70179  0.12177  1.0000
  C   C2174     1.0  0.94415  0.71547  0.33093  1.0000
  C   C2175     1.0  0.55257  0.64450  0.00200  1.0000
  Fe  Fe146     1.0  0.72942  0.57786  0.10525  1.0000
  S   S291      1.0  0.76363  0.57543  0.10420  1.0000
  S   S292      1.0  0.71009  0.54977  0.10658  1.0000
  Fe  Fe147     1.0  0.72811  0.62500  0.10044  1.0000
  S   S293      1.0  0.76278  0.62517  0.09878  1.0000
  S   S294      1.0  0.71133  0.65634  0.09521  1.0000
  Fe  Fe148     1.0  0.76126  0.59868  0.07808  1.0000
  S   S295      1.0  0.78078  0.59266  0.04913  1.0000
  Fe  Fe149     1.0  0.76216  0.60193  0.12510  1.0000
  S   S296      1.0  0.77756  0.60007  0.15625  1.0000
  S   S297      1.0  0.72704  0.59982  0.07809  1.0000
  S   S298      1.0  0.72748  0.60309  0.12773  1.0000
  Fe  Fe150     1.0  0.89166  0.61997  0.27192  1.0000
  S   S299      1.0  0.90387  0.62458  0.23928  1.0000
  S   S300      1.0  0.89714  0.64747  0.29192  1.0000
  Fe  Fe151     1.0  0.88339  0.57529  0.26389  1.0000
  S   S301      1.0  0.89596  0.57727  0.23164  1.0000
  S   S302      1.0  0.86868  0.54610  0.27583  1.0000
  Fe  Fe152     1.0  0.92123  0.59468  0.24407  1.0000
  S   S303      1.0  0.95352  0.58790  0.23052  1.0000
  Fe  Fe153     1.0  0.87746  0.60684  0.22920  1.0000
  S   S304      1.0  0.86242  0.61537  0.19850  1.0000
  S   S305      1.0  0.91016  0.59034  0.27680  1.0000
  S   S306      1.0  0.86377  0.60455  0.26135  1.0000
  H   H1740     1.0  0.76809  0.56106  0.17205  1.0000
  H   H1741     1.0  0.94245  0.71091  0.27238  1.0000
  Fe  Fe154     1.0  0.88564  0.72176  0.38838  1.0000
  S   S307      1.0  0.87102  0.69449  0.37428  1.0000
  S   S308      1.0  0.91109  0.71884  0.41077  1.0000
  H   H1742     1.0  0.71065  0.70367  0.00059  1.0000
  H   H1743     1.0  0.89020  0.71311  0.47648  1.0000
  C   C2176     1.0  0.89239  0.72555  0.24619  1.0000
  H   H1744     1.0  0.85581  0.68209  0.47194  1.0000
  C   C2177     1.0  0.89000  0.65924  0.31564  1.0000
  C   C2178     1.0  0.87200  0.65497  0.32704  1.0000
  C   C2179     1.0  0.86657  0.66563  0.34501  1.0000
  C   C2180     1.0  0.87899  0.68071  0.35196  1.0000
  C   C2181     1.0  0.89721  0.68457  0.34085  1.0000
  C   C2182     1.0  0.90260  0.67405  0.32284  1.0000
  H   H1745     1.0  0.86210  0.64366  0.32188  1.0000
  H   H1746     1.0  0.85251  0.66230  0.35348  1.0000
  H   H1747     1.0  0.90713  0.69564  0.34632  1.0000
  H   H1748     1.0  0.91673  0.67736  0.31452  1.0000
  C   C2183     1.0  0.97701  0.59583  0.23946  1.0000
  C   C2184     1.0  0.93720  0.66978  0.18430  1.0000
  C   C2185     1.0  0.97810  0.60559  0.25791  1.0000
  H   H1749     1.0  0.95445  0.69434  0.19405  1.0000
  H   H1750     1.0  0.96435  0.60834  0.26730  1.0000
  C   C2186     1.0  0.89717  0.51968  0.25727  1.0000
  C   C2187     1.0  0.87871  0.52179  0.26859  1.0000
  H   H1751     1.0  0.75272  0.54476  0.07496  1.0000
  H   H1752     1.0  0.90520  0.53309  0.25219  1.0000
  H   H1753     1.0  0.66214  0.67914  0.03939  1.0000
  C   C2188     1.0  0.80162  0.60380  0.16734  1.0000
  C   C2189     1.0  0.80408  0.59810  0.18809  1.0000
  C   C2190     1.0  0.82252  0.60125  0.19782  1.0000
  C   C2191     1.0  0.83888  0.61023  0.18696  1.0000
  C   C2192     1.0  0.83646  0.61576  0.16616  1.0000
  C   C2193     1.0  0.81804  0.61256  0.15640  1.0000
  H   H1754     1.0  0.79153  0.59139  0.19679  1.0000
  H   H1755     1.0  0.82386  0.59715  0.21385  1.0000
  H   H1756     1.0  0.84891  0.62277  0.15755  1.0000
  H   H1757     1.0  0.81648  0.61708  0.14049  1.0000
  C   C2194     1.0  0.75220  0.60775  0.02174  1.0000
  C   C2195     1.0  0.77126  0.59782  0.02440  1.0000
  C   C2196     1.0  0.78351  0.59287  0.00701  1.0000
  H   H1758     1.0  0.74256  0.61159  0.03494  1.0000
  H   H1759     1.0  0.79830  0.58516  0.00889  1.0000
  C   C2197     1.0  0.72109  0.52453  0.10814  1.0000
  C   C2198     1.0  0.79131  0.53959  0.23189  1.0000
  C   C2199     1.0  0.74158  0.52071  0.11281  1.0000
  H   H1760     1.0  0.74581  0.68974  0.19191  1.0000
  H   H1761     1.0  0.75100  0.53328  0.11563  1.0000
  C   C2200     1.0  0.64929  0.68910  0.11348  1.0000
  C   C2201     1.0  0.66347  0.69841  0.09996  1.0000
  C   C2202     1.0  0.68223  0.68811  0.09455  1.0000
  C   C2203     1.0  0.68714  0.66831  0.10243  1.0000
  C   C2204     1.0  0.67277  0.65881  0.11557  1.0000
  C   C2205     1.0  0.65403  0.66915  0.12106  1.0000
  H   H1762     1.0  0.66014  0.71370  0.09391  1.0000
  H   H1763     1.0  0.69310  0.69563  0.08427  1.0000
  H   H1764     1.0  0.67618  0.64358  0.12166  1.0000
  H   H1765     1.0  0.64317  0.66171  0.13139  1.0000
  C   C2206     1.0  0.99077  0.65884  0.28810  1.0000
  H   H1766     1.0  0.85391  0.50615  0.22823  1.0000
  C   C2207     1.0  0.90027  0.71614  0.26398  1.0000
  C   C2208     1.0  0.86891  0.71106  0.30326  1.0000
  H   H1767     1.0  0.73418  0.57597  0.16435  1.0000
  H   H1768     1.0  0.93333  0.52497  0.27563  1.0000
  H   H1769     1.0  0.78721  0.55324  0.24015  1.0000
  C   C2209     1.0  0.75592  0.55101  0.16942  1.0000
  H   H1770     1.0  0.93795  0.62184  0.20574  1.0000
  H   H1771     1.0  0.99703  0.73110  0.47964  1.0000
  C   C2210     1.0  0.74607  0.53162  0.01842  1.0000
  H   H1772     1.0  0.78221  0.54653  0.05002  1.0000
  C   C2211     1.0  0.95586  0.66152  0.26479  1.0000
  C   C2212     1.0  0.54818  0.73706  0.03202  1.0000
  H   H1773     1.0  0.66394  0.72536  0.13545  1.0000
  H   H1774     1.0  0.76541  0.49780  0.11871  1.0000
  C   C2213     1.0  0.89343  0.72263  0.48893  1.0000
  H   H1775     1.0  0.77817  0.53832  0.01413  1.0000
  H   H1776     1.0  0.86800  0.56910  0.18694  1.0000
  C   C2214     1.0  0.56214  0.66151  0.00864  1.0000
  C   C2215     1.0  0.99706  0.61199  0.26412  1.0000
  H   H1777     1.0  0.52482  0.73240  0.12357  1.0000
  C   C2216     1.0  0.72938  0.53115  0.03258  1.0000
  H   H1778     1.0  0.54563  0.71937  0.06023  1.0000
  C   C2217     1.0  0.94271  0.71233  0.28868  1.0000
  H   H1779     1.0  0.91436  0.72993  0.32948  1.0000
  H   H1780     1.0  0.94459  0.71655  0.34736  1.0000
  C   C2218     1.0  0.80220  0.52343  0.24150  1.0000
  H   H1781     1.0  0.74971  0.68645  0.10794  1.0000
  P   P74       1.0  0.59514  0.68680  0.01117  1.0000
  C   C2219     1.0  0.79142  0.52080  0.20064  1.0000
  C   C2220     1.0  0.57642  0.70634  0.01902  1.0000
  C   C2221     1.0  0.83699  0.73118  0.46905  1.0000
  H   H1782     1.0  0.78518  0.53216  0.13100  1.0000
  C   C2222     1.0  0.76521  0.53707  0.02484  1.0000
  H   H1783     1.0  0.84053  0.51549  0.12482  1.0000
  C   C2223     1.0  0.56654  0.70483  0.03845  1.0000
  H   H1784     1.0  0.92046  0.49871  0.24528  1.0000
  H   H1785     1.0  0.97296  0.69833  0.29043  1.0000
  H   H1786     1.0  0.73185  0.62252  0.00046  1.0000
  C   C2224     1.0  0.60987  0.67819  0.03284  1.0000
  C   C2225     1.0  0.61738  0.65787  0.03492  1.0000
  C   C2226     1.0  0.62811  0.65127  0.05216  1.0000
  C   C2227     1.0  0.63128  0.66483  0.06749  1.0000
  C   C2228     1.0  0.62410  0.68509  0.06536  1.0000
  C   C2229     1.0  0.61379  0.69185  0.04797  1.0000
  C   C2230     1.0  0.90455  0.69503  0.26456  1.0000
  H   H1787     1.0  0.80654  0.52452  0.25720  1.0000
  H   H1788     1.0  0.84355  0.69530  0.31735  1.0000
  C   C2231     1.0  0.85465  0.50508  0.15262  1.0000
  H   H1789     1.0  0.56994  0.69202  0.04883  1.0000
  C   C2232     1.0  0.57171  0.72323  0.00601  1.0000
  C   C2233     1.0  0.95419  0.64677  0.21667  1.0000
  P   P75       1.0  0.78524  0.51935  0.17405  1.0000
  H   H1790     1.0  0.61492  0.64705  0.02340  1.0000
  H   H1791     1.0  0.63387  0.63560  0.05377  1.0000
  H   H1792     1.0  0.63943  0.65973  0.08095  1.0000
  H   H1793     1.0  0.62658  0.69566  0.07718  1.0000
  H   H1794     1.0  0.60885  0.70778  0.04639  1.0000
  H   H1795     1.0  0.94574  0.70482  0.45389  1.0000
  C   C2234     1.0  0.96062  0.70631  0.32006  1.0000
  H   H1796     1.0  0.88836  0.74168  0.24546  1.0000
  H   H1797     1.0  0.70323  0.65550  0.24624  1.0000
  C   C2235     1.0  0.90135  0.68357  0.24759  1.0000
  H   H1798     1.0  0.83583  0.72117  0.34337  1.0000
  H   H1799     1.0  0.77712  0.64519  0.15239  1.0000
  C   C2236     1.0  0.95468  0.65381  0.28497  1.0000
  H   H1800     1.0  0.69302  0.51066  0.10146  1.0000
  H   H1801     1.0  0.77883  0.66358  0.11868  1.0000
  C   C2237     1.0  0.86826  0.50418  0.27474  1.0000
  C   C2238     1.0  0.95651  0.73408  0.44367  1.0000
  C   C2239     1.0  0.89382  0.69303  0.22985  1.0000
  H   H1802     1.0  0.64001  0.64906  0.17454  1.0000
  H   H1803     1.0  0.55383  0.67140  0.01919  1.0000
  H   H1804     1.0  0.94929  0.55776  0.26656  1.0000
  H   H1805     1.0  0.71968  0.69198  0.13102  1.0000
  C   C2240     1.0  0.99512  0.59212  0.22765  1.0000
  C   C2241     1.0  0.95850  0.66744  0.21390  1.0000
  C   C2242     1.0  0.94679  0.73512  0.23373  1.0000
  H   H1806     1.0  0.89104  0.68396  0.21686  1.0000
  C   C2243     1.0  0.94124  0.63782  0.20352  1.0000
  P   P76       1.0  0.69668  0.66319  0.01290  1.0000
  C   C2244     1.0  0.68769  0.68858  0.01976  1.0000
  C   C2245     1.0  0.68783  0.64299  0.03022  1.0000
  C   C2246     1.0  0.68535  0.64585  0.05128  1.0000
  C   C2247     1.0  0.67960  0.62975  0.06458  1.0000
  C   C2248     1.0  0.67663  0.61059  0.05706  1.0000
  C   C2249     1.0  0.67921  0.60753  0.03615  1.0000
  C   C2250     1.0  0.68475  0.62363  0.02278  1.0000
  C   C2251     1.0  0.69772  0.70557  0.01125  1.0000
  C   C2252     1.0  0.69115  0.72531  0.01645  1.0000
  C   C2253     1.0  0.67456  0.72828  0.03024  1.0000
  C   C2254     1.0  0.66441  0.71154  0.03867  1.0000
  C   C2255     1.0  0.67065  0.69178  0.03316  1.0000
  C   C2256     1.0  0.72434  0.66295  0.01322  1.0000
  C   C2257     1.0  0.97054  0.70562  0.23353  1.0000
  C   C2258     1.0  0.74969  0.50055  0.11464  1.0000
  C   C2259     1.0  0.76730  0.66124  0.01369  1.0000
  C   C2260     1.0  0.75574  0.65626  0.03141  1.0000
  C   C2261     1.0  0.73437  0.65717  0.03124  1.0000
  C   C2262     1.0  0.85058  0.53858  0.22622  1.0000
  C   C2263     1.0  0.85640  0.51956  0.21857  1.0000
  C   C2264     1.0  0.95043  0.67872  0.19721  1.0000
  H   H1807     1.0  0.69897  0.73835  0.00989  1.0000
  C   C2265     1.0  0.95071  0.71425  0.23126  1.0000
  H   H1808     1.0  0.68851  0.66030  0.05759  1.0000
  H   H1809     1.0  0.67816  0.63195  0.08087  1.0000
  H   H1810     1.0  0.67287  0.59800  0.06753  1.0000
  H   H1811     1.0  0.67740  0.59252  0.03038  1.0000
  H   H1812     1.0  0.68710  0.62075  0.00674  1.0000
  H   H1813     1.0  0.84191  0.51059  0.16224  1.0000
  C   C2266     1.0  0.86576  0.51813  0.19900  1.0000
  C   C2267     1.0  0.95876  0.54386  0.26811  1.0000
  H   H1814     1.0  0.65155  0.71411  0.04933  1.0000
  P   P77       1.0  0.97592  0.67874  0.23036  1.0000
  H   H1815     1.0  0.87244  0.69906  0.29268  1.0000
  H   H1816     1.0  0.97110  0.64626  0.31218  1.0000
  H   H1817     1.0  0.78385  0.65988  0.01372  1.0000
  H   H1818     1.0  0.76333  0.65109  0.04519  1.0000
  H   H1819     1.0  0.72586  0.65300  0.04517  1.0000
  C   C2268     1.0  0.73189  0.53561  0.05295  1.0000
  H   H1820     1.0  0.96093  0.63742  0.22883  1.0000
  H   H1821     1.0  0.63292  0.70898  0.01246  1.0000
  C   C2269     1.0  0.99207  0.66642  0.26787  1.0000
  C   C2270     1.0  0.70892  0.50790  0.10501  1.0000
  C   C2271     1.0  0.94938  0.71989  0.45835  1.0000
  H   H1822     1.0  0.97388  0.70042  0.32807  1.0000
  H   H1823     1.0  0.74698  0.65010  0.17564  1.0000
  C   C2272     1.0  0.80184  0.53545  0.15844  1.0000
  C   C2273     1.0  0.81754  0.54576  0.16705  1.0000
  C   C2274     1.0  0.82903  0.55948  0.15503  1.0000
  C   C2275     1.0  0.82502  0.56301  0.13442  1.0000
  C   C2276     1.0  0.80950  0.55279  0.12573  1.0000
  C   C2277     1.0  0.79779  0.53925  0.13772  1.0000
  H   H1824     1.0  0.99437  0.58466  0.21332  1.0000
  C   C2278     1.0  0.84801  0.72344  0.33192  1.0000
  C   C2279     1.0  0.76761  0.54168  0.04522  1.0000
  H   H1825     1.0  0.66944  0.74357  0.03435  1.0000
  C   C2280     1.0  0.86434  0.55516  0.19546  1.0000
  C   C2281     1.0  0.75962  0.52980  0.16983  1.0000
  C   C2282     1.0  0.98000  0.54452  0.26541  1.0000
  H   H1826     1.0  0.71897  0.53529  0.06385  1.0000
  C   C2283     1.0  0.72092  0.54704  0.16033  1.0000
  C   C2284     1.0  0.72439  0.52592  0.16067  1.0000
  C   C2285     1.0  0.74364  0.51729  0.16533  1.0000
  C   C2286     1.0  0.85239  0.70884  0.31726  1.0000
  H   H1827     1.0  0.71437  0.52746  0.02783  1.0000
  C   C2287     1.0  0.86990  0.53614  0.18757  1.0000
  H   H1828     1.0  0.85048  0.57108  0.22092  1.0000
  C   C2288     1.0  0.73666  0.55956  0.16486  1.0000
  H   H1829     1.0  0.82069  0.54374  0.18309  1.0000
  H   H1830     1.0  0.84049  0.56811  0.16187  1.0000
  H   H1831     1.0  0.83350  0.57419  0.12537  1.0000
  H   H1832     1.0  0.80601  0.55602  0.10989  1.0000
  H   H1833     1.0  0.85391  0.50568  0.28345  1.0000
  C   C2289     1.0  0.96193  0.50743  0.27491  1.0000
  C   C2290     1.0  0.88109  0.72808  0.30369  1.0000
  H   H1834     1.0  0.88309  0.72130  0.21550  1.0000
  H   H1835     1.0  0.95851  0.72994  0.42784  1.0000
  H   H1836     1.0  0.84368  0.53963  0.24147  1.0000
  H   H1837     1.0  0.68913  0.60729  0.15625  1.0000
  C   C2291     1.0  0.98610  0.71795  0.23936  1.0000
  H   H1838     1.0  0.70622  0.55369  0.15595  1.0000
  H   H1839     1.0  0.71237  0.51625  0.15647  1.0000
  C   C2292     1.0  0.80790  0.50603  0.23072  1.0000
  H   H1840     1.0  0.94025  0.64873  0.29158  1.0000
  H   H1841     1.0  0.73644  0.66934  0.25442  1.0000
  H   H1842     1.0  0.53710  0.64146  0.00744  1.0000
  H   H1843     1.0  0.90418  0.66721  0.24850  1.0000
  C   C2293     1.0  0.75098  0.54090  0.05926  1.0000
  H   H1844     1.0  0.69123  0.65847  0.21113  1.0000
  H   H1845     1.0  0.94212  0.66252  0.25612  1.0000
  C   C2294     1.0  0.51140  0.73580  0.11475  1.0000
  C   C2295     1.0  0.84556  0.71251  0.46267  1.0000
  C   C2296     1.0  0.94639  0.72534  0.47866  1.0000
  C   C2297     1.0  0.85443  0.55635  0.21465  1.0000
  C   C2298     1.0  0.71248  0.66298  0.23434  1.0000
  C   C2299     1.0  0.89704  0.74322  0.48496  1.0000
  C   C2300     1.0  0.67769  0.73940  0.16034  1.0000
  C   C2301     1.0  0.90571  0.50016  0.25321  1.0000
  H   H1846     1.0  0.65211  0.61480  0.16334  1.0000
  H   H1847     1.0  0.75763  0.68645  0.22718  1.0000
  H   H1848     1.0  0.77767  0.55113  0.20448  1.0000
  H   H1849     1.0  0.92222  0.64235  0.17762  1.0000
  C   C2302     1.0  0.97210  0.65246  0.29662  1.0000
  H   H1850     1.0  0.87779  0.53558  0.17275  1.0000
  C   C2303     1.0  0.99241  0.52663  0.26736  1.0000
  C   C2304     1.0  0.78588  0.53830  0.21158  1.0000
  C   C2305     1.0  0.91311  0.50186  0.19893  1.0000
  H   H1851     1.0  0.84974  0.71054  0.44666  1.0000
  C   C2306     1.0  0.92696  0.72307  0.32070  1.0000
  C   C2307     1.0  0.97463  0.66766  0.25600  1.0000
  C   C2308     1.0  0.85990  0.74052  0.33233  1.0000
  C   C2309     1.0  0.93248  0.64937  0.18756  1.0000
  H   H1852     1.0  0.71400  0.63375  0.16006  1.0000
  C   C2310     1.0  0.88935  0.71404  0.22913  1.0000
  H   H1853     1.0  0.90989  0.68727  0.27834  1.0000
  C   C2311     1.0  0.55259  0.72019  0.04493  1.0000
  C   C2312     1.0  0.98323  0.50805  0.27230  1.0000
  C   C2313     1.0  0.94975  0.52536  0.27302  1.0000
  H   H1854     1.0  0.93151  0.74174  0.23177  1.0000
  S   S309      1.0  0.90077  0.74541  0.36811  1.0000
  C   C2314     1.0  0.55754  0.73843  0.01249  1.0000
  C   C2315     1.0  0.96002  0.70501  0.29890  1.0000
  C   C2316     1.0  0.92587  0.72114  0.29957  1.0000
  C   C2317     1.0  0.69097  0.73656  0.17645  1.0000
  C   C2318     1.0  0.73117  0.67079  0.23896  1.0000
  C   C2319     1.0  0.98217  0.73883  0.24168  1.0000
  H   H1855     1.0  0.93076  0.67857  0.17161  1.0000
  C   C2320     1.0  0.80275  0.50482  0.21034  1.0000
  H   H1856     1.0  0.93820  0.70486  0.22789  1.0000
  C   C2321     1.0  0.67433  0.72322  0.14790  1.0000
  C   C2322     1.0  0.68419  0.70421  0.15160  1.0000
  C   C2323     1.0  0.69725  0.70107  0.16797  1.0000
  C   C2324     1.0  0.70077  0.71749  0.18026  1.0000
  P   P78       1.0  0.70940  0.67617  0.17282  1.0000
  C   C2325     1.0  0.71773  0.67417  0.19880  1.0000
  C   C2326     1.0  0.69121  0.65678  0.16954  1.0000
  C   C2327     1.0  0.67023  0.66081  0.17381  1.0000
  C   C2328     1.0  0.65620  0.64571  0.17159  1.0000
  C   C2329     1.0  0.66300  0.62643  0.16525  1.0000
  C   C2330     1.0  0.68386  0.62222  0.16123  1.0000
  C   C2331     1.0  0.69793  0.63732  0.16335  1.0000
  C   C2332     1.0  0.70573  0.66467  0.21435  1.0000
  C   C2333     1.0  0.74310  0.68043  0.22361  1.0000
  C   C2334     1.0  0.73639  0.68220  0.20363  1.0000
  C   C2335     1.0  0.73133  0.67215  0.15553  1.0000
  C   C2336     1.0  0.74757  0.65863  0.16117  1.0000
  C   C2337     1.0  0.76472  0.65575  0.14800  1.0000
  C   C2338     1.0  0.76568  0.66610  0.12900  1.0000
  C   C2339     1.0  0.74937  0.67911  0.12303  1.0000
  C   C2340     1.0  0.73225  0.68216  0.13622  1.0000
  P   P79       1.0  0.90329  0.73048  0.28655  1.0000
  H   H1857     1.0  0.98679  0.55907  0.26207  1.0000
  S   S310      1.0  0.95914  0.73466  0.38280  1.0000
  H   H1858     1.0  0.68153  0.69187  0.14176  1.0000
  H   H1859     1.0  0.71089  0.71567  0.19287  1.0000
  H   H1860     1.0  0.66464  0.67563  0.17879  1.0000
  H   H1861     1.0  0.90842  0.51784  0.19785  1.0000
  C   C2341     1.0  0.83213  0.73409  0.48986  1.0000
  C   C2342     1.0  0.98150  0.74608  0.39036  1.0000
  H   H1862     1.0  0.74595  0.50098  0.16459  1.0000
  C   C2343     1.0  0.58225  0.66548  0.00181  1.0000
  H   H1863     1.0  0.73633  0.57042  0.99919  1.0000
  H   H1864     1.0  0.94017  0.71454  0.48989  1.0000
  C   C2344     1.0  0.84894  0.69646  0.47690  1.0000
  Fe  Fe155     1.0  0.92570  0.74327  0.39098  1.0000
  H   H1865     1.0  0.82293  0.51238  0.08856  1.0000
  C   C2345     1.0  0.87634  0.74287  0.31827  1.0000
  Fe  Fe156     1.0  0.89495  0.74457  0.42751  1.0000
  H   H1866     1.0  0.94365  0.50817  0.20720  1.0000
  S   S311      1.0  0.86760  0.74526  0.40745  1.0000
  C   C2346     1.0  0.95044  0.74500  0.48433  1.0000
  C   C2347     1.0  0.85381  0.50777  0.13142  1.0000
  H   H1867     1.0  0.78582  0.51143  0.08231  1.0000
  H   H1868     1.0  0.83428  0.74323  0.45765  1.0000
  H   H1869     1.0  0.99775  0.61955  0.27835  1.0000
  H   H1870     1.0  0.86982  0.50339  0.10244  1.0000
  H   H1871     1.0  0.80444  0.49879  0.13799  1.0000
  C   C2348     1.0  0.87025  0.50091  0.11885  1.0000
  C   C2349     1.0  0.81616  0.49793  0.08636  1.0000
  C   C2350     1.0  0.79529  0.49746  0.08276  1.0000
  S   S312      1.0  0.58817  0.72988  0.92312  1.0000
  H   H1872     1.0  0.77834  0.52482  0.79473  1.0000
  H   H1873     1.0  0.77558  0.72693  0.81042  1.0000
  H   H1874     1.0  0.59401  0.68942  0.96617  1.0000
  Fe  Fe157     1.0  0.61534  0.73187  0.90086  1.0000
  S   S313      1.0  0.64546  0.71262  0.90505  1.0000
  Fe  Fe158     1.0  0.71737  0.60866  0.89874  1.0000
  S   S314      1.0  0.74594  0.62580  0.90090  1.0000
  S   S315      1.0  0.68591  0.62309  0.89052  1.0000
  Fe  Fe159     1.0  0.74027  0.56743  0.91015  1.0000
  S   S316      1.0  0.77005  0.58247  0.91359  1.0000
  S   S317      1.0  0.74064  0.53392  0.92026  1.0000
  Fe  Fe160     1.0  0.75077  0.60660  0.92997  1.0000
  S   S318      1.0  0.75232  0.62154  0.96072  1.0000
  Fe  Fe161     1.0  0.76253  0.59988  0.88432  1.0000
  S   S319      1.0  0.78089  0.60060  0.85362  1.0000
  S   S320      1.0  0.72156  0.59050  0.92817  1.0000
  S   S321      1.0  0.73328  0.58369  0.88042  1.0000
  C   C2351     1.0  0.61100  0.54607  0.85137  1.0000
  S   S322      1.0  0.92889  0.72361  0.59880  1.0000
  H   H1875     1.0  0.94098  0.71615  0.54164  1.0000
  S   S323      1.0  0.89611  0.71619  0.55089  1.0000
  Fe  Fe162     1.0  0.90762  0.73049  0.62583  1.0000
  S   S324      1.0  0.91422  0.71256  0.65601  1.0000
  Fe  Fe163     1.0  0.88900  0.56920  0.75020  1.0000
  S   S325      1.0  0.90560  0.57435  0.77858  1.0000
  S   S326      1.0  0.87514  0.53862  0.74572  1.0000
  Fe  Fe164     1.0  0.89128  0.61446  0.73515  1.0000
  S   S327      1.0  0.90793  0.62255  0.76302  1.0000
  S   S328      1.0  0.88106  0.63464  0.70745  1.0000
  Fe  Fe165     1.0  0.92666  0.59320  0.75833  1.0000
  S   S329      1.0  0.96097  0.58524  0.75469  1.0000
  Fe  Fe166     1.0  0.88526  0.60286  0.78119  1.0000
  S   S330      1.0  0.87128  0.60999  0.81315  1.0000
  S   S331      1.0  0.91104  0.58614  0.72956  1.0000
  S   S332      1.0  0.86751  0.59675  0.75370  1.0000
  C   C2352     1.0  0.98374  0.59518  0.76326  1.0000
  H   H1876     1.0  0.50022  0.70253  0.89173  1.0000
  C   C2353     1.0  0.98378  0.60915  0.77882  1.0000
  C   C2354     1.0  0.95951  0.53603  0.69854  1.0000
  H   H1877     1.0  0.96947  0.61441  0.78604  1.0000
  H   H1878     1.0  0.73547  0.74402  0.50394  1.0000
  C   C2355     1.0  0.88875  0.51550  0.74004  1.0000
  C   C2356     1.0  0.69108  0.55559  0.96728  1.0000
  H   H1879     1.0  0.87896  0.50656  0.84609  1.0000
  C   C2357     1.0  0.66688  0.66421  0.98386  1.0000
  C   C2358     1.0  0.90487  0.69059  0.66971  1.0000
  C   C2359     1.0  0.91369  0.68439  0.68831  1.0000
  C   C2360     1.0  0.90690  0.66718  0.69987  1.0000
  C   C2361     1.0  0.89096  0.65601  0.69312  1.0000
  C   C2362     1.0  0.88211  0.66225  0.67452  1.0000
  C   C2363     1.0  0.88905  0.67934  0.66284  1.0000
  H   H1880     1.0  0.92575  0.69310  0.69388  1.0000
  H   H1881     1.0  0.91371  0.66273  0.71420  1.0000
  H   H1882     1.0  0.86975  0.65380  0.66911  1.0000
  H   H1883     1.0  0.88205  0.68383  0.64861  1.0000
  H   H1884     1.0  0.69985  0.63323  0.94439  1.0000
  C   C2364     1.0  0.89755  0.72671  0.52553  1.0000
  C   C2365     1.0  0.76448  0.70683  0.85815  1.0000
  H   H1885     1.0  0.57926  0.72505  0.99107  1.0000
  C   C2366     1.0  0.80637  0.60257  0.84302  1.0000
  C   C2367     1.0  0.80966  0.60145  0.82173  1.0000
  C   C2368     1.0  0.82941  0.60316  0.81239  1.0000
  C   C2369     1.0  0.84620  0.60635  0.82423  1.0000
  C   C2370     1.0  0.84290  0.60747  0.84556  1.0000
  C   C2371     1.0  0.82319  0.60546  0.85493  1.0000
  H   H1886     1.0  0.79677  0.59945  0.81233  1.0000
  H   H1887     1.0  0.83161  0.60249  0.79599  1.0000
  H   H1888     1.0  0.85572  0.61004  0.85488  1.0000
  H   H1889     1.0  0.82099  0.60646  0.87129  1.0000
  C   C2372     1.0  0.75861  0.60968  0.98463  1.0000
  C   C2373     1.0  0.62204  0.70256  0.95556  1.0000
  C   C2374     1.0  0.62367  0.52411  0.88633  1.0000
  H   H1890     1.0  0.78250  0.53528  0.90340  1.0000
  C   C2375     1.0  0.99491  0.61611  0.68887  1.0000
  H   H1891     1.0  0.77807  0.65479  0.94498  1.0000
  C   C2376     1.0  0.73888  0.51235  0.90517  1.0000
  H   H1892     1.0  0.69140  0.52641  0.86083  1.0000
  H   H1893     1.0  0.72533  0.52821  0.87952  1.0000
  C   C2377     1.0  0.72375  0.56605  0.99027  1.0000
  C   C2378     1.0  0.65625  0.68755  0.90083  1.0000
  C   C2379     1.0  0.67634  0.68258  0.90691  1.0000
  C   C2380     1.0  0.68567  0.66306  0.90381  1.0000
  C   C2381     1.0  0.67503  0.64813  0.89457  1.0000
  C   C2382     1.0  0.65492  0.65305  0.88859  1.0000
  C   C2383     1.0  0.64558  0.67258  0.89168  1.0000
  H   H1894     1.0  0.68477  0.69396  0.91405  1.0000
  H   H1895     1.0  0.70104  0.65952  0.90869  1.0000
  H   H1896     1.0  0.64648  0.64168  0.88145  1.0000
  H   H1897     1.0  0.63016  0.67609  0.88688  1.0000
  C   C2384     1.0  0.83191  0.51076  0.87836  1.0000
  C   C2385     1.0  0.64616  0.59127  0.93881  1.0000
  H   H1898     1.0  0.75555  0.74233  0.53528  1.0000
  H   H1899     1.0  0.90292  0.60326  0.68426  1.0000
  C   C2386     1.0  0.60518  0.51993  0.87772  1.0000
  S   S333      1.0  0.59539  0.73655  0.87370  1.0000
  H   H1900     1.0  0.98611  0.52391  0.77833  1.0000
  C   C2387     1.0  0.98429  0.50872  0.70670  1.0000
  C   C2388     1.0  0.63565  0.56319  0.91943  1.0000
  H   H1901     1.0  0.86201  0.49786  0.74549  1.0000
  C   C2389     1.0  0.95747  0.60098  0.65875  1.0000
  H   H1902     1.0  0.70461  0.52537  0.96802  1.0000
  H   H1903     1.0  0.60606  0.55463  0.83785  1.0000
  H   H1904     1.0  0.84631  0.68660  0.50858  1.0000
  H   H1905     1.0  0.78727  0.59576  0.97407  1.0000
  H   H1906     1.0  0.89026  0.69862  0.51217  1.0000
  C   C2390     1.0  0.79677  0.50814  0.89080  1.0000
  H   H1907     1.0  0.78644  0.55482  0.86190  1.0000
  C   C2391     1.0  0.68936  0.71662  0.86545  1.0000
  H   H1908     1.0  0.81702  0.54314  0.84183  1.0000
  H   H1909     1.0  0.83109  0.51987  0.75672  1.0000
  C   C2392     1.0  0.95652  0.71899  0.53620  1.0000
  C   C2393     1.0  0.99684  0.66497  0.63382  1.0000
  H   H1910     1.0  0.99617  0.65761  0.73650  1.0000
  H   H1911     1.0  0.83085  0.71930  0.51999  1.0000
  C   C2394     1.0  0.61219  0.69721  0.99144  1.0000
  C   C2395     1.0  0.97568  0.64907  0.66079  1.0000
  C   C2396     1.0  0.78481  0.66324  0.91342  1.0000
  S   S334      1.0  0.53970  0.71985  0.89226  1.0000
  C   C2397     1.0  0.72993  0.51350  0.88613  1.0000
  H   H1912     1.0  0.76647  0.67143  0.98214  1.0000
  C   C2398     1.0  0.83136  0.53117  0.88374  1.0000
  C   C2399     1.0  0.69250  0.57564  0.97321  1.0000
  C   C2400     1.0  0.70289  0.57199  0.83815  1.0000
  C   C2401     1.0  0.95463  0.64143  0.74137  1.0000
  H   H1913     1.0  0.94798  0.54280  0.68866  1.0000
  H   H1914     1.0  0.70132  0.50405  0.93834  1.0000
  C   C2402     1.0  0.80207  0.54072  0.83617  1.0000
  C   C2403     1.0  0.67580  0.57641  0.86410  1.0000
  C   C2404     1.0  0.59275  0.65188  0.98862  1.0000
  H   H1915     1.0  0.53221  0.73500  0.97049  1.0000
  H   H1916     1.0  0.96073  0.70979  0.66377  1.0000
  C   C2405     1.0  0.89355  0.71446  0.50916  1.0000
  H   H1917     1.0  0.68577  0.53591  0.92392  1.0000
  C   C2406     1.0  0.77902  0.51327  0.97339  1.0000
  H   H1918     1.0  0.67843  0.55158  0.95832  1.0000
  C   C2407     1.0  0.96685  0.70571  0.52280  1.0000
  H   H1919     1.0  0.94387  0.65990  0.66193  1.0000
  C   C2408     1.0  0.87261  0.74463  0.66828  1.0000
  C   C2409     1.0  0.98854  0.51804  0.72487  1.0000
  H   H1920     1.0  0.84462  0.54028  0.88055  1.0000
  H   H1921     1.0  0.94637  0.57759  0.64047  1.0000
  C   C2410     1.0  0.91821  0.60252  0.67720  1.0000
  H   H1922     1.0  0.97259  0.60038  0.65135  1.0000
  H   H1923     1.0  0.77357  0.66850  0.84130  1.0000
  C   C2411     1.0  0.69053  0.54269  0.85772  1.0000
  C   C2412     1.0  0.77904  0.71667  0.86890  1.0000
  H   H1924     1.0  0.59118  0.62472  0.97151  1.0000
  C   C2413     1.0  0.96383  0.64380  0.70512  1.0000
  H   H1925     1.0  0.61905  0.70104  0.93959  1.0000
  H   H1926     1.0  0.71029  0.59647  0.98875  1.0000
  C   C2414     1.0  0.78025  0.53051  0.80979  1.0000
  H   H1927     1.0  0.63857  0.56217  0.85283  1.0000
  C   C2415     1.0  0.75937  0.66070  0.84329  1.0000
  C   C2416     1.0  0.76299  0.74589  0.52058  1.0000
  C   C2417     1.0  0.66959  0.57599  0.91364  1.0000
  H   H1928     1.0  0.65761  0.72065  0.98562  1.0000
  H   H1929     1.0  0.96316  0.67457  0.69187  1.0000
  C   C2418     1.0  0.77227  0.66212  0.93116  1.0000
  C   C2419     1.0  0.72605  0.65645  0.85997  1.0000
  C   C2420     1.0  0.65859  0.65915  0.96551  1.0000
  H   H1930     1.0  0.92875  0.62585  0.69548  1.0000
  H   H1931     1.0  0.75191  0.55063  0.84946  1.0000
  H   H1932     1.0  0.78684  0.67216  0.88160  1.0000
  C   C2421     1.0  0.96081  0.66507  0.70548  1.0000
  H   H1933     1.0  0.71412  0.66108  0.87094  1.0000
  C   C2422     1.0  0.99461  0.65063  0.65004  1.0000
  H   H1934     1.0  0.74788  0.53574  0.81560  1.0000
  C   C2423     1.0  0.74424  0.67855  0.91286  1.0000
  H   H1935     1.0  0.81552  0.53596  0.94304  1.0000
  C   C2424     1.0  0.79993  0.53200  0.81720  1.0000
  H   H1936     1.0  0.79219  0.56603  0.94920  1.0000
  P   P80       1.0  0.82205  0.52558  0.80095  1.0000
  C   C2425     1.0  0.84520  0.53039  0.81375  1.0000
  C   C2426     1.0  0.85393  0.51519  0.82676  1.0000
  C   C2427     1.0  0.87201  0.51852  0.83652  1.0000
  C   C2428     1.0  0.88129  0.53720  0.83367  1.0000
  C   C2429     1.0  0.87254  0.55249  0.82102  1.0000
  C   C2430     1.0  0.85464  0.54912  0.81099  1.0000
  C   C2431     1.0  0.81993  0.54222  0.77845  1.0000
  C   C2432     1.0  0.81294  0.56257  0.78052  1.0000
  C   C2433     1.0  0.81203  0.57596  0.76344  1.0000
  C   C2434     1.0  0.81787  0.56905  0.74410  1.0000
  C   C2435     1.0  0.82433  0.54870  0.74183  1.0000
  C   C2436     1.0  0.82533  0.53530  0.75890  1.0000
  H   H1937     1.0  0.95928  0.69254  0.51787  1.0000
  P   P81       1.0  0.74210  0.52708  0.99195  1.0000
  C   C2437     1.0  0.51342  0.68454  0.97495  1.0000
  C   C2438     1.0  0.72418  0.63840  0.84978  1.0000
  H   H1938     1.0  0.89539  0.53984  0.84105  1.0000
  H   H1939     1.0  0.87979  0.56695  0.81873  1.0000
  H   H1940     1.0  0.84849  0.56116  0.80100  1.0000
  H   H1941     1.0  0.80876  0.56824  0.79544  1.0000
  H   H1942     1.0  0.80736  0.59182  0.76528  1.0000
  H   H1943     1.0  0.81789  0.57956  0.73095  1.0000
  C   C2439     1.0  0.97814  0.53652  0.72966  1.0000
  H   H1944     1.0  0.98076  0.54406  0.74361  1.0000
  H   H1945     1.0  0.95553  0.55953  0.72051  1.0000
  C   C2440     1.0  0.67042  0.64797  0.95132  1.0000
  C   C2441     1.0  0.68891  0.58467  0.84889  1.0000
  C   C2442     1.0  0.76541  0.53014  0.97650  1.0000
  H   H1946     1.0  0.77000  0.63678  0.82340  1.0000
  C   C2443     1.0  0.69890  0.64688  0.97379  1.0000
  C   C2444     1.0  0.75197  0.66967  0.93085  1.0000
  H   H1947     1.0  0.80386  0.73722  0.86685  1.0000
  H   H1948     1.0  0.67653  0.60137  0.93148  1.0000
  C   C2445     1.0  0.63999  0.71134  0.96091  1.0000
  C   C2446     1.0  0.75743  0.64267  0.83307  1.0000
  Fe  Fe167     1.0  0.56846  0.73734  0.89628  1.0000
  C   C2447     1.0  0.70889  0.58087  0.98457  1.0000
  C   C2448     1.0  0.72365  0.70556  0.87514  1.0000
  H   H1949     1.0  0.59575  0.50818  0.88462  1.0000
  C   C2449     1.0  0.65461  0.56263  0.90855  1.0000
  H   H1950     1.0  0.66509  0.58657  0.87221  1.0000
  C   C2450     1.0  0.73986  0.63150  0.83633  1.0000
  H   H1951     1.0  0.74207  0.66794  0.94440  1.0000
  H   H1952     1.0  0.72830  0.68367  0.91277  1.0000
  C   C2451     1.0  0.78473  0.54733  0.84769  1.0000
  C   C2452     1.0  0.68312  0.52172  0.91688  1.0000
  H   H1953     1.0  0.70758  0.69351  0.85029  1.0000
  H   H1954     1.0  0.66397  0.64411  0.93709  1.0000
  C   C2453     1.0  0.94267  0.58809  0.65253  1.0000
  C   C2454     1.0  0.96105  0.67546  0.63801  1.0000
  C   C2455     1.0  0.59886  0.53088  0.86023  1.0000
  C   C2456     1.0  0.60802  0.69578  0.97071  1.0000
  C   C2457     1.0  0.76520  0.54523  0.84049  1.0000
  C   C2458     1.0  0.96989  0.73707  0.67719  1.0000
  H   H1955     1.0  0.68452  0.57562  0.90582  1.0000
  C   C2459     1.0  0.70607  0.54074  0.97276  1.0000
  C   C2460     1.0  0.95282  0.61449  0.67451  1.0000
  H   H1956     1.0  0.72882  0.67396  0.98182  1.0000
  C   C2461     1.0  0.95141  0.66255  0.74161  1.0000
  C   C2462     1.0  0.95461  0.67439  0.72368  1.0000
  C   C2463     1.0  0.77712  0.67201  0.89539  1.0000
  H   H1957     1.0  0.91151  0.57892  0.65702  1.0000
  H   H1958     1.0  0.64281  0.60265  0.95012  1.0000
  H   H1959     1.0  0.95229  0.63216  0.75523  1.0000
  H   H1960     1.0  0.86865  0.72881  0.66776  1.0000
  H   H1961     1.0  0.94639  0.66967  0.75568  1.0000
  H   H1962     1.0  0.95203  0.69077  0.72383  1.0000
  H   H1963     1.0  0.62824  0.51558  0.89999  1.0000
  H   H1964     1.0  0.98183  0.68864  0.61539  1.0000
  H   H1965     1.0  0.64301  0.66395  0.96219  1.0000
  H   H1966     1.0  0.71436  0.54111  0.83418  1.0000
  P   P82       1.0  0.74685  0.69004  0.87131  1.0000
  C   C2464     1.0  0.75687  0.68003  0.89506  1.0000
  P   P83       1.0  0.65990  0.54462  0.88864  1.0000
  H   H1967     1.0  0.73883  0.61711  0.82905  1.0000
  C   C2465     1.0  0.93300  0.61533  0.68358  1.0000
  C   C2466     1.0  0.79638  0.52842  0.89652  1.0000
  C   C2467     1.0  0.81365  0.53996  0.89296  1.0000
  C   C2468     1.0  0.95881  0.66126  0.65429  1.0000
  H   H1968     1.0  0.94795  0.68501  0.63334  1.0000
  C   C2469     1.0  0.98010  0.67747  0.62789  1.0000
  H   H1969     1.0  0.80035  0.65682  0.91353  1.0000
  C   C2470     1.0  0.80165  0.53433  0.95245  1.0000
  C   C2471     1.0  0.97300  0.71710  0.67088  1.0000
  H   H1970     1.0  0.65070  0.71678  0.94908  1.0000
  C   C2472     1.0  0.98646  0.73940  0.53613  1.0000
  C   C2473     1.0  0.70360  0.55100  0.84249  1.0000
  H   H1971     1.0  0.81315  0.55583  0.89697  1.0000
  H   H1972     1.0  0.70411  0.74384  0.90486  1.0000
  H   H1973     1.0  0.62396  0.55281  0.91619  1.0000
  H   H1974     1.0  0.61670  0.57800  0.94259  1.0000
  H   H1975     1.0  0.53501  0.68655  0.94921  1.0000
  C   C2474     1.0  0.62951  0.55027  0.85992  1.0000
  C   C2475     1.0  0.67673  0.55536  0.86887  1.0000
  C   C2476     1.0  0.63146  0.57747  0.93448  1.0000
  P   P84       1.0  0.97210  0.63109  0.68211  1.0000
  C   C2477     1.0  0.66979  0.50281  0.88975  1.0000
  C   C2478     1.0  0.63607  0.53921  0.87739  1.0000
  C   C2479     1.0  0.96374  0.54546  0.71650  1.0000
  H   H1976     1.0  0.91773  0.52869  0.73245  1.0000
  C   C2480     1.0  0.74345  0.66801  0.85645  1.0000
  C   C2481     1.0  0.51040  0.70918  0.94682  1.0000
  C   C2482     1.0  0.79134  0.73341  0.83745  1.0000
  H   H1977     1.0  0.67626  0.71508  0.85614  1.0000
  H   H1978     1.0  0.71325  0.57847  0.82657  1.0000
  C   C2483     1.0  0.66521  0.59048  0.92841  1.0000
  C   C2484     1.0  0.96079  0.63210  0.72323  1.0000
  H   H1979     1.0  0.96311  0.61569  0.72329  1.0000
  C   C2485     1.0  0.90944  0.51480  0.73371  1.0000
  C   C2486     1.0  0.73440  0.50129  0.98889  1.0000
  H   H1980     1.0  0.51636  0.71558  0.93245  1.0000
  C   C2487     1.0  0.69059  0.64185  0.95544  1.0000
  C   C2488     1.0  0.96981  0.51769  0.69361  1.0000
  C   C2489     1.0  0.51462  0.73122  0.89366  1.0000
  C   C2490     1.0  0.77030  0.54918  0.96761  1.0000
  H   H1981     1.0  0.96625  0.51016  0.67988  1.0000
  C   C2491     1.0  0.67164  0.52139  0.89930  1.0000
  C   C2492     1.0  0.76307  0.71091  0.83707  1.0000
  H   H1982     1.0  0.80183  0.74354  0.82943  1.0000
  C   C2493     1.0  0.68835  0.73091  0.88070  1.0000
  H   H1983     1.0  0.82957  0.54348  0.72695  1.0000
  C   C2494     1.0  0.76296  0.53687  0.82150  1.0000
  C   C2495     1.0  0.52099  0.69282  0.95636  1.0000
  H   H1984     1.0  0.76021  0.56248  0.96961  1.0000
  H   H1985     1.0  0.71084  0.62946  0.85284  1.0000
  Fe  Fe168     1.0  0.90248  0.73356  0.57927  1.0000
  C   C2496     1.0  0.92305  0.58884  0.66180  1.0000
  H   H1986     1.0  0.68835  0.60098  0.84570  1.0000
  C   C2497     1.0  0.87814  0.49735  0.74130  1.0000
  C   C2498     1.0  0.78844  0.55125  0.95582  1.0000
  H   H1987     1.0  0.99757  0.68468  0.70934  1.0000
  H   H1988     1.0  0.85771  0.74583  0.52098  1.0000
  H   H1989     1.0  0.89395  0.73866  0.69203  1.0000
  H   H1990     1.0  0.52153  0.67171  0.98224  1.0000
  H   H1991     1.0  0.99416  0.69131  0.66844  1.0000
  C   C2499     1.0  0.77657  0.72403  0.82674  1.0000
  C   C2500     1.0  0.98692  0.70932  0.51591  1.0000
  H   H1992     1.0  0.73552  0.72200  0.89973  1.0000
  C   C2501     1.0  0.64391  0.71343  0.98147  1.0000
  H   H1993     1.0  0.71433  0.64146  0.97678  1.0000
  H   H1994     1.0  0.60848  0.65425  0.98365  1.0000
  C   C2502     1.0  0.72266  0.72025  0.89018  1.0000
  H   H1995     1.0  0.75157  0.70388  0.82860  1.0000
  C   C2503     1.0  0.79251  0.72981  0.85853  1.0000
  H   H1996     1.0  0.68106  0.58720  0.96886  1.0000
  H   H1997     1.0  0.95528  0.74509  0.67483  1.0000
  H   H1998     1.0  0.78001  0.71429  0.88527  1.0000
  C   C2504     1.0  0.70703  0.70415  0.86247  1.0000
  C   C2505     1.0  0.68724  0.65846  0.98803  1.0000
  C   C2506     1.0  0.79693  0.51533  0.96123  1.0000
  C   C2507     1.0  0.77721  0.59871  0.98721  1.0000
  C   C2508     1.0  0.72255  0.54586  0.98433  1.0000
  C   C2509     1.0  0.69198  0.50365  0.92516  1.0000
  H   H1999     1.0  0.78628  0.50018  0.85230  1.0000
  H   H2000     1.0  0.52548  0.74420  0.85062  1.0000
  H   H2001     1.0  0.85485  0.50047  0.78216  1.0000
  C   C2510     1.0  0.70501  0.73277  0.89303  1.0000
  C   C2511     1.0  0.58306  0.63501  0.98184  1.0000
  C   C2512     1.0  0.62994  0.70664  0.99668  1.0000
  H   H2002     1.0  0.77576  0.49844  0.98022  1.0000
  C   C2513     1.0  0.83502  0.71767  0.50396  1.0000
  C   C2514     1.0  0.96632  0.73581  0.54282  1.0000
  C   C2515     1.0  0.99189  0.70672  0.67356  1.0000
  C   C2516     1.0  0.81467  0.49895  0.88202  1.0000
  C   C2517     1.0  0.56296  0.63134  0.98851  1.0000
  C   C2518     1.0  0.82367  0.49903  0.79442  1.0000
  C   C2519     1.0  0.99392  0.59509  0.69355  1.0000
  H   H2003     1.0  0.73490  0.50468  0.95603  1.0000
  C   C2520     1.0  0.99695  0.72617  0.52259  1.0000
  H   H2004     1.0  0.78298  0.49969  0.89302  1.0000
  H   H2005     1.0  0.58455  0.52763  0.85356  1.0000
  H   H2006     1.0  0.97969  0.58743  0.69286  1.0000
  H   H2007     1.0  0.99480  0.69871  0.50572  1.0000
  H   H2008     1.0  0.80714  0.50218  0.95862  1.0000
  H   H2009     1.0  0.84692  0.50065  0.82916  1.0000
  H   H2010     1.0  0.55550  0.61819  0.98335  1.0000
  H   H2011     1.0  0.84576  0.50444  0.87116  1.0000
  H   H2012     1.0  0.99696  0.54976  0.80146  1.0000
  S   S335      1.0  0.88013  0.73802  0.60623  1.0000
  H   H2013     1.0  0.66175  0.50224  0.87571  1.0000
  H   H2014     1.0  0.67450  0.74034  0.88316  1.0000
  H   H2015     1.0  0.65735  0.67241  0.99493  1.0000
  C   C2521     1.0  0.75748  0.66768  0.99590  1.0000
  H   H2016     1.0  0.95836  0.74587  0.55349  1.0000
  C   C2522     1.0  0.73610  0.66881  0.99572  1.0000
  C   C2523     1.0  0.84359  0.69902  0.49752  1.0000
  H   H2017     1.0  0.96761  0.77607  0.39385  1.0000
  H   H2018     1.0  0.53637  0.88969  0.20856  1.0000
  Fe  Fe169     1.0  0.60290  0.77839  0.11491  1.0000
  S   S336      1.0  0.60394  0.80902  0.13130  1.0000
  C   C2524     1.0  0.79813  0.86701  0.46581  1.0000
  S   S337      1.0  0.58633  0.78130  0.08522  1.0000
  Fe  Fe170     1.0  0.61059  0.87968  0.23323  1.0000
  S   S338      1.0  0.59163  0.88064  0.26297  1.0000
  S   S339      1.0  0.61537  0.84811  0.21880  1.0000
  Fe  Fe171     1.0  0.61658  0.92628  0.23395  1.0000
  S   S340      1.0  0.59760  0.92969  0.26270  1.0000
  S   S341      1.0  0.63070  0.95336  0.21681  1.0000
  Fe  Fe172     1.0  0.61529  0.90145  0.27409  1.0000
  S   S342      1.0  0.62657  0.90214  0.30706  1.0000
  Fe  Fe173     1.0  0.57612  0.90874  0.24894  1.0000
  S   S343      1.0  0.54276  0.91921  0.24518  1.0000
  S   S344      1.0  0.63521  0.89867  0.24547  1.0000
  S   S345      1.0  0.59419  0.90708  0.21911  1.0000
  S   S346      1.0  0.91103  0.76884  0.40866  1.0000
  C   C2525     1.0  0.78234  0.75434  0.48256  1.0000
  C   C2526     1.0  0.93750  0.80074  0.47093  1.0000
  H   H2019     1.0  0.54151  0.86343  0.12442  1.0000
  Fe  Fe174     1.0  0.88423  0.76869  0.38823  1.0000
  S   S347      1.0  0.86925  0.79888  0.37590  1.0000
  Fe  Fe175     1.0  0.76281  0.92678  0.39432  1.0000
  S   S348      1.0  0.72861  0.92611  0.39748  1.0000
  S   S349      1.0  0.77863  0.95670  0.38826  1.0000
  Fe  Fe176     1.0  0.76925  0.87988  0.39969  1.0000
  S   S350      1.0  0.73501  0.87652  0.40295  1.0000
  S   S351      1.0  0.78834  0.85009  0.40668  1.0000
  Fe  Fe177     1.0  0.73172  0.89964  0.37663  1.0000
  S   S352      1.0  0.71526  0.89709  0.34629  1.0000
  Fe  Fe178     1.0  0.73486  0.90332  0.42349  1.0000
  S   S353      1.0  0.71659  0.90545  0.45391  1.0000
  S   S354      1.0  0.76611  0.90132  0.37211  1.0000
  S   S355      1.0  0.76893  0.90570  0.42150  1.0000
  C   C2527     1.0  0.56924  0.88491  0.15825  1.0000
  H   H2020     1.0  0.57312  0.79340  0.16400  1.0000
  C   C2528     1.0  0.84569  0.77964  0.47077  1.0000
  H   H2021     1.0  0.68009  0.90108  0.40149  1.0000
  H   H2022     1.0  0.74096  0.96627  0.41208  1.0000
  C   C2529     1.0  0.74962  0.90205  0.47923  1.0000
  C   C2530     1.0  0.72836  0.90399  0.47793  1.0000
  H   H2023     1.0  0.55881  0.85459  0.15738  1.0000
  H   H2024     1.0  0.75917  0.90119  0.46545  1.0000
  H   H2025     1.0  0.85674  0.75162  0.34399  1.0000
  C   C2531     1.0  0.84650  0.81277  0.38448  1.0000
  C   C2532     1.0  0.84191  0.83235  0.37584  1.0000
  C   C2533     1.0  0.82418  0.84394  0.38218  1.0000
  C   C2534     1.0  0.81063  0.83606  0.39726  1.0000
  C   C2535     1.0  0.81503  0.81636  0.40565  1.0000
  C   C2536     1.0  0.83284  0.80484  0.39944  1.0000
  H   H2026     1.0  0.85226  0.83867  0.36421  1.0000
  H   H2027     1.0  0.82109  0.85901  0.37550  1.0000
  H   H2028     1.0  0.80461  0.80995  0.41715  1.0000
  H   H2029     1.0  0.83596  0.78980  0.40618  1.0000
  C   C2537     1.0  0.77655  0.96209  0.46003  1.0000
  C   C2538     1.0  0.50153  0.91390  0.24549  1.0000
  C   C2539     1.0  0.98171  0.76684  0.39409  1.0000
  C   C2540     1.0  0.51778  0.81482  0.17497  1.0000
  C   C2541     1.0  0.55437  0.81799  0.17669  1.0000
  H   H2030     1.0  0.68493  0.87641  0.37410  1.0000
  C   C2542     1.0  0.68937  0.77027  0.38196  1.0000
  C   C2543     1.0  0.65158  0.90203  0.31716  1.0000
  C   C2544     1.0  0.66906  0.89473  0.30629  1.0000
  C   C2545     1.0  0.68832  0.89361  0.31539  1.0000
  C   C2546     1.0  0.69050  0.89974  0.33551  1.0000
  C   C2547     1.0  0.67307  0.90742  0.34627  1.0000
  C   C2548     1.0  0.65377  0.90839  0.33721  1.0000
  H   H2031     1.0  0.66761  0.88936  0.29107  1.0000
  H   H2032     1.0  0.70159  0.88758  0.30687  1.0000
  H   H2033     1.0  0.67440  0.91237  0.36167  1.0000
  H   H2034     1.0  0.64038  0.91389  0.34590  1.0000
  C   C2549     1.0  0.52055  0.90550  0.25153  1.0000
  H   H2035     1.0  0.56742  0.82587  0.18153  1.0000
  C   C2550     1.0  0.78392  0.97401  0.33198  1.0000
  C   C2551     1.0  0.54612  0.86991  0.18397  1.0000
  H   H2036     1.0  0.51299  0.81222  0.07263  1.0000
  C   C2552     1.0  0.95719  0.75952  0.46959  1.0000
  C   C2553     1.0  0.68407  0.87091  0.38985  1.0000
  H   H2037     1.0  0.99595  0.83627  0.43076  1.0000
  H   H2038     1.0  0.75320  0.85774  0.33818  1.0000
  C   C2554     1.0  0.68376  0.80704  0.38240  1.0000
  C   C2555     1.0  0.60744  0.81943  0.15582  1.0000
  C   C2556     1.0  0.61207  0.80733  0.17323  1.0000
  C   C2557     1.0  0.61432  0.81637  0.19224  1.0000
  C   C2558     1.0  0.61195  0.83764  0.19430  1.0000
  C   C2559     1.0  0.60725  0.84973  0.17692  1.0000
  C   C2560     1.0  0.60511  0.84070  0.15788  1.0000
  H   H2039     1.0  0.61398  0.79099  0.17207  1.0000
  H   H2040     1.0  0.61799  0.80677  0.20547  1.0000
  H   H2041     1.0  0.60555  0.86608  0.17810  1.0000
  H   H2042     1.0  0.60172  0.85030  0.14458  1.0000
  H   H2043     1.0  0.51233  0.75216  0.99838  1.0000
  H   H2044     1.0  0.81218  0.87141  0.43577  1.0000
  C   C2561     1.0  0.90804  0.80814  0.45008  1.0000
  C   C2562     1.0  0.59375  0.77442  0.01622  1.0000
  H   H2045     1.0  0.58615  0.77923  0.03030  1.0000
  C   C2563     1.0  0.60284  0.98039  0.35674  1.0000
  H   H2046     1.0  0.65566  0.81749  0.39798  1.0000
  H   H2047     1.0  0.78038  0.94684  0.31547  1.0000
  H   H2048     1.0  0.94264  0.79239  0.27218  1.0000
  H   H2049     1.0  0.50825  0.97017  0.21965  1.0000
  C   C2564     1.0  0.56854  0.90301  0.16880  1.0000
  H   H2050     1.0  0.68491  0.85224  0.44663  1.0000
  C   C2565     1.0  0.68144  0.88491  0.40534  1.0000
  H   H2051     1.0  0.55597  0.91862  0.19514  1.0000
  C   C2566     1.0  0.55767  0.79947  0.16701  1.0000
  H   H2052     1.0  0.57679  0.84061  0.25047  1.0000
  H   H2053     1.0  0.64378  0.85253  0.30506  1.0000
  C   C2567     1.0  0.54110  0.78871  0.16118  1.0000
  C   C2568     1.0  0.52685  0.97346  0.25451  1.0000
  H   H2054     1.0  0.67995  0.88902  0.43780  1.0000
  H   H2055     1.0  0.87734  0.80044  0.26885  1.0000
  H   H2056     1.0  0.57757  0.91564  0.16324  1.0000
  C   C2569     1.0  0.68633  0.84999  0.39467  1.0000
  C   C2570     1.0  0.65767  0.85032  0.35456  1.0000
  C   C2571     1.0  0.74735  0.84761  0.35026  1.0000
  H   H2057     1.0  0.69702  0.82319  0.33125  1.0000
  C   C2572     1.0  0.71843  0.83316  0.36923  1.0000
  H   H2058     1.0  0.64489  0.78287  0.40810  1.0000
  S   S356      1.0  0.62895  0.75941  0.10015  1.0000
  C   C2573     1.0  0.55645  0.90469  0.18676  1.0000
  C   C2574     1.0  0.68144  0.87812  0.42579  1.0000
  H   H2059     1.0  0.55440  0.75165  0.00259  1.0000
  C   C2575     1.0  0.54542  0.88817  0.19442  1.0000
  C   C2576     1.0  0.50450  0.86051  0.19074  1.0000
  H   H2060     1.0  0.70948  0.79149  0.36689  1.0000
  C   C2577     1.0  0.64595  0.85499  0.33752  1.0000
  S   S357      1.0  0.58547  0.75101  0.12637  1.0000
  H   H2061     1.0  0.54376  0.77443  0.15357  1.0000
  H   H2062     1.0  0.70048  0.97164  0.34356  1.0000
  C   C2578     1.0  0.91290  0.82830  0.47939  1.0000
  C   C2579     1.0  0.65274  0.84847  0.31829  1.0000
  P   P85       1.0  0.53013  0.84970  0.19338  1.0000
  C   C2580     1.0  0.53438  0.82614  0.18019  1.0000
  C   C2581     1.0  0.53618  0.84329  0.21947  1.0000
  C   C2582     1.0  0.52136  0.83523  0.23322  1.0000
  C   C2583     1.0  0.52632  0.82986  0.25333  1.0000
  C   C2584     1.0  0.54623  0.83199  0.25964  1.0000
  C   C2585     1.0  0.56121  0.83936  0.24581  1.0000
  C   C2586     1.0  0.55622  0.84508  0.22583  1.0000
  C   C2587     1.0  0.89084  0.79059  0.27120  1.0000
  H   H2063     1.0  0.52265  0.95799  0.25220  1.0000
  C   C2588     1.0  0.62881  0.99360  0.28991  1.0000
  H   H2064     1.0  0.68167  0.98095  0.31233  1.0000
  H   H2065     1.0  0.50834  0.78775  0.16104  1.0000
  H   H2066     1.0  0.55011  0.82784  0.27520  1.0000
  C   C2589     1.0  0.51638  0.84522  0.11723  1.0000
  H   H2067     1.0  0.71608  0.85425  0.34313  1.0000
  C   C2590     1.0  0.55798  0.86843  0.16573  1.0000
  C   C2591     1.0  0.51325  0.74663  0.09602  1.0000
  H   H2068     1.0  0.89926  0.80465  0.43710  1.0000
  C   C2592     1.0  0.82614  0.77865  0.48014  1.0000
  C   C2593     1.0  0.66531  0.80441  0.39368  1.0000
  C   C2594     1.0  0.81138  0.79428  0.47595  1.0000
  C   C2595     1.0  0.54544  0.81277  0.11572  1.0000
  H   H2069     1.0  0.60110  0.97995  0.30147  1.0000
  C   C2596     1.0  0.81472  0.86753  0.45173  1.0000
  H   H2070     1.0  0.93056  0.78424  0.44435  1.0000
  C   C2597     1.0  0.51329  0.83969  0.01769  1.0000
  C   C2598     1.0  0.52501  0.80954  0.11191  1.0000
  H   H2071     1.0  0.67941  0.98313  0.47297  1.0000
  H   H2072     1.0  0.58785  0.97685  0.36321  1.0000
  C   C2599     1.0  0.67117  0.83705  0.31611  1.0000
  H   H2073     1.0  0.70522  0.96011  0.45559  1.0000
  C   C2600     1.0  0.72412  0.95656  0.48161  1.0000
  C   C2601     1.0  0.83523  0.81035  0.45177  1.0000
  H   H2074     1.0  0.67635  0.83196  0.30118  1.0000
  C   C2602     1.0  0.98348  0.75262  0.33410  1.0000
  C   C2603     1.0  0.53687  0.84840  0.12087  1.0000
  Fe  Fe179     1.0  0.61040  0.75995  0.07177  1.0000
  H   H2075     1.0  0.78974  0.75716  0.46768  1.0000
  C   C2604     1.0  0.88877  0.76986  0.27605  1.0000
  C   C2605     1.0  0.91025  0.79869  0.26976  1.0000
  C   C2606     1.0  0.92763  0.78603  0.27306  1.0000
  H   H2076     1.0  0.97616  0.75891  0.34775  1.0000
  H   H2077     1.0  0.77716  0.83925  0.36164  1.0000
  H   H2078     1.0  0.78279  0.87060  0.46070  1.0000
  C   C2607     1.0  0.67654  0.83940  0.35240  1.0000
  C   C2608     1.0  0.64103  0.99195  0.20631  1.0000
  C   C2609     1.0  0.85011  0.79516  0.45633  1.0000
  H   H2079     1.0  0.57883  0.88352  0.14446  1.0000
  C   C2610     1.0  0.68291  0.83230  0.33314  1.0000
  H   H2080     1.0  0.61269  0.94886  0.35352  1.0000
  C   C2611     1.0  0.69558  0.78984  0.37625  1.0000
  H   H2081     1.0  0.64704  0.95689  0.33903  1.0000
  H   H2082     1.0  0.85327  0.85504  0.48366  1.0000
  H   H2083     1.0  0.95997  0.76451  0.31449  1.0000
  H   H2084     1.0  0.50862  0.79551  0.04038  1.0000
  C   C2612     1.0  0.83455  0.86323  0.45826  1.0000
  C   C2613     1.0  0.76745  0.97974  0.39759  1.0000
  H   H2085     1.0  0.50714  0.95683  0.28689  1.0000
  H   H2086     1.0  0.88735  0.83260  0.45967  1.0000
  H   H2087     1.0  0.91179  0.81482  0.26629  1.0000
  H   H2088     1.0  0.78020  0.93463  0.47875  1.0000
  C   C2614     1.0  0.61929  0.98972  0.23691  1.0000
  H   H2089     1.0  0.93918  0.75577  0.28058  1.0000
  C   C2615     1.0  0.51168  0.98903  0.25723  1.0000
  C   C2616     1.0  0.69270  0.97729  0.48099  1.0000
  C   C2617     1.0  0.93101  0.81696  0.48334  1.0000
  H   H2090     1.0  0.50349  0.86321  0.27751  1.0000
  H   H2091     1.0  0.50082  0.92824  0.23683  1.0000
  H   H2092     1.0  0.55669  0.80015  0.11552  1.0000
  H   H2093     1.0  0.80437  0.82179  0.45797  1.0000
  H   H2094     1.0  0.76364  0.81747  0.39016  1.0000
  C   C2618     1.0  0.51748  0.83311  0.99786  1.0000
  H   H2095     1.0  0.50140  0.87149  0.22154  1.0000
  C   C2619     1.0  0.76081  0.83726  0.36346  1.0000
  H   H2096     1.0  0.84739  0.86397  0.44732  1.0000
  H   H2097     1.0  0.66995  0.75411  0.15746  1.0000
  H   H2098     1.0  0.51471  0.82412  0.26403  1.0000
  Fe  Fe180     1.0  0.56997  0.75328  0.09612  1.0000
  H   H2099     1.0  0.77552  0.95410  0.44594  1.0000
  C   C2620     1.0  0.69368  0.98699  0.25780  1.0000
  C   C2621     1.0  0.51041  0.82587  0.11212  1.0000
  H   H2100     1.0  0.79326  0.96630  0.34349  1.0000
  C   C2622     1.0  0.50290  0.87729  0.26842  1.0000
  S   S358      1.0  0.53686  0.75561  0.08583  1.0000
  S   S359      1.0  0.62579  0.75922  0.03991  1.0000
  H   H2101     1.0  0.50534  0.85786  0.11858  1.0000
  H   H2102     1.0  0.53792  0.74928  0.03742  1.0000
  C   C2623     1.0  0.76139  0.75091  0.48390  1.0000
  C   C2624     1.0  0.76382  0.97278  0.30197  1.0000
  H   H2103     1.0  0.87360  0.76386  0.27732  1.0000
  C   C2625     1.0  0.81590  0.81001  0.46167  1.0000
  C   C2626     1.0  0.90138  0.82386  0.46278  1.0000
  H   H2104     1.0  0.66634  0.75258  0.39787  1.0000
  C   C2627     1.0  0.70720  0.96440  0.47117  1.0000
  H   H2105     1.0  0.64925  0.98477  0.19366  1.0000
  H   H2106     1.0  0.96524  0.76472  0.43739  1.0000
  H   H2107     1.0  0.55912  0.96544  0.25255  1.0000
  C   C2628     1.0  0.55141  0.83219  0.12007  1.0000
  H   H2108     1.0  0.72427  0.98177  0.26885  1.0000
  C   C2629     1.0  0.77528  0.98337  0.45965  1.0000
  C   C2630     1.0  0.92560  0.76528  0.27789  1.0000
  H   H2109     1.0  0.56996  0.78708  0.99703  1.0000
  C   C2631     1.0  0.52115  0.79632  0.16527  1.0000
  H   H2110     1.0  0.75787  0.96413  0.28999  1.0000
  C   C2632     1.0  0.98156  0.79496  0.46012  1.0000
  H   H2111     1.0  0.99437  0.74834  0.24574  1.0000
  C   C2633     1.0  0.68601  0.90765  0.24903  1.0000
  C   C2634     1.0  0.68358  0.91141  0.22814  1.0000
  C   C2635     1.0  0.68082  0.93140  0.22045  1.0000
  C   C2636     1.0  0.68090  0.94768  0.23354  1.0000
  C   C2637     1.0  0.68381  0.94410  0.25450  1.0000
  C   C2638     1.0  0.68574  0.92390  0.26219  1.0000
  P   P86       1.0  0.68330  0.96513  0.27155  1.0000
  C   C2639     1.0  0.69852  0.95926  0.29363  1.0000
  P   P87       1.0  0.69120  0.83230  0.37451  1.0000
  H   H2112     1.0  0.50597  0.83315  0.22848  1.0000
  P   P88       1.0  0.96062  0.78563  0.47612  1.0000
  C   C2640     1.0  0.63621  0.96916  0.34324  1.0000
  H   H2113     1.0  0.72636  0.81415  0.39571  1.0000
  C   C2641     1.0  0.67119  0.76776  0.39356  1.0000
  C   C2642     1.0  0.69382  0.96934  0.31180  1.0000
  C   C2643     1.0  0.70458  0.96426  0.32940  1.0000
  C   C2644     1.0  0.72028  0.94915  0.32893  1.0000
  C   C2645     1.0  0.72555  0.93951  0.31073  1.0000
  C   C2646     1.0  0.71503  0.94482  0.29301  1.0000
  C   C2647     1.0  0.65714  0.97002  0.28074  1.0000
  C   C2648     1.0  0.64499  0.95369  0.28703  1.0000
  C   C2649     1.0  0.62497  0.95735  0.29475  1.0000
  H   H2114     1.0  0.50225  0.82002  0.17872  1.0000
  H   H2115     1.0  0.56813  0.85068  0.21536  1.0000
  C   C2650     1.0  0.65913  0.78482  0.39935  1.0000
  H   H2116     1.0  0.68739  0.89211  0.25512  1.0000
  H   H2117     1.0  0.68302  0.89880  0.21804  1.0000
  H   H2118     1.0  0.67784  0.93430  0.20444  1.0000
  H   H2119     1.0  0.67803  0.96291  0.22721  1.0000
  H   H2120     1.0  0.68682  0.92066  0.27838  1.0000
  C   C2651     1.0  0.74877  0.98022  0.40877  1.0000
  H   H2121     1.0  0.69858  0.75704  0.37722  1.0000
  C   C2652     1.0  0.62992  0.98005  0.22059  1.0000
  H   H2122     1.0  0.68956  0.82734  0.41938  1.0000
  C   C2653     1.0  0.92595  0.79659  0.45417  1.0000
  H   H2123     1.0  0.86501  0.79513  0.44849  1.0000
  C   C2654     1.0  0.90614  0.75707  0.27954  1.0000
  H   H2124     1.0  0.72820  0.94463  0.34272  1.0000
  H   H2125     1.0  0.73749  0.92754  0.31057  1.0000
  H   H2126     1.0  0.71954  0.93730  0.27905  1.0000
  H   H2127     1.0  0.65088  0.93809  0.28607  1.0000
  H   H2128     1.0  0.61575  0.94466  0.29971  1.0000
  C   C2655     1.0  0.75315  0.82492  0.37958  1.0000
  C   C2656     1.0  0.73204  0.82305  0.38262  1.0000
  H   H2129     1.0  0.65198  0.85536  0.36932  1.0000
  H   H2130     1.0  0.83860  0.82227  0.44038  1.0000
  H   H2131     1.0  0.96680  0.82427  0.45239  1.0000
  H   H2132     1.0  0.90781  0.84056  0.48920  1.0000
  C   C2657     1.0  0.77653  0.96301  0.31628  1.0000
  C   C2658     1.0  0.68420  0.85734  0.43075  1.0000
  C   C2659     1.0  0.83777  0.85799  0.47881  1.0000
  H   H2133     1.0  0.63795  0.75130  0.99858  1.0000
  C   C2660     1.0  0.61676  0.97726  0.29588  1.0000
  H   H2134     1.0  0.56731  0.83455  0.12301  1.0000
  C   C2661     1.0  0.61299  0.76428  0.01677  1.0000
  H   H2135     1.0  0.53577  0.88032  0.26748  1.0000
  C   C2662     1.0  0.52122  0.88697  0.26279  1.0000
  S   S360      1.0  0.89557  0.75501  0.46028  1.0000
  C   C2663     1.0  0.68675  0.84329  0.41526  1.0000
  H   H2136     1.0  0.93987  0.82090  0.49607  1.0000
  C   C2664     1.0  0.61683  0.96462  0.35139  1.0000
  H   H2137     1.0  0.63172  0.86401  0.33906  1.0000
  H   H2138     1.0  0.61070  0.98067  0.24810  1.0000
  C   C2665     1.0  0.72624  0.84556  0.35311  1.0000
  H   H2139     1.0  0.73510  0.94625  0.47407  1.0000
  H   H2140     1.0  0.65643  0.99253  0.33374  1.0000
  H   H2141     1.0  0.52066  0.79428  0.10872  1.0000
  H   H2142     1.0  0.85743  0.76813  0.47441  1.0000
  C   C2666     1.0  0.71620  0.90539  0.49611  1.0000
  C   C2667     1.0  0.54760  0.97767  0.25466  1.0000
  H   H2143     1.0  0.95951  0.76364  0.24048  1.0000
  H   H2144     1.0  0.52576  0.84338  0.02709  1.0000
  C   C2668     1.0  0.97442  0.75587  0.31531  1.0000
  C   C2669     1.0  0.64901  0.99002  0.28276  1.0000
  C   C2670     1.0  0.98042  0.81446  0.45059  1.0000
  C   C2671     1.0  0.98391  0.74776  0.29778  1.0000
  C   C2672     1.0  0.77918  0.95113  0.47850  1.0000
  C   C2673     1.0  0.80130  0.86195  0.48639  1.0000
  H   H2145     1.0  0.50357  0.85432  0.15868  1.0000
  C   C2674     1.0  0.82109  0.85669  0.49294  1.0000
  H   H2146     1.0  0.88571  0.75593  0.31928  1.0000
  H   H2147     1.0  0.97681  0.75019  0.28327  1.0000
  C   C2675     1.0  0.71433  0.99138  0.25944  1.0000
  C   C2676     1.0  0.77896  0.98277  0.49631  1.0000
  C   C2677     1.0  0.96034  0.75381  0.44921  1.0000
  C   C2678     1.0  0.62279  0.75845  0.99830  1.0000
  H   H2148     1.0  0.49844  0.96521  0.18461  1.0000
  H   H2149     1.0  0.69974  0.90709  0.49529  1.0000
  H   H2150     1.0  0.69359  0.74916  0.18605  1.0000
  C   C2679     1.0  0.64147  0.98946  0.34010  1.0000
  H   H2151     1.0  0.77335  0.99166  0.44518  1.0000
  H   H2152     1.0  0.66564  0.99592  0.24278  1.0000
  H   H2153     1.0  0.79636  0.79425  0.48346  1.0000
  C   C2680     1.0  0.58461  0.77882  0.99734  1.0000
  H   H2154     1.0  0.75272  0.75128  0.47016  1.0000
  C   C2681     1.0  0.75830  0.99348  0.30351  1.0000
  H   H2155     1.0  0.84475  0.81843  0.49389  1.0000
  C   C2682     1.0  0.77880  0.99480  0.33331  1.0000
  C   C2683     1.0  0.77669  0.99388  0.47775  1.0000
  C   C2684     1.0  0.99696  0.82138  0.43841  1.0000
  H   H2156     1.0  0.99757  0.79720  0.49664  1.0000
  C   C2685     1.0  0.96254  0.74744  0.23876  1.0000
  C   C2686     1.0  0.78030  0.96144  0.49663  1.0000
  H   H2157     1.0  0.56459  0.83536  0.76560  1.0000
  S   S361      1.0  0.58181  0.77805  0.95564  1.0000
  Fe  Fe181     1.0  0.59618  0.77048  0.87830  1.0000
  S   S362      1.0  0.59775  0.78905  0.84770  1.0000
  S   S363      1.0  0.56819  0.77109  0.89954  1.0000
  S   S364      1.0  0.61801  0.76588  0.90415  1.0000
  Fe  Fe182     1.0  0.89005  0.77065  0.60482  1.0000
  S   S365      1.0  0.87234  0.80184  0.60161  1.0000
  H   H2158     1.0  0.68521  0.86087  0.72545  1.0000
  C   C2687     1.0  0.51982  0.82367  0.88654  1.0000
  S   S366      1.0  0.91097  0.76605  0.57708  1.0000
  S   S367      1.0  0.91597  0.76359  0.62617  1.0000
  Fe  Fe183     1.0  0.76823  0.87714  0.61204  1.0000
  S   S368      1.0  0.73936  0.87509  0.59462  1.0000
  S   S369      1.0  0.78489  0.84676  0.62175  1.0000
  Fe  Fe184     1.0  0.76375  0.92436  0.61100  1.0000
  S   S370      1.0  0.73525  0.92495  0.59327  1.0000
  S   S371      1.0  0.77880  0.95347  0.61934  1.0000
  Fe  Fe185     1.0  0.72546  0.89945  0.61528  1.0000
  S   S372      1.0  0.69173  0.90065  0.62749  1.0000
  Fe  Fe186     1.0  0.75132  0.90078  0.57438  1.0000
  S   S373      1.0  0.75917  0.90160  0.54001  1.0000
  S   S374      1.0  0.75349  0.89994  0.63399  1.0000
  S   S375      1.0  0.78075  0.90164  0.59099  1.0000
  Fe  Fe187     1.0  0.59987  0.89517  0.78002  1.0000
  S   S376      1.0  0.60025  0.87699  0.75188  1.0000
  S   S377      1.0  0.60489  0.88117  0.81224  1.0000
  Fe  Fe188     1.0  0.58848  0.93521  0.75558  1.0000
  S   S378      1.0  0.58750  0.91892  0.72592  1.0000
  S   S379      1.0  0.57726  0.96862  0.75360  1.0000
  Fe  Fe189     1.0  0.57095  0.89487  0.74483  1.0000
  S   S380      1.0  0.54322  0.87644  0.73880  1.0000
  Fe  Fe190     1.0  0.61692  0.90282  0.73550  1.0000
  S   S381      1.0  0.64789  0.89925  0.71730  1.0000
  S   S382      1.0  0.57003  0.91210  0.77362  1.0000
  S   S383      1.0  0.61849  0.92011  0.76454  1.0000
  H   H2159     1.0  0.79316  0.82463  0.50587  1.0000
  P   P89       1.0  0.66115  0.97971  0.68224  1.0000
  C   C2688     1.0  0.67659  0.87246  0.75471  1.0000
  H   H2160     1.0  0.61174  0.97620  0.77944  1.0000
  H   H2161     1.0  0.70547  0.85251  0.64804  1.0000
  C   C2689     1.0  0.64659  0.85862  0.77184  1.0000
  C   C2690     1.0  0.51800  0.88746  0.73698  1.0000
  C   C2691     1.0  0.59750  0.81557  0.70223  1.0000
  H   H2162     1.0  0.52724  0.91701  0.72589  1.0000
  C   C2692     1.0  0.54002  0.83339  0.80371  1.0000
  C   C2693     1.0  0.67998  0.90114  0.65268  1.0000
  C   C2694     1.0  0.69124  0.89847  0.67037  1.0000
  C   C2695     1.0  0.68114  0.89807  0.68988  1.0000
  C   C2696     1.0  0.65966  0.90048  0.69213  1.0000
  C   C2697     1.0  0.64841  0.90346  0.67448  1.0000
  C   C2698     1.0  0.65850  0.90376  0.65495  1.0000
  H   H2163     1.0  0.70772  0.89638  0.66902  1.0000
  H   H2164     1.0  0.69007  0.89578  0.70335  1.0000
  H   H2165     1.0  0.63193  0.90534  0.67586  1.0000
  H   H2166     1.0  0.64956  0.90588  0.64147  1.0000
  C   C2699     1.0  0.74650  0.90256  0.51655  1.0000
  H   H2167     1.0  0.55226  0.88543  0.82568  1.0000
  C   C2700     1.0  0.72521  0.90467  0.51536  1.0000
  C   C2701     1.0  0.53699  0.85162  0.79209  1.0000
  H   H2168     1.0  0.71572  0.90576  0.52922  1.0000
  C   C2702     1.0  0.76944  0.97845  0.61213  1.0000
  H   H2169     1.0  0.55073  0.95842  0.71685  1.0000
  H   H2170     1.0  0.50303  0.78251  0.80124  1.0000
  C   C2703     1.0  0.78085  0.96901  0.55922  1.0000
  C   C2704     1.0  0.64210  0.96284  0.64998  1.0000
  C   C2705     1.0  0.84743  0.81357  0.60629  1.0000
  C   C2706     1.0  0.84382  0.83414  0.60006  1.0000
  C   C2707     1.0  0.82464  0.84436  0.60394  1.0000
  C   C2708     1.0  0.80883  0.83423  0.61452  1.0000
  C   C2709     1.0  0.81236  0.81357  0.62048  1.0000
  C   C2710     1.0  0.83140  0.80325  0.61624  1.0000
  H   H2171     1.0  0.85609  0.84238  0.59250  1.0000
  H   H2172     1.0  0.82232  0.86026  0.59937  1.0000
  H   H2173     1.0  0.80029  0.80552  0.62864  1.0000
  H   H2174     1.0  0.83374  0.78742  0.62102  1.0000
  C   C2711     1.0  0.57137  0.82005  0.76623  1.0000
  C   C2712     1.0  0.66900  0.77696  0.75076  1.0000
  H   H2175     1.0  0.50433  0.84884  0.90160  1.0000
  H   H2176     1.0  0.73918  0.94337  0.54773  1.0000
  C   C2713     1.0  0.75354  0.99256  0.54839  1.0000
  H   H2177     1.0  0.53405  0.98158  0.74114  1.0000
  C   C2714     1.0  0.59931  0.81492  0.83839  1.0000
  C   C2715     1.0  0.60179  0.83106  0.85124  1.0000
  C   C2716     1.0  0.60341  0.85115  0.84297  1.0000
  C   C2717     1.0  0.60226  0.85552  0.82181  1.0000
  C   C2718     1.0  0.59944  0.83943  0.80901  1.0000
  C   C2719     1.0  0.59814  0.81930  0.81723  1.0000
  H   H2178     1.0  0.60282  0.82802  0.86750  1.0000
  H   H2179     1.0  0.60568  0.86342  0.85304  1.0000
  H   H2180     1.0  0.59849  0.84248  0.79275  1.0000
  H   H2181     1.0  0.59633  0.80700  0.80709  1.0000
  H   H2182     1.0  0.58910  0.86675  0.70603  1.0000
  H   H2183     1.0  0.62781  0.94930  0.62513  1.0000
  H   H2184     1.0  0.89158  0.79252  0.53197  1.0000
  Fe  Fe191     1.0  0.58986  0.76369  0.92508  1.0000
  C   C2720     1.0  0.69228  0.83323  0.69553  1.0000
  C   C2721     1.0  0.87256  0.81664  0.54495  1.0000
  H   H2185     1.0  0.79814  0.88277  0.53516  1.0000
  C   C2722     1.0  0.84659  0.83218  0.52314  1.0000
  C   C2723     1.0  0.85622  0.83072  0.54191  1.0000
  P   P90       1.0  0.82529  0.85022  0.51955  1.0000
  C   C2724     1.0  0.50876  0.78073  0.98145  1.0000
  C   C2725     1.0  0.80338  0.83905  0.53250  1.0000
  C   C2726     1.0  0.79029  0.82724  0.52193  1.0000
  C   C2727     1.0  0.77326  0.81878  0.53206  1.0000
  C   C2728     1.0  0.76942  0.82175  0.55289  1.0000
  C   C2729     1.0  0.78270  0.83303  0.56361  1.0000
  C   C2730     1.0  0.79969  0.84154  0.55352  1.0000
  H   H2186     1.0  0.53900  0.75348  0.93743  1.0000
  H   H2187     1.0  0.50698  0.80978  0.72394  1.0000
  H   H2188     1.0  0.53737  0.98545  0.80060  1.0000
  C   C2731     1.0  0.59413  0.77231  0.97894  1.0000
  H   H2189     1.0  0.72829  0.99626  0.64865  1.0000
  C   C2732     1.0  0.83020  0.87418  0.53046  1.0000
  C   C2733     1.0  0.85027  0.88048  0.53199  1.0000
  C   C2734     1.0  0.85376  0.89917  0.54046  1.0000
  C   C2735     1.0  0.83723  0.91179  0.54710  1.0000
  C   C2736     1.0  0.81723  0.90582  0.54507  1.0000
  C   C2737     1.0  0.81373  0.88714  0.53669  1.0000
  H   H2190     1.0  0.87989  0.81554  0.55951  1.0000
  C   C2738     1.0  0.52769  0.75659  0.83941  1.0000
  H   H2191     1.0  0.85104  0.84038  0.55427  1.0000
  C   C2739     1.0  0.66164  0.95495  0.74912  1.0000
  H   H2192     1.0  0.53304  0.82332  0.89601  1.0000
  H   H2193     1.0  0.75614  0.81542  0.56076  1.0000
  H   H2194     1.0  0.77971  0.83537  0.57977  1.0000
  H   H2195     1.0  0.80977  0.85022  0.56217  1.0000
  C   C2740     1.0  0.72656  0.96141  0.50191  1.0000
  C   C2741     1.0  0.90587  0.83085  0.73260  1.0000
  C   C2742     1.0  0.58982  0.78088  0.76680  1.0000
  C   C2743     1.0  0.50112  0.87532  0.74159  1.0000
  C   C2744     1.0  0.51323  0.79159  0.96303  1.0000
  P   P91       1.0  0.50702  0.81865  0.96041  1.0000
  H   H2196     1.0  0.99380  0.75229  0.54190  1.0000
  H   H2197     1.0  0.83988  0.92620  0.55379  1.0000
  C   C2745     1.0  0.98554  0.79443  0.50805  1.0000
  C   C2746     1.0  0.71223  0.97456  0.51183  1.0000
  H   H2198     1.0  0.85355  0.75476  0.64357  1.0000
  C   C2747     1.0  0.61108  0.94404  0.65371  1.0000
  C   C2748     1.0  0.50203  0.81038  0.85864  1.0000
  C   C2749     1.0  0.96638  0.78796  0.50265  1.0000
  C   C2750     1.0  0.64153  0.96571  0.67111  1.0000
  H   H2199     1.0  0.53159  0.79885  0.86835  1.0000
  H   H2200     1.0  0.92989  0.84814  0.71788  1.0000
  C   C2751     1.0  0.86420  0.75921  0.65462  1.0000
  H   H2201     1.0  0.67788  0.75896  0.70314  1.0000
  C   C2752     1.0  0.50366  0.83798  0.88974  1.0000
  C   C2753     1.0  0.68644  0.95015  0.54633  1.0000
  C   C2754     1.0  0.51516  0.77842  0.81151  1.0000
  C   C2755     1.0  0.70862  0.94925  0.65202  1.0000
  C   C2756     1.0  0.69012  0.95397  0.66257  1.0000
  C   C2757     1.0  0.81910  0.78005  0.53382  1.0000
  C   C2758     1.0  0.88391  0.78529  0.66889  1.0000
  H   H2202     1.0  0.78827  0.86232  0.49715  1.0000
  H   H2203     1.0  0.93614  0.78022  0.51430  1.0000
  H   H2204     1.0  0.51204  0.85700  0.93596  1.0000
  C   C2759     1.0  0.51724  0.81246  0.77433  1.0000
  H   H2205     1.0  0.86892  0.75457  0.55479  1.0000
  H   H2206     1.0  0.59782  0.94123  0.68429  1.0000
  H   H2207     1.0  0.74245  0.96875  0.59866  1.0000
  H   H2208     1.0  0.65953  0.80752  0.75765  1.0000
  C   C2760     1.0  0.89810  0.81842  0.69331  1.0000
  S   S384      1.0  0.96748  0.76748  0.58889  1.0000
  H   H2209     1.0  0.59950  0.93540  0.64708  1.0000
  H   H2210     1.0  0.68374  0.99225  0.50871  1.0000
  H   H2211     1.0  0.50070  0.87811  0.80516  1.0000
  C   C2761     1.0  0.69522  0.98241  0.50122  1.0000
  C   C2762     1.0  0.91379  0.83178  0.69615  1.0000
  Fe  Fe192     1.0  0.93590  0.75663  0.59852  1.0000
  H   H2212     1.0  0.73942  0.95449  0.50980  1.0000
  H   H2213     1.0  0.71230  0.93376  0.64757  1.0000
  H   H2214     1.0  0.67746  0.92837  0.73698  1.0000
  C   C2763     1.0  0.58867  0.99108  0.76100  1.0000
  C   C2764     1.0  0.76849  0.95270  0.55631  1.0000
  H   H2215     1.0  0.90524  0.75663  0.53377  1.0000
  C   C2765     1.0  0.51533  0.76030  0.98400  1.0000
  H   H2216     1.0  0.67849  0.94194  0.70166  1.0000
  H   H2217     1.0  0.52401  0.76196  0.89580  1.0000
  H   H2218     1.0  0.88059  0.81264  0.74283  1.0000
  C   C2766     1.0  0.66333  0.79720  0.74551  1.0000
  C   C2767     1.0  0.54130  0.87027  0.80003  1.0000
  H   H2219     1.0  0.80517  0.78721  0.52817  1.0000
  C   C2768     1.0  0.66279  0.80380  0.72488  1.0000
  H   H2220     1.0  0.65432  0.96884  0.64020  1.0000
  C   C2769     1.0  0.66257  0.87199  0.77137  1.0000
  H   H2221     1.0  0.58110  0.82449  0.94495  1.0000
  H   H2222     1.0  0.64612  0.85053  0.67778  1.0000
  C   C2770     1.0  0.66805  0.78983  0.70966  1.0000
  C   C2771     1.0  0.61826  0.81400  0.70670  1.0000
  H   H2223     1.0  0.53214  0.85146  0.77650  1.0000
  C   C2772     1.0  0.98564  0.74664  0.68633  1.0000
  C   C2773     1.0  0.56598  0.83159  0.94291  1.0000
  H   H2224     1.0  0.66771  0.79456  0.69364  1.0000
  H   H2225     1.0  0.58950  0.80206  0.69903  1.0000
  H   H2226     1.0  0.62604  0.79915  0.70681  1.0000
  C   C2774     1.0  0.54612  0.76652  0.83822  1.0000
  H   H2227     1.0  0.86323  0.87103  0.52669  1.0000
  C   C2775     1.0  0.54911  0.78234  0.82369  1.0000
  C   C2776     1.0  0.59012  0.81640  0.75579  1.0000
  C   C2777     1.0  0.59948  0.79688  0.75625  1.0000
  H   H2228     1.0  0.73686  0.96067  0.63924  1.0000
  C   C2778     1.0  0.54635  0.83436  0.82386  1.0000
  H   H2229     1.0  0.55113  0.80878  0.96152  1.0000
  H   H2230     1.0  0.66944  0.77200  0.76672  1.0000
  C   C2779     1.0  0.52035  0.80861  0.75349  1.0000
  H   H2231     1.0  0.56369  0.78952  0.82266  1.0000
  H   H2232     1.0  0.59737  0.82886  0.74749  1.0000
  C   C2780     1.0  0.68528  0.97396  0.66859  1.0000
  H   H2233     1.0  0.76296  0.81001  0.52377  1.0000
  H   H2234     1.0  0.54910  0.82080  0.83329  1.0000
  C   C2781     1.0  0.69007  0.95029  0.58868  1.0000
  H   H2235     1.0  0.62575  0.86415  0.71364  1.0000
  C   C2782     1.0  0.65835  0.84636  0.73863  1.0000
  C   C2783     1.0  0.67457  0.85966  0.73843  1.0000
  H   H2236     1.0  0.89433  0.85159  0.64783  1.0000
  C   C2784     1.0  0.52376  0.78145  0.94700  1.0000
  H   H2237     1.0  0.53326  0.83166  0.99225  1.0000
  C   C2785     1.0  0.67376  0.76962  0.71497  1.0000
  C   C2786     1.0  0.78064  0.99546  0.61642  1.0000
  H   H2238     1.0  0.53509  0.80304  0.74743  1.0000
  C   C2787     1.0  0.88995  0.81788  0.72982  1.0000
  P   P92       1.0  0.53798  0.80926  0.79171  1.0000
  C   C2788     1.0  0.57096  0.78445  0.77717  1.0000
  H   H2239     1.0  0.56377  0.77179  0.78517  1.0000
  C   C2789     1.0  0.83010  0.76527  0.52242  1.0000
  H   H2240     1.0  0.69194  0.94991  0.60507  1.0000
  C   C2790     1.0  0.62702  0.95187  0.64136  1.0000
  C   C2791     1.0  0.67110  0.94357  0.73357  1.0000
  C   C2792     1.0  0.70466  0.83863  0.67843  1.0000
  H   H2241     1.0  0.57694  0.85650  0.92382  1.0000
  C   C2793     1.0  0.91773  0.83786  0.71576  1.0000
  C   C2794     1.0  0.74090  0.97622  0.54572  1.0000
  C   C2795     1.0  0.86910  0.80442  0.51102  1.0000
  C   C2796     1.0  0.90190  0.74712  0.52140  1.0000
  C   C2797     1.0  0.51444  0.90751  0.72960  1.0000
  C   C2798     1.0  0.59726  0.85201  0.70609  1.0000
  C   C2799     1.0  0.55031  0.85312  0.83187  1.0000
  C   C2800     1.0  0.56178  0.80419  0.77737  1.0000
  C   C2801     1.0  0.53359  0.78869  0.81040  1.0000
  C   C2802     1.0  0.66235  0.84679  0.67819  1.0000
  H   H2242     1.0  0.68868  0.88320  0.75410  1.0000
  H   H2243     1.0  0.63562  0.85843  0.78471  1.0000
  C   C2803     1.0  0.51230  0.76242  0.82596  1.0000
  C   C2804     1.0  0.87006  0.77938  0.65471  1.0000
  C   C2805     1.0  0.61799  0.85048  0.71056  1.0000
  H   H2244     1.0  0.55612  0.85365  0.84707  1.0000
  C   C2806     1.0  0.78395  0.74931  0.51928  1.0000
  C   C2807     1.0  0.62860  0.83145  0.71116  1.0000
  H   H2245     1.0  0.66626  0.92543  0.55261  1.0000
  H   H2246     1.0  0.79586  0.96625  0.56540  1.0000
  H   H2247     1.0  0.53272  0.94876  0.68629  1.0000
  C   C2808     1.0  0.88687  0.75024  0.68206  1.0000
  H   H2248     1.0  0.57082  0.83583  0.69891  1.0000
  C   C2809     1.0  0.54812  0.87103  0.81985  1.0000
  H   H2249     1.0  0.77990  0.99046  0.51049  1.0000
  C   C2810     1.0  0.84366  0.77600  0.56042  1.0000
  C   C2811     1.0  0.64442  0.84591  0.75553  1.0000
  H   H2250     1.0  0.54234  0.87279  0.91966  1.0000
  H   H2251     1.0  0.59704  0.76572  0.76716  1.0000
  H   H2252     1.0  0.69931  0.82605  0.70880  1.0000
  H   H2253     1.0  0.81727  0.79670  0.56164  1.0000
  C   C2812     1.0  0.69920  0.96406  0.55466  1.0000
  C   C2813     1.0  0.69912  0.98925  0.66332  1.0000
  C   C2814     1.0  0.52574  0.97783  0.72798  1.0000
  C   C2815     1.0  0.69588  0.84792  0.66117  1.0000
  H   H2254     1.0  0.94319  0.78614  0.55028  1.0000
  C   C2816     1.0  0.75169  0.74679  0.50292  1.0000
  P   P93       1.0  0.65522  0.82980  0.71766  1.0000
  C   C2817     1.0  0.89265  0.77045  0.68228  1.0000
  H   H2255     1.0  0.87386  0.79394  0.49920  1.0000
  C   C2818     1.0  0.67102  0.83736  0.69559  1.0000
  C   C2819     1.0  0.70105  0.96382  0.57593  1.0000
  H   H2256     1.0  0.63177  0.83587  0.75608  1.0000
  H   H2257     1.0  0.66385  0.88220  0.78379  1.0000
  H   H2258     1.0  0.71136  0.97377  0.58268  1.0000
  C   C2820     1.0  0.58697  0.83456  0.70207  1.0000
  P   P94       1.0  0.89258  0.81100  0.66803  1.0000
  H   H2259     1.0  0.90889  0.83563  0.74777  1.0000
  C   C2821     1.0  0.91545  0.81055  0.65161  1.0000
  C   C2822     1.0  0.93397  0.80229  0.65912  1.0000
  C   C2823     1.0  0.95142  0.80040  0.64613  1.0000
  C   C2824     1.0  0.95044  0.80648  0.62553  1.0000
  C   C2825     1.0  0.93203  0.81451  0.61790  1.0000
  C   C2826     1.0  0.91458  0.81649  0.63086  1.0000
  C   C2827     1.0  0.90138  0.75536  0.50127  1.0000
  C   C2828     1.0  0.65259  0.97412  0.74450  1.0000
  H   H2260     1.0  0.77405  0.93728  0.55989  1.0000
  C   C2829     1.0  0.82585  0.78538  0.55277  1.0000
  C   C2830     1.0  0.75115  0.98166  0.60201  1.0000
  C   C2831     1.0  0.87299  0.82939  0.65970  1.0000
  C   C2832     1.0  0.87841  0.84812  0.65043  1.0000
  C   C2833     1.0  0.86324  0.86253  0.64439  1.0000
  C   C2834     1.0  0.84258  0.85854  0.64794  1.0000
  C   C2835     1.0  0.83707  0.84023  0.65772  1.0000
  C   C2836     1.0  0.85218  0.82580  0.66380  1.0000
  H   H2261     1.0  0.72110  0.83581  0.67857  1.0000
  H   H2262     1.0  0.80434  0.91556  0.55006  1.0000
  H   H2263     1.0  0.62092  0.75719  0.96548  1.0000
  H   H2264     1.0  0.93480  0.79683  0.67486  1.0000
  H   H2265     1.0  0.96560  0.79371  0.65184  1.0000
  H   H2266     1.0  0.96380  0.80443  0.61535  1.0000
  H   H2267     1.0  0.93108  0.81855  0.60178  1.0000
  H   H2268     1.0  0.90031  0.82198  0.62447  1.0000
  C   C2837     1.0  0.61014  0.94728  0.67467  1.0000
  H   H2269     1.0  0.86403  0.79028  0.64350  1.0000
  C   C2838     1.0  0.67474  0.85181  0.66101  1.0000
  H   H2270     1.0  0.61420  0.79417  0.74844  1.0000
  H   H2271     1.0  0.97687  0.79803  0.55928  1.0000
  C   C2839     1.0  0.72241  0.96444  0.64720  1.0000
  H   H2272     1.0  0.86745  0.87678  0.63687  1.0000
  H   H2273     1.0  0.83077  0.86951  0.64295  1.0000
  H   H2274     1.0  0.82100  0.83715  0.66028  1.0000
  H   H2275     1.0  0.84753  0.81185  0.67159  1.0000
  C   C2840     1.0  0.50576  0.98579  0.72481  1.0000
  H   H2276     1.0  0.86926  0.90389  0.54189  1.0000
  C   C2841     1.0  0.65282  0.98186  0.72434  1.0000
  C   C2842     1.0  0.67570  0.93642  0.55912  1.0000
  C   C2843     1.0  0.99068  0.76499  0.60195  1.0000
  H   H2277     1.0  0.50987  0.97847  0.77761  1.0000
  H   H2278     1.0  0.92287  0.83764  0.68322  1.0000
  C   C2844     1.0  0.54886  0.82254  0.95214  1.0000
  H   H2279     1.0  0.97713  0.75957  0.63204  1.0000
  H   H2280     1.0  0.52752  0.78948  0.93268  1.0000
  H   H2281     1.0  0.84877  0.77990  0.57520  1.0000
  C   C2845     1.0  0.87911  0.80361  0.52945  1.0000
  C   C2846     1.0  0.52912  0.83113  0.94922  1.0000
  C   C2847     1.0  0.95492  0.78853  0.53839  1.0000
  C   C2848     1.0  0.54410  0.85867  0.92864  1.0000
  C   C2849     1.0  0.56361  0.84958  0.93103  1.0000
  H   H2282     1.0  0.67871  0.74753  0.73963  1.0000
  C   C2850     1.0  0.66261  0.97066  0.70860  1.0000
  H   H2283     1.0  0.53967  0.88409  0.79057  1.0000
  H   H2284     1.0  0.64496  0.98284  0.75648  1.0000
  C   C2851     1.0  0.88597  0.81179  0.71023  1.0000
  C   C2852     1.0  0.74863  0.95625  0.54954  1.0000
  H   H2285     1.0  0.87337  0.80200  0.70828  1.0000
  H   H2286     1.0  0.66806  0.85935  0.64771  1.0000
  C   C2853     1.0  0.53032  0.76103  0.94963  1.0000
  C   C2854     1.0  0.62526  0.95812  0.68336  1.0000
  C   C2855     1.0  0.67423  0.76318  0.73552  1.0000
  C   C2856     1.0  0.67755  0.93646  0.58028  1.0000
  H   H2287     1.0  0.78206  0.95286  0.51097  1.0000
  H   H2288     1.0  0.67955  0.94200  0.66596  1.0000
  C   C2857     1.0  0.60525  0.99068  0.77385  1.0000
  H   H2289     1.0  0.50373  0.85980  0.74726  1.0000
  C   C2858     1.0  0.61324  0.76197  0.97953  1.0000
  H   H2290     1.0  0.90419  0.77435  0.69262  1.0000
  C   C2859     1.0  0.97395  0.79515  0.54353  1.0000
  H   H2291     1.0  0.62424  0.96034  0.69967  1.0000
  C   C2860     1.0  0.52692  0.84957  0.93781  1.0000
  H   H2292     1.0  0.66089  0.94871  0.76466  1.0000
  P   P95       1.0  0.82076  0.75806  0.49831  1.0000
  H   H2293     1.0  0.68512  0.94942  0.53000  1.0000
  C   C2861     1.0  0.98926  0.79798  0.52840  1.0000
  C   C2862     1.0  0.95112  0.78493  0.51805  1.0000
  C   C2863     1.0  0.71761  0.98446  0.65267  1.0000
  C   C2864     1.0  0.51901  0.80989  0.87095  1.0000
  H   H2294     1.0  0.66972  0.92546  0.59020  1.0000
  C   C2865     1.0  0.85501  0.76171  0.54891  1.0000
  C   C2866     1.0  0.53540  0.96462  0.71407  1.0000
  H   H2295     1.0  0.55825  0.76184  0.84843  1.0000
  P   P96       1.0  0.71472  0.98059  0.53826  1.0000
  H   H2296     1.0  0.98329  0.76220  0.69102  1.0000
  C   C2867     1.0  0.52529  0.95927  0.69685  1.0000
  C   C2868     1.0  0.67164  0.95137  0.71342  1.0000
  C   C2869     1.0  0.85270  0.81844  0.50798  1.0000
  C   C2870     1.0  0.77343  0.98893  0.55512  1.0000
  C   C2871     1.0  0.99122  0.76169  0.62315  1.0000
  C   C2872     1.0  0.50555  0.96734  0.69341  1.0000
  C   C2873     1.0  0.51119  0.75220  0.89560  1.0000
  C   C2874     1.0  0.50441  0.81239  0.74008  1.0000
  H   H2297     1.0  0.90446  0.77122  0.49824  1.0000
  C   C2875     1.0  0.50145  0.82821  0.98560  1.0000
  H   H2298     1.0  0.50063  0.78803  0.99404  1.0000
  C   C2876     1.0  0.84845  0.75660  0.52981  1.0000
  C   C2877     1.0  0.75860  0.90137  0.49839  1.0000
  C   C2878     1.0  0.51624  0.99342  0.77696  1.0000
  H   H2299     1.0  0.77508  0.89993  0.49915  1.0000
  H   H2300     1.0  0.94765  0.74881  0.50008  1.0000
  C   C2879     1.0  0.79367  0.75400  0.50029  1.0000
  C   C2880     1.0  0.52642  0.75058  0.96824  1.0000
  H   H2301     1.0  0.79475  0.99318  0.62439  1.0000
  H   H2302     1.0  0.50181  0.79975  0.84652  1.0000
  H   H2303     1.0  0.79252  0.74802  0.53308  1.0000
  H   H2304     1.0  0.64479  0.99632  0.72113  1.0000
