data_image0
_chemical_formula_structural       FeS2FeS2FeSFeS3HFeS2HC3SHFeS2CHC3HPH4PFeS2C2HCHCH2FeHC2HCHC3HC6HCHC3H2C5HC6H4C6H2C6PC18H21C3PH4C7SCHCHC2HCHC2H4CH3CH3CHCH2CHCH4CH3C17H3C2H4C2H4C2HC2HC2H4CHSHSH3C2SC2HCHFeC2HC2HC5HCHC2H4CHCH2C3PHC2SHCHFeCHC4H4CHC6HCH4C7HCH2CSH2PFeS2FeS2FeS2FeSFeS3FeS2FeS2H4CHC2H4C5HC6H5CHC2HFeHC7H4PCHC2HCH4CHC2SCFeCH2CH3CH2CH2CSH2C4H2CHC5H2C7SH3PHCH2C3HC4H3FeH3C2H4SCPC5H2CSC3HC8PC9HC10H2CHC2H5C2H5C3HCHC2H2CH2C8HCH2CHCH5C2HC2H3CHC10H2C2HCPHCH10C4HPH2CH2CH2CHC3HSC4H3C4H2CHSC3H2FeS2FeS2FeSFeS3FeS2HCFeCHSC3HCSFeS2FeS2H2C5HCH2CHCHC3HC4H4PCHC7H4C6H4C4H2SCHC2PC16H7CH6C3HC4HCH9SCHC6HC2H2CHC3HCHC2HPC5HC13HCH5CH7CH3C6PC2SHC4HCHCHC2HCH7C2FeHC2H2C2HC3HCH2CHCH5CS2H5CH2C2H5C2HC2HCHFeCFeS2CFeS2FeS2FeSFeS3FeS2HCHCHCFeS2CHCH3PH3C2H3C6H4C4H2SCSCHC2HC6H4CH2C2H3C4PC4HC8HC3H2CH4CFeH7C3H2C2H2CHC8H2C6H5C3SHC7H3CH3CHPH3CHC3HC4HC3H2CH3C2HCHC5H2C3PC2HC5H2C2HCH2SH3C2H3C2HCH2C2H3C2HC3HCHC3FeHCHC2HC2HCH3CHPH3CHCH5CHCHCHC3HC2SCSH2C3FeCH2C4HC3H2CPHFeSHFeS2FeSFeS3FeS2FeS2FeSFeS3FeS3HC3FeS2C2H3C3HC2H3CHCH2C6H4C2H2C6H4C3HC5HCH4C2H2CH2C3PC18HC2H17C2H2CHPC4HCHC2HFeCSH4C3HC2HCH3CH2CH4CH2CH5C4H3C5H2CHC6PC8HCH2C7H2C2HC6HCH5CH5CHCH2CFeH2SC3SHCH3C2HC3H2PHCSHCFeS2FeS2FeS2FeS2FeSFeHS2FeS2FeS2FeSFeS3CHCH2C2H2C6H4CHCH2C7H4C6HCH2CH2CH2C5PC19H18C2HCHC4H2C2HCH4CHC2H2CH4C3SC3H3CH2C2HC2HCHC7PC9HC8H13CH7C2PC9HC4HCH2CHSHCH2CHCH2C2HCHC3HPHCHFeCH3C2H3CHC2H4CH2C2HC2HC2H3CH5C9SHC4H4C2HCHCHFeSH2CFeS2FeH2FeHFeS3FeS2FeS2FeSFeS3FeS2FeS2C5HC6H4C2HC4HC7H4C4HCH4SC3PH3CHCH2C3PCHC3HC12H2PHCH2CHCH8C5SH2C7HC2HCHC3HC3H5C2PH3C6PC18H20C3HC5FeC4H2CHCH2C2H4C2HC3PH3SHCH5CH2C2HCH2C2S2C3H3CHC2H3C2HCHC2H2C4HC5HC4HCH3CHC4HC4H2CH2C2HCHCHC2H3C2HCHCHCSCSFe2S2H2CHCHFeS3HCH2FeS2FeS2FeSFeS2CFeS2FeS2FeSFeS3CHC6HC6H4CHSH3C6H4C6H5CHC5H3C3H3C2H2C3SHCHCHC2HCH2CH2CHC3H3C7HC3H2C2H2C3HC9HC4H2C2H2SH6CH2CH2C3HC3HC2HPC7HPC3HC4H3CH4CH3CFeH3C3H3CHC2H2CH2CH2C3H3PHPH3C2HC6PC18H6CH3C5H4CSCHC3H2CH2CFeHC2HC3H4FeS2FeS2FeSFeS3FeS2FeS2CHCPCHFeSC4HCPC2HCH2CHC2HC4FeCHCHC7H4C6H4C3HCHCH2C3H2C3HC2HC8H4CH2C3HC2HCH2CHC2H4CH2CHPSH2SC2H2C2SHC4H2CFeCPC21H19CHPC11H10CHC3H3CHC4HC2H3CPH3CHCHC2HCHC2H4CHC2HCHC2SHC2HCH2C4HCHCHCSCHCH2CHC2HFeCHC2H2CH3CHCS2H5CFeS2FeS2FeSFeS3FeS2FeSH3C2HPHC4H2FeH2C2H3C6H4C3H2C3HC8H5CH4C2H5C3SHCPFeH2CH3PHC2HCPC3HC2HC3PH2C3HC3H4FeCHCSH2C2H2PHCHCHCH2C2HC9HC3H3CHC2HC3HC8HC4HCHC2HCH2CSH2C3HC4H4SHC3HCH3CHCH3CHC3H2C6H2CHC2H2CHC8HCSH4CSH3C2HC2FeHC5HCHC2H2CSCHCH2CHCHCHC2SPCH2C5HCFeS2FeS2FeSFeS3FeS2FeS2FeSCHCH2CH2C3H3C2H2CHC6H4C6H4C2H4C2H3C2HC3PC16HCHCH8CH9CH3C7H2C3H2FeH2C7PC6HC3HSHCH8C2HCH7C2PHC2HC5H2CH2C2H3CFeHC4HC2SFeH3C6SH3C2HC6HCH2CH2C3PC14H2C2H6CH11C2HCH2CHSHC3HFeCH2C2HFeC4S2HC3HCH2C2FeS2H2CHCHFeS2FeS2FeSFeS3FeS2CHC3HFeSC2H2CFeC2PH3CH4CHC6H4C3SHCHCH3C3H2C6H4C2H2C2HCH4C6PC7H2PC8H5C2HSHCH2SCH6CH3CH2C6HCHSH5C3H9CH2CHCH3PCH2C3H2C2H2CH2CH5PC4HCHC3HC7H3CH2C2H3CH6C14H3CH6C6PC3HC2H5C4HCH3C3HC5SC8SCHC5H2C2HCHCHC3SC
_chemical_formula_sum              "Fe128 S256 H1536 C1920 P64"
_cell_length_a       61.9417
_cell_length_b       62.0389
_cell_length_c       46.1178
_cell_angle_alpha    89.0576
_cell_angle_beta     89.2423
_cell_angle_gamma    89.4098

_space_group_name_H-M_alt    "P 1"
_space_group_IT_number       1

loop_
  _space_group_symop_operation_xyz
  'x, y, z'

loop_
  _atom_site_type_symbol
  _atom_site_label
  _atom_site_symmetry_multiplicity
  _atom_site_fract_x
  _atom_site_fract_y
  _atom_site_fract_z
  _atom_site_occupancy
  Fe  Fe1       1.0  0.08745  0.36963  0.21508  1.0000
  S   S1        1.0  0.07062  0.36138  0.25758  1.0000
  S   S2        1.0  0.09145  0.34066  0.18448  1.0000
  Fe  Fe2       1.0  0.09341  0.41610  0.23394  1.0000
  S   S3        1.0  0.07665  0.41119  0.27679  1.0000
  S   S4        1.0  0.11001  0.44813  0.22589  1.0000
  Fe  Fe3       1.0  0.09584  0.38053  0.28036  1.0000
  S   S5        1.0  0.10585  0.36920  0.32601  1.0000
  Fe  Fe4       1.0  0.05252  0.39252  0.25166  1.0000
  S   S6        1.0  0.01803  0.39377  0.26882  1.0000
  S   S7        1.0  0.11440  0.38624  0.23859  1.0000
  S   S8        1.0  0.06755  0.40001  0.20790  1.0000
  H   H1        1.0  0.09327  0.30214  0.15064  1.0000
  Fe  Fe5       1.0  0.19687  0.39008  0.44822  1.0000
  S   S9        1.0  0.23175  0.39746  0.45712  1.0000
  S   S10       1.0  0.18579  0.39847  0.40201  1.0000
  H   H2        1.0  0.14972  0.11434  0.16585  1.0000
  C   C1        1.0  0.03551  0.40312  0.33984  1.0000
  C   C2        1.0  0.17521  0.10193  0.00752  1.0000
  C   C3        1.0  0.99402  0.28652  0.12328  1.0000
  S   S11       1.0  0.26299  0.34480  0.47653  1.0000
  H   H3        1.0  0.29801  0.17357  0.04394  1.0000
  Fe  Fe6       1.0  0.27529  0.11395  0.01451  1.0000
  S   S12       1.0  0.24260  0.09813  0.01408  1.0000
  S   S13       1.0  0.29721  0.12473  0.05138  1.0000
  C   C4        1.0  0.28925  0.03861  0.09885  1.0000
  H   H4        1.0  0.24627  0.46022  0.40063  1.0000
  C   C5        1.0  0.05528  0.39899  0.35309  1.0000
  C   C6        1.0  0.00162  0.48727  0.25581  1.0000
  C   C7        1.0  0.05875  0.48585  0.32861  1.0000
  H   H5        1.0  0.02539  0.38982  0.33371  1.0000
  P   P1        1.0  0.02029  0.29900  0.12155  1.0000
  H   H6        1.0  0.28755  0.07847  0.13924  1.0000
  H   H7        1.0  0.09757  0.29530  0.09784  1.0000
  H   H8        1.0  0.28476  0.02651  0.22262  1.0000
  H   H9        1.0  0.03798  0.43904  0.27907  1.0000
  P   P2        1.0  0.25039  0.27780  0.40373  1.0000
  Fe  Fe7       1.0  0.09676  0.29534  0.01793  1.0000
  S   S14       1.0  0.10097  0.32476  0.04726  1.0000
  S   S15       1.0  0.09287  0.26041  0.03081  1.0000
  C   C8        1.0  0.01096  0.48707  0.28325  1.0000
  C   C9        1.0  0.01132  0.33841  0.14735  1.0000
  H   H10       1.0  0.01042  0.31249  0.01618  1.0000
  C   C10       1.0  0.14053  0.07548  0.11641  1.0000
  H   H11       1.0  0.20544  0.10398  0.11389  1.0000
  C   C11       1.0  0.28369  0.04243  0.04714  1.0000
  H   H12       1.0  0.27324  0.99483  0.11610  1.0000
  H   H13       1.0  0.13103  0.07939  0.16115  1.0000
  Fe  Fe8       1.0  0.06552  0.26096  0.99853  1.0000
  H   H14       1.0  0.24662  0.15183  0.04667  1.0000
  C   C12       1.0  0.19493  0.18353  0.99685  1.0000
  C   C13       1.0  0.16178  0.11473  0.12179  1.0000
  H   H15       1.0  0.07338  0.45023  0.35818  1.0000
  C   C14       1.0  0.21372  0.45132  0.39072  1.0000
  H   H16       1.0  0.23777  0.31420  0.44216  1.0000
  C   C15       1.0  0.02921  0.42431  0.33321  1.0000
  C   C16       1.0  0.13988  0.08622  0.14282  1.0000
  C   C17       1.0  0.06859  0.41609  0.36013  1.0000
  H   H17       1.0  0.00325  0.36867  0.05079  1.0000
  C   C18       1.0  0.01269  0.35378  0.16910  1.0000
  C   C19       1.0  0.06247  0.43735  0.35322  1.0000
  C   C20       1.0  0.22813  0.48702  0.38279  1.0000
  C   C21       1.0  0.99256  0.22830  0.01225  1.0000
  C   C22       1.0  0.30419  0.11368  0.08607  1.0000
  C   C23       1.0  0.00483  0.46985  0.23736  1.0000
  H   H18       1.0  0.25141  0.05087  0.03415  1.0000
  C   C24       1.0  0.25383  0.04817  0.08066  1.0000
  H   H19       1.0  0.11874  0.45384  0.28946  1.0000
  C   C25       1.0  0.21291  0.47527  0.46908  1.0000
  C   C26       1.0  0.09450  0.47217  0.22498  1.0000
  C   C27       1.0  0.07197  0.47164  0.22461  1.0000
  H   H20       1.0  0.29961  0.00332  0.32844  1.0000
  H   H21       1.0  0.06381  0.45632  0.22446  1.0000
  C   C28       1.0  0.15044  0.10588  0.14547  1.0000
  C   C29       1.0  0.29202  0.09760  0.10003  1.0000
  C   C30       1.0  0.18245  0.20254  0.00177  1.0000
  C   C31       1.0  0.14053  0.13551  0.04129  1.0000
  C   C32       1.0  0.03453  0.33304  0.03378  1.0000
  H   H22       1.0  0.24393  0.20440  0.00293  1.0000
  C   C33       1.0  0.12824  0.37728  0.34686  1.0000
  C   C34       1.0  0.13047  0.36934  0.37546  1.0000
  C   C35       1.0  0.14793  0.37561  0.39273  1.0000
  C   C36       1.0  0.16337  0.38990  0.38152  1.0000
  C   C37       1.0  0.16113  0.39776  0.35289  1.0000
  C   C38       1.0  0.14371  0.39143  0.33567  1.0000
  H   H23       1.0  0.11861  0.35830  0.38433  1.0000
  H   H24       1.0  0.14944  0.36937  0.41466  1.0000
  H   H25       1.0  0.17289  0.40892  0.34403  1.0000
  H   H26       1.0  0.14187  0.39782  0.31392  1.0000
  C   C39       1.0  0.09338  0.33680  0.14612  1.0000
  C   C40       1.0  0.09466  0.35399  0.12612  1.0000
  C   C41       1.0  0.09698  0.34998  0.09610  1.0000
  C   C42       1.0  0.09783  0.32879  0.08549  1.0000
  C   C43       1.0  0.09644  0.31163  0.10549  1.0000
  C   C44       1.0  0.09417  0.31562  0.13550  1.0000
  H   H27       1.0  0.09416  0.37037  0.13380  1.0000
  H   H28       1.0  0.09819  0.36343  0.08097  1.0000
  C   C45       1.0  0.16478  0.42246  0.25279  1.0000
  C   C46       1.0  0.16209  0.42519  0.22292  1.0000
  C   C47       1.0  0.16622  0.40800  0.20441  1.0000
  C   C48       1.0  0.17307  0.38807  0.21574  1.0000
  C   C49       1.0  0.17609  0.38525  0.24571  1.0000
  C   C50       1.0  0.17170  0.40257  0.26417  1.0000
  P   P3        1.0  0.18254  0.35871  0.26002  1.0000
  C   C51       1.0  0.19077  0.35879  0.29751  1.0000
  C   C52       1.0  0.15851  0.34316  0.25451  1.0000
  C   C53       1.0  0.14167  0.34341  0.27514  1.0000
  C   C54       1.0  0.12254  0.33238  0.27016  1.0000
  C   C55       1.0  0.11979  0.32164  0.24413  1.0000
  C   C56       1.0  0.13625  0.32177  0.22313  1.0000
  C   C57       1.0  0.15554  0.33250  0.22823  1.0000
  C   C58       1.0  0.18407  0.34248  0.31704  1.0000
  C   C59       1.0  0.19027  0.34287  0.34607  1.0000
  C   C60       1.0  0.20366  0.35917  0.35565  1.0000
  C   C61       1.0  0.21113  0.37495  0.33615  1.0000
  C   C62       1.0  0.20496  0.37462  0.30709  1.0000
  C   C63       1.0  0.20520  0.34728  0.24054  1.0000
  C   C64       1.0  0.22022  0.36062  0.22617  1.0000
  C   C65       1.0  0.23792  0.35156  0.21147  1.0000
  C   C66       1.0  0.24084  0.32918  0.21129  1.0000
  C   C67       1.0  0.22614  0.31584  0.22598  1.0000
  C   C68       1.0  0.20844  0.32485  0.24072  1.0000
  H   H29       1.0  0.16083  0.43562  0.26715  1.0000
  H   H30       1.0  0.15615  0.44044  0.21420  1.0000
  H   H31       1.0  0.16342  0.40997  0.18137  1.0000
  H   H32       1.0  0.17545  0.37471  0.20116  1.0000
  H   H33       1.0  0.17312  0.40071  0.28735  1.0000
  H   H34       1.0  0.14304  0.35257  0.29478  1.0000
  H   H35       1.0  0.10951  0.33284  0.28609  1.0000
  H   H36       1.0  0.10458  0.31393  0.23970  1.0000
  H   H37       1.0  0.13360  0.31427  0.20241  1.0000
  H   H38       1.0  0.16776  0.33303  0.21125  1.0000
  H   H39       1.0  0.17389  0.32954  0.31010  1.0000
  H   H40       1.0  0.18436  0.33079  0.36135  1.0000
  H   H41       1.0  0.20804  0.35977  0.37833  1.0000
  H   H42       1.0  0.22124  0.38774  0.34388  1.0000
  H   H43       1.0  0.21092  0.38696  0.29225  1.0000
  H   H44       1.0  0.21835  0.37799  0.22634  1.0000
  H   H45       1.0  0.24939  0.36191  0.20021  1.0000
  H   H46       1.0  0.25453  0.32219  0.19982  1.0000
  H   H47       1.0  0.22845  0.29850  0.22593  1.0000
  H   H48       1.0  0.19722  0.31434  0.25216  1.0000
  H   H49       1.0  0.24075  0.21878  0.33405  1.0000
  C   C69       1.0  0.29818  0.31692  0.46850  1.0000
  C   C70       1.0  0.16668  0.15987  0.06105  1.0000
  C   C71       1.0  0.19362  0.45841  0.38064  1.0000
  P   P4        1.0  0.03521  0.46888  0.32851  1.0000
  H   H50       1.0  0.02394  0.26477  0.16526  1.0000
  H   H51       1.0  0.23940  0.33308  0.32605  1.0000
  H   H52       1.0  0.27824  0.35194  0.39776  1.0000
  H   H53       1.0  0.02065  0.43907  0.23171  1.0000
  C   C72       1.0  0.16054  0.13878  0.05442  1.0000
  C   C73       1.0  0.14637  0.46939  0.34923  1.0000
  C   C74       1.0  0.13934  0.45316  0.36864  1.0000
  C   C75       1.0  0.27714  0.26646  0.40880  1.0000
  C   C76       1.0  0.11792  0.43750  0.33098  1.0000
  C   C77       1.0  0.24689  0.32927  0.34664  1.0000
  C   C78       1.0  0.12527  0.43728  0.35951  1.0000
  S   S16       1.0  0.18477  0.40935  0.48592  1.0000
  C   C79       1.0  0.19047  0.48005  0.37200  1.0000
  H   H54       1.0  0.07962  0.22906  0.13611  1.0000
  C   C80       1.0  0.29737  0.09050  0.12836  1.0000
  H   H55       1.0  0.26967  0.24933  0.44906  1.0000
  C   C81       1.0  0.29750  0.03783  0.07036  1.0000
  C   C82       1.0  0.28160  0.25253  0.43231  1.0000
  H   H56       1.0  0.01411  0.42705  0.32224  1.0000
  C   C83       1.0  0.07173  0.48796  0.30361  1.0000
  H   H57       1.0  0.23703  0.05232  0.08456  1.0000
  C   C84       1.0  0.24383  0.30902  0.35978  1.0000
  C   C85       1.0  0.12733  0.15310  0.03372  1.0000
  H   H58       1.0  0.20862  0.46077  0.45786  1.0000
  H   H59       1.0  0.02698  0.36179  0.20992  1.0000
  H   H60       1.0  0.12068  0.42432  0.37430  1.0000
  H   H61       1.0  0.10746  0.42481  0.32370  1.0000
  C   C86       1.0  0.04551  0.33889  0.05864  1.0000
  H   H62       1.0  0.00376  0.36882  0.16734  1.0000
  H   H63       1.0  0.21584  0.43474  0.39807  1.0000
  H   H64       1.0  0.30507  0.03223  0.17657  1.0000
  C   C87       1.0  0.16289  0.10382  0.09538  1.0000
  H   H65       1.0  0.04956  0.23432  0.17154  1.0000
  H   H66       1.0  0.15832  0.19370  0.05813  1.0000
  H   H67       1.0  0.26239  0.24184  0.36512  1.0000
  C   C88       1.0  0.13378  0.17404  0.03982  1.0000
  H   H68       1.0  0.18079  0.44682  0.38006  1.0000
  C   C89       1.0  0.04276  0.44163  0.33936  1.0000
  H   H69       1.0  0.27820  0.09104  0.08929  1.0000
  H   H70       1.0  0.18298  0.25262  0.36018  1.0000
  C   C90       1.0  0.00111  0.46613  0.36889  1.0000
  H   H71       1.0  0.13209  0.06038  0.11424  1.0000
  C   C91       1.0  0.25339  0.30406  0.38659  1.0000
  H   H72       1.0  0.26333  0.13811  0.09193  1.0000
  H   H73       1.0  0.16966  0.13013  0.12400  1.0000
  H   H74       1.0  0.20347  0.04712  0.02435  1.0000
  H   H75       1.0  0.26138  0.18996  0.04691  1.0000
  C   C92       1.0  0.31379  0.26071  0.39058  1.0000
  H   H76       1.0  0.30517  0.23170  0.45270  1.0000
  H   H77       1.0  0.31754  0.17242  0.99680  1.0000
  H   H78       1.0  0.00277  0.44880  0.36760  1.0000
  C   C93       1.0  0.03707  0.26271  0.14977  1.0000
  C   C94       1.0  0.02275  0.31878  0.14971  1.0000
  C   C95       1.0  0.03957  0.27727  0.12633  1.0000
  C   C96       1.0  0.05643  0.27401  0.10620  1.0000
  C   C97       1.0  0.07084  0.25670  0.10987  1.0000
  C   C98       1.0  0.06843  0.24246  0.13343  1.0000
  C   C99       1.0  0.12450  0.45372  0.31162  1.0000
  C   C100      1.0  0.13864  0.46963  0.32064  1.0000
  C   C101      1.0  0.03625  0.31519  0.17357  1.0000
  C   C102      1.0  0.03758  0.33062  0.19524  1.0000
  C   C103      1.0  0.02574  0.34984  0.19312  1.0000
  C   C104      1.0  0.18953  0.06765  0.99130  1.0000
  C   C105      1.0  0.01485  0.47982  0.35284  1.0000
  C   C106      1.0  0.02497  0.31278  0.08725  1.0000
  C   C107      1.0  0.30912  0.99276  0.03941  1.0000
  C   C108      1.0  0.21251  0.26353  0.37901  1.0000
  C   C109      1.0  0.16155  0.20538  0.99019  1.0000
  H   H79       1.0  0.00076  0.21359  0.01895  1.0000
  H   H80       1.0  0.11216  0.15056  0.02294  1.0000
  H   H81       1.0  0.21080  0.18180  0.00612  1.0000
  C   C110      1.0  0.27744  0.99331  0.21389  1.0000
  C   C111      1.0  0.99353  0.26570  0.99723  1.0000
  H   H82       1.0  0.00212  0.29436  0.06270  1.0000
  H   H83       1.0  0.20441  0.27597  0.39147  1.0000
  H   H84       1.0  0.05856  0.28470  0.08759  1.0000
  H   H85       1.0  0.08389  0.25433  0.09433  1.0000
  C   C112      1.0  0.01863  0.31725  0.03558  1.0000
  C   C113      1.0  0.02376  0.46947  0.29248  1.0000
  H   H86       1.0  0.03878  0.34036  0.01301  1.0000
  H   H87       1.0  0.04617  0.30083  0.17541  1.0000
  H   H88       1.0  0.04830  0.32794  0.21336  1.0000
  H   H89       1.0  0.29958  0.03571  0.11722  1.0000
  C   C114      1.0  0.27005  0.18988  0.02636  1.0000
  C   C115      1.0  0.01392  0.30704  0.06216  1.0000
  H   H90       1.0  0.01555  0.39524  0.08645  1.0000
  C   C116      1.0  0.00464  0.24673  0.00570  1.0000
  C   C117      1.0  0.19540  0.06234  0.01973  1.0000
  H   H91       1.0  0.20105  0.22401  0.33140  1.0000
  C   C118      1.0  0.31795  0.24660  0.41378  1.0000
  C   C119      1.0  0.15334  0.17739  0.05369  1.0000
  H   H92       1.0  0.08393  0.41262  0.37024  1.0000
  H   H93       1.0  0.01057  0.40196  0.20720  1.0000
  H   H94       1.0  0.05831  0.35066  0.05710  1.0000
  H   H95       1.0  0.16814  0.11745  0.00202  1.0000
  C   C120      1.0  0.23091  0.46564  0.39204  1.0000
  H   H96       1.0  0.14482  0.45270  0.39087  1.0000
  S   S17       1.0  0.19792  0.35872  0.47365  1.0000
  H   H97       1.0  0.12037  0.48978  0.38833  1.0000
  S   S18       1.0  0.03333  0.24435  0.00900  1.0000
  H   H98       1.0  0.19640  0.07283  0.06383  1.0000
  H   H99       1.0  0.30356  0.32888  0.45275  1.0000
  H   H100      1.0  0.28975  0.04207  0.02500  1.0000
  C   C121      1.0  0.20033  0.25037  0.36128  1.0000
  C   C122      1.0  0.29075  0.18076  0.02475  1.0000
  S   S19       1.0  0.32048  0.09000  0.17916  1.0000
  C   C123      1.0  0.23287  0.23132  0.34655  1.0000
  C   C124      1.0  0.25922  0.34478  0.36030  1.0000
  H   H101      1.0  0.12704  0.41160  0.44380  1.0000
  C   C125      1.0  0.05152  0.24544  0.15336  1.0000
  H   H102      1.0  0.29042  0.28113  0.36956  1.0000
  Fe  Fe9       1.0  0.11538  0.25214  0.99307  1.0000
  C   C126      1.0  0.02756  0.45246  0.27328  1.0000
  C   C127      1.0  0.04079  0.32881  0.08527  1.0000
  H   H103      1.0  0.05002  0.33309  0.10411  1.0000
  C   C128      1.0  0.29345  0.27055  0.38799  1.0000
  C   C129      1.0  0.31514  0.09904  0.14295  1.0000
  H   H104      1.0  0.31684  0.07670  0.05304  1.0000
  C   C130      1.0  0.18092  0.09671  0.03613  1.0000
  C   C131      1.0  0.26029  0.19826  0.00135  1.0000
  C   C132      1.0  0.23562  0.27944  0.43781  1.0000
  C   C133      1.0  0.30018  0.99978  0.16187  1.0000
  C   C134      1.0  0.26749  0.04373  0.10394  1.0000
  H   H105      1.0  0.23409  0.29739  0.34885  1.0000
  C   C135      1.0  0.12702  0.44313  0.46301  1.0000
  H   H106      1.0  0.99756  0.46994  0.21611  1.0000
  C   C136      1.0  0.01784  0.45249  0.24610  1.0000
  C   C137      1.0  0.19127  0.07689  0.04204  1.0000
  H   H107      1.0  0.24289  0.11384  0.12506  1.0000
  H   H108      1.0  0.12379  0.18775  0.03345  1.0000
  H   H109      1.0  0.31533  0.03636  0.30587  1.0000
  H   H110      1.0  0.15172  0.07594  0.07226  1.0000
  C   C138      1.0  0.15186  0.08429  0.09268  1.0000
  H   H111      1.0  0.18169  0.16293  0.07187  1.0000
  C   C139      1.0  0.28633  0.01348  0.20733  1.0000
  H   H112      1.0  0.18905  0.21517  0.01478  1.0000
  H   H113      1.0  0.21617  0.26410  0.99201  1.0000
  C   C140      1.0  0.24511  0.24447  0.36425  1.0000
  C   C141      1.0  0.30184  0.24248  0.43454  1.0000
  C   C142      1.0  0.26194  0.04746  0.05229  1.0000
  P   P5        1.0  0.17706  0.11583  0.06486  1.0000
  H   H114      1.0  0.12462  0.45163  0.44260  1.0000
  C   C143      1.0  0.30180  0.18019  0.99817  1.0000
  C   C144      1.0  0.21050  0.23426  0.34507  1.0000
  S   S20       1.0  0.14626  0.22986  0.99757  1.0000
  H   H115      1.0  0.13521  0.11937  0.03667  1.0000
  C   C145      1.0  0.12822  0.42061  0.46367  1.0000
  H   H116      1.0  0.25164  0.99810  0.07172  1.0000
  Fe  Fe10      1.0  0.23252  0.36682  0.48475  1.0000
  C   C146      1.0  0.23196  0.29924  0.45147  1.0000
  H   H117      1.0  0.06051  0.38250  0.35733  1.0000
  C   C147      1.0  0.22732  0.26055  0.45079  1.0000
  C   C148      1.0  0.23499  0.26067  0.38063  1.0000
  C   C149      1.0  0.32207  0.12205  0.10053  1.0000
  C   C150      1.0  0.29776  0.01670  0.18133  1.0000
  H   H118      1.0  0.00132  0.34177  0.12870  1.0000
  H   H119      1.0  0.29339  0.00044  0.03949  1.0000
  H   H120      1.0  0.22974  0.24510  0.44056  1.0000
  H   H121      1.0  0.20894  0.14284  0.03551  1.0000
  C   C151      1.0  0.26627  0.31952  0.39964  1.0000
  H   H122      1.0  0.27394  0.31592  0.42010  1.0000
  C   C152      1.0  0.23724  0.14213  0.06186  1.0000
  C   C153      1.0  0.24676  0.13414  0.08718  1.0000
  C   C154      1.0  0.23516  0.12050  0.10590  1.0000
  C   C155      1.0  0.21388  0.11510  0.09955  1.0000
  C   C156      1.0  0.20393  0.12373  0.07466  1.0000
  C   C157      1.0  0.21593  0.13693  0.05557  1.0000
  H   H123      1.0  0.26119  0.36063  0.35045  1.0000
  C   C158      1.0  0.26888  0.33990  0.38684  1.0000
  H   H124      1.0  0.26132  0.04457  0.12600  1.0000
  H   H125      1.0  0.06775  0.47961  0.28400  1.0000
  H   H126      1.0  0.14334  0.48203  0.30512  1.0000
  H   H127      1.0  0.00296  0.26104  0.09363  1.0000
  C   C159      1.0  0.22063  0.30004  0.47785  1.0000
  C   C160      1.0  0.00037  0.38697  0.08992  1.0000
  C   C161      1.0  0.21592  0.26143  0.47714  1.0000
  C   C162      1.0  0.27871  0.32061  0.48405  1.0000
  C   C163      1.0  0.31067  0.29783  0.47273  1.0000
  C   C164      1.0  0.99349  0.37191  0.06993  1.0000
  C   C165      1.0  0.31695  0.00467  0.32584  1.0000
  H   H128      1.0  0.30931  0.00229  0.14205  1.0000
  C   C166      1.0  0.99530  0.39848  0.21782  1.0000
  H   H129      1.0  0.99244  0.40389  0.12911  1.0000
  H   H130      1.0  0.00260  0.28008  0.99227  1.0000
  C   C167      1.0  0.99463  0.39352  0.24748  1.0000
  S   S21       1.0  0.06833  0.29611  0.98759  1.0000
  H   H131      1.0  0.26906  0.99066  0.23438  1.0000
  H   H132      1.0  0.19162  0.49017  0.30959  1.0000
  P   P6        1.0  0.16412  0.49033  0.36152  1.0000
  Fe  Fe11      1.0  0.18805  0.37882  0.51270  1.0000
  S   S22       1.0  0.22252  0.38512  0.52524  1.0000
  S   S23       1.0  0.15833  0.37098  0.54152  1.0000
  Fe  Fe12      1.0  0.07650  0.42246  0.73668  1.0000
  S   S24       1.0  0.07068  0.40211  0.69751  1.0000
  S   S25       1.0  0.06461  0.45727  0.73511  1.0000
  Fe  Fe13      1.0  0.09335  0.38369  0.77330  1.0000
  S   S26       1.0  0.08949  0.36090  0.73637  1.0000
  S   S27       1.0  0.10565  0.37600  0.81918  1.0000
  Fe  Fe14      1.0  0.10333  0.38718  0.70689  1.0000
  S   S28       1.0  0.13293  0.38418  0.67599  1.0000
  Fe  Fe15      1.0  0.05729  0.37782  0.72982  1.0000
  S   S29       1.0  0.02600  0.35877  0.73048  1.0000
  S   S30       1.0  0.10958  0.40894  0.74479  1.0000
  S   S31       1.0  0.06075  0.39924  0.76805  1.0000
  Fe  Fe16      1.0  0.27849  0.11563  0.94710  1.0000
  S   S32       1.0  0.24599  0.10027  0.94236  1.0000
  S   S33       1.0  0.30403  0.12593  0.91325  1.0000
  Fe  Fe17      1.0  0.09183  0.28582  0.95263  1.0000
  S   S34       1.0  0.08715  0.29542  0.90456  1.0000
  S   S35       1.0  0.08755  0.25014  0.96197  1.0000
  H   H133      1.0  0.22477  0.46285  0.62659  1.0000
  H   H134      1.0  0.06626  0.36849  0.90621  1.0000
  H   H135      1.0  0.13779  0.33563  0.96825  1.0000
  H   H136      1.0  0.15837  0.37989  0.90101  1.0000
  C   C168      1.0  0.27146  0.19806  0.97462  1.0000
  H   H137      1.0  0.31265  0.26971  0.88404  1.0000
  C   C169      1.0  0.27004  0.02707  0.72428  1.0000
  C   C170      1.0  0.03716  0.48974  0.67380  1.0000
  H   H138      1.0  0.01851  0.22607  0.83743  1.0000
  H   H139      1.0  0.20967  0.24681  0.48711  1.0000
  H   H140      1.0  0.28689  0.99713  0.90932  1.0000
  H   H141      1.0  0.10929  0.46367  0.75366  1.0000
  C   C171      1.0  0.32172  0.14906  0.63588  1.0000
  C   C172      1.0  0.30244  0.25801  0.89510  1.0000
  C   C173      1.0  0.00060  0.38870  0.70127  1.0000
  C   C174      1.0  0.28509  0.02925  0.86016  1.0000
  C   C175      1.0  0.12143  0.24489  0.89635  1.0000
  H   H142      1.0  0.31956  0.05225  0.82991  1.0000
  C   C176      1.0  0.09928  0.35388  0.84284  1.0000
  C   C177      1.0  0.08938  0.33523  0.83304  1.0000
  C   C178      1.0  0.08597  0.31754  0.85218  1.0000
  C   C179      1.0  0.09197  0.31833  0.88152  1.0000
  C   C180      1.0  0.10161  0.33708  0.89140  1.0000
  C   C181      1.0  0.10545  0.35461  0.87211  1.0000
  H   H143      1.0  0.08482  0.33425  0.81055  1.0000
  H   H144      1.0  0.07875  0.30307  0.84407  1.0000
  H   H145      1.0  0.10611  0.33806  0.91387  1.0000
  H   H146      1.0  0.11315  0.36891  0.87995  1.0000
  H   H147      1.0  0.20446  0.41814  0.61122  1.0000
  C   C182      1.0  0.26174  0.12628  0.56920  1.0000
  H   H148      1.0  0.01335  0.26834  0.94262  1.0000
  C   C183      1.0  0.31043  0.11552  0.87827  1.0000
  C   C184      1.0  0.29674  0.10154  0.86390  1.0000
  H   H149      1.0  0.30978  0.15813  0.49238  1.0000
  Fe  Fe18      1.0  0.21934  0.41494  0.49640  1.0000
  H   H150      1.0  0.28193  0.09634  0.87438  1.0000
  C   C185      1.0  0.19673  0.24680  0.96212  1.0000
  C   C186      1.0  0.15151  0.37601  0.57872  1.0000
  C   C187      1.0  0.16719  0.37926  0.59972  1.0000
  C   C188      1.0  0.16112  0.38184  0.62916  1.0000
  C   C189      1.0  0.13929  0.38142  0.63817  1.0000
  C   C190      1.0  0.12354  0.37851  0.61710  1.0000
  C   C191      1.0  0.12965  0.37567  0.58769  1.0000
  H   H151      1.0  0.18406  0.37925  0.59337  1.0000
  H   H152      1.0  0.17351  0.38393  0.64515  1.0000
  H   H153      1.0  0.10671  0.37795  0.62355  1.0000
  H   H154      1.0  0.11733  0.37293  0.57179  1.0000
  P   P7        1.0  0.29638  0.01652  0.80433  1.0000
  C   C192      1.0  0.19350  0.42956  0.56961  1.0000
  H   H155      1.0  0.04310  0.40165  0.83019  1.0000
  C   C193      1.0  0.02201  0.31536  0.81720  1.0000
  C   C194      1.0  0.26368  0.99660  0.97844  1.0000
  H   H156      1.0  0.29115  0.08414  0.82452  1.0000
  C   C195      1.0  0.27691  0.12855  0.54647  1.0000
  H   H157      1.0  0.25757  0.30724  0.51687  1.0000
  H   H158      1.0  0.25495  0.20880  0.54041  1.0000
  H   H159      1.0  0.15922  0.15686  0.95597  1.0000
  H   H160      1.0  0.26297  0.00749  0.76198  1.0000
  C   C196      1.0  0.03647  0.32498  0.79729  1.0000
  H   H161      1.0  0.04263  0.34099  0.80047  1.0000
  C   C197      1.0  0.23834  0.10624  0.53800  1.0000
  C   C198      1.0  0.05575  0.36912  0.88762  1.0000
  S   S36       1.0  0.26637  0.13913  0.98064  1.0000
  C   C199      1.0  0.30982  0.20843  0.54059  1.0000
  Fe  Fe19      1.0  0.25647  0.07722  0.97818  1.0000
  C   C200      1.0  0.32141  0.14557  0.49764  1.0000
  H   H162      1.0  0.16848  0.46030  0.77004  1.0000
  H   H163      1.0  0.05451  0.44302  0.60399  1.0000
  C   C201      1.0  0.31348  0.18635  0.54473  1.0000
  H   H164      1.0  0.32335  0.21928  0.53839  1.0000
  H   H165      1.0  0.31192  0.06201  0.71758  1.0000
  H   H166      1.0  0.13634  0.41232  0.53570  1.0000
  C   C202      1.0  0.31086  0.11595  0.59862  1.0000
  H   H167      1.0  0.04526  0.27262  0.91040  1.0000
  H   H168      1.0  0.18194  0.25520  0.96812  1.0000
  C   C203      1.0  0.99392  0.30761  0.89701  1.0000
  H   H169      1.0  0.28028  0.15542  0.86689  1.0000
  H   H170      1.0  0.13964  0.23960  0.93529  1.0000
  C   C204      1.0  0.27128  0.20248  0.54166  1.0000
  S   S37       1.0  0.26351  0.04088  0.97392  1.0000
  H   H171      1.0  0.29475  0.23492  0.96170  1.0000
  H   H172      1.0  0.26472  0.13319  0.59020  1.0000
  C   C205      1.0  0.07006  0.44614  0.59380  1.0000
  C   C206      1.0  0.04275  0.35150  0.88160  1.0000
  C   C207      1.0  0.25511  0.18479  0.91967  1.0000
  C   C208      1.0  0.16702  0.47759  0.72915  1.0000
  H   H173      1.0  0.11049  0.23170  0.90092  1.0000
  H   H174      1.0  0.17558  0.09190  0.96308  1.0000
  C   C209      1.0  0.25322  0.10867  0.51516  1.0000
  H   H175      1.0  0.20779  0.42394  0.55816  1.0000
  C   C210      1.0  0.32119  0.10131  0.82141  1.0000
  C   C211      1.0  0.28380  0.04237  0.71161  1.0000
  C   C212      1.0  0.30122  0.05007  0.72720  1.0000
  C   C213      1.0  0.30503  0.04235  0.75531  1.0000
  C   C214      1.0  0.29150  0.02671  0.76805  1.0000
  H   H176      1.0  0.24745  0.99470  0.91174  1.0000
  H   H177      1.0  0.08454  0.41658  0.60989  1.0000
  C   C215      1.0  0.99700  0.24295  0.86647  1.0000
  C   C216      1.0  0.28032  0.03123  0.83057  1.0000
  C   C217      1.0  0.23534  0.15215  0.90972  1.0000
  C   C218      1.0  0.10148  0.47925  0.75099  1.0000
  C   C219      1.0  0.25657  0.05469  0.87195  1.0000
  C   C220      1.0  0.25169  0.05681  0.84250  1.0000
  C   C221      1.0  0.26351  0.04513  0.82184  1.0000
  S   S38       1.0  0.22892  0.44825  0.51282  1.0000
  H   H178      1.0  0.05386  0.32178  0.75686  1.0000
  H   H179      1.0  0.26115  0.16980  0.54787  1.0000
  H   H180      1.0  0.05960  0.47108  0.64812  1.0000
  P   P8        1.0  0.25904  0.20813  0.94183  1.0000
  H   H181      1.0  0.20395  0.28194  0.51124  1.0000
  C   C222      1.0  0.30202  0.09465  0.83559  1.0000
  H   H182      1.0  0.21835  0.31537  0.48851  1.0000
  H   H183      1.0  0.28601  0.23363  0.53537  1.0000
  C   C223      1.0  0.24258  0.11508  0.56499  1.0000
  C   C224      1.0  0.03538  0.29336  0.76725  1.0000
  C   C225      1.0  0.99844  0.41188  0.76866  1.0000
  H   H184      1.0  0.00336  0.28675  0.82706  1.0000
  C   C226      1.0  0.17337  0.43388  0.61440  1.0000
  C   C227      1.0  0.15797  0.44647  0.56887  1.0000
  C   C228      1.0  0.29608  0.17212  0.54739  1.0000
  C   C229      1.0  0.13783  0.24939  0.91575  1.0000
  H   H185      1.0  0.13227  0.39215  0.49071  1.0000
  H   H186      1.0  0.24757  0.06388  0.88794  1.0000
  H   H187      1.0  0.23891  0.06771  0.83565  1.0000
  Fe  Fe20      1.0  0.23427  0.12270  0.97833  1.0000
  H   H188      1.0  0.32195  0.01832  0.98371  1.0000
  H   H189      1.0  0.01557  0.39581  0.69377  1.0000
  H   H190      1.0  0.01110  0.43489  0.69404  1.0000
  C   C230      1.0  0.26802  0.16018  0.88261  1.0000
  C   C231      1.0  0.07311  0.46474  0.57677  1.0000
  H   H191      1.0  0.19074  0.26210  0.86975  1.0000
  H   H192      1.0  0.06681  0.40032  0.87298  1.0000
  H   H193      1.0  0.23101  0.11327  0.58268  1.0000
  H   H194      1.0  0.25050  0.27327  0.91283  1.0000
  S   S39       1.0  0.20164  0.14195  0.97345  1.0000
  C   C232      1.0  0.22258  0.47366  0.49627  1.0000
  P   P9        1.0  0.30131  0.14356  0.55203  1.0000
  C   C233      1.0  0.04553  0.47065  0.66227  1.0000
  C   C234      1.0  0.02956  0.35192  0.85704  1.0000
  C   C235      1.0  0.02939  0.37037  0.83892  1.0000
  C   C236      1.0  0.04270  0.38779  0.84477  1.0000
  C   C237      1.0  0.05598  0.38711  0.86900  1.0000
  H   H195      1.0  0.27712  0.03943  0.90365  1.0000
  H   H196      1.0  0.01757  0.43737  0.75012  1.0000
  C   C238      1.0  0.23484  0.23998  0.96932  1.0000
  S   S40       1.0  0.12071  0.28750  0.98187  1.0000
  C   C239      1.0  0.25080  0.01542  0.97869  1.0000
  C   C240      1.0  0.31726  0.11108  0.62699  1.0000
  C   C241      1.0  0.03598  0.45093  0.66955  1.0000
  H   H197      1.0  0.24891  0.13191  0.87642  1.0000
  C   C242      1.0  0.19171  0.42648  0.59957  1.0000
  C   C243      1.0  0.01198  0.31001  0.87854  1.0000
  C   C244      1.0  0.11046  0.45412  0.56749  1.0000
  C   C245      1.0  0.20536  0.48073  0.59606  1.0000
  C   C246      1.0  0.22772  0.29975  0.91293  1.0000
  C   C247      1.0  0.20728  0.30707  0.90441  1.0000
  C   C248      1.0  0.19364  0.29350  0.88906  1.0000
  C   C249      1.0  0.20097  0.27277  0.88174  1.0000
  P   P10       1.0  0.16690  0.30236  0.87879  1.0000
  C   C250      1.0  0.14884  0.28001  0.88555  1.0000
  C   C251      1.0  0.15890  0.32485  0.90122  1.0000
  C   C252      1.0  0.15035  0.32125  0.92918  1.0000
  C   C253      1.0  0.14472  0.33860  0.94683  1.0000
  C   C254      1.0  0.14758  0.35972  0.93668  1.0000
  C   C255      1.0  0.15632  0.36350  0.90900  1.0000
  C   C256      1.0  0.16212  0.34617  0.89140  1.0000
  C   C257      1.0  0.13233  0.27531  0.86612  1.0000
  C   C258      1.0  0.11874  0.25778  0.87151  1.0000
  H   H198      1.0  0.28363  0.12161  0.50126  1.0000
  C   C259      1.0  0.01285  0.27996  0.92481  1.0000
  C   C260      1.0  0.10692  0.43501  0.58365  1.0000
  C   C261      1.0  0.16625  0.31075  0.84107  1.0000
  C   C262      1.0  0.18337  0.30591  0.82190  1.0000
  C   C263      1.0  0.18262  0.31298  0.79291  1.0000
  C   C264      1.0  0.16487  0.32494  0.78295  1.0000
  C   C265      1.0  0.14780  0.32977  0.80191  1.0000
  C   C266      1.0  0.14847  0.32264  0.83078  1.0000
  C   C267      1.0  0.14297  0.48600  0.54215  1.0000
  C   C268      1.0  0.17675  0.43958  0.55429  1.0000
  H   H199      1.0  0.23806  0.31020  0.92509  1.0000
  H   H200      1.0  0.20213  0.32320  0.91010  1.0000
  C   C269      1.0  0.00284  0.23381  0.83999  1.0000
  H   H201      1.0  0.14786  0.30510  0.93737  1.0000
  C   C270      1.0  0.16592  0.16957  0.96874  1.0000
  C   C271      1.0  0.01032  0.46927  0.70116  1.0000
  H   H202      1.0  0.16573  0.47902  0.50722  1.0000
  H   H203      1.0  0.16898  0.34952  0.87011  1.0000
  H   H204      1.0  0.12947  0.28530  0.84714  1.0000
  H   H205      1.0  0.10559  0.25470  0.85696  1.0000
  H   H206      1.0  0.31868  0.04857  0.76679  1.0000
  C   C272      1.0  0.25041  0.14679  0.88815  1.0000
  C   C273      1.0  0.31579  0.15397  0.60737  1.0000
  H   H207      1.0  0.19731  0.29681  0.82917  1.0000
  H   H208      1.0  0.19584  0.30927  0.77814  1.0000
  H   H209      1.0  0.16430  0.33054  0.76056  1.0000
  H   H210      1.0  0.13404  0.33919  0.79434  1.0000
  H   H211      1.0  0.13514  0.32645  0.84521  1.0000
  C   C274      1.0  0.07997  0.48047  0.74210  1.0000
  C   C275      1.0  0.09313  0.46857  0.56329  1.0000
  C   C276      1.0  0.08695  0.43125  0.59714  1.0000
  H   H212      1.0  0.27965  0.27403  0.52489  1.0000
  C   C277      1.0  0.27490  0.18034  0.54591  1.0000
  H   H213      1.0  0.30646  0.10294  0.58456  1.0000
  C   C278      1.0  0.21084  0.47336  0.62380  1.0000
  C   C279      1.0  0.01830  0.45026  0.68871  1.0000
  H   H214      1.0  0.22683  0.24943  0.88481  1.0000
  H   H215      1.0  0.22663  0.17423  0.94329  1.0000
  C   C280      1.0  0.27377  0.01935  0.75246  1.0000
  H   H216      1.0  0.01937  0.37107  0.81981  1.0000
  H   H217      1.0  0.04341  0.33759  0.89601  1.0000
  C   C281      1.0  0.16217  0.47647  0.69953  1.0000
  C   C282      1.0  0.27230  0.30483  0.50444  1.0000
  C   C283      1.0  0.16512  0.45929  0.74711  1.0000
  C   C284      1.0  0.15853  0.43977  0.73563  1.0000
  C   C285      1.0  0.15372  0.43854  0.70621  1.0000
  C   C286      1.0  0.15546  0.45681  0.68825  1.0000
  C   C287      1.0  0.23476  0.27897  0.90596  1.0000
  C   C288      1.0  0.27056  0.17895  0.89854  1.0000
  H   H218      1.0  0.31565  0.17067  0.60037  1.0000
  C   C289      1.0  0.32466  0.02058  0.81167  1.0000
  H   H219      1.0  0.25654  0.02108  0.71219  1.0000
  H   H220      1.0  0.21495  0.47585  0.57734  1.0000
  C   C290      1.0  0.03080  0.28220  0.90648  1.0000
  H   H221      1.0  0.17193  0.43106  0.63755  1.0000
  C   C291      1.0  0.15672  0.44424  0.59923  1.0000
  H   H222      1.0  0.31817  0.09448  0.63459  1.0000
  H   H223      1.0  0.01520  0.26757  0.78302  1.0000
  H   H224      1.0  0.15685  0.42562  0.74957  1.0000
  H   H225      1.0  0.14828  0.42346  0.69746  1.0000
  H   H226      1.0  0.15104  0.45575  0.66571  1.0000
  C   C292      1.0  0.01447  0.29451  0.81196  1.0000
  C   C293      1.0  0.31034  0.13744  0.58844  1.0000
  H   H227      1.0  0.29803  0.01872  0.86713  1.0000
  C   C294      1.0  0.00117  0.37046  0.71941  1.0000
  C   C295      1.0  0.03036  0.29707  0.88341  1.0000
  H   H228      1.0  0.17846  0.44176  0.53104  1.0000
  H   H229      1.0  0.11950  0.42282  0.58566  1.0000
  H   H230      1.0  0.14274  0.45002  0.61118  1.0000
  C   C296      1.0  0.28494  0.28587  0.50895  1.0000
  H   H231      1.0  0.02573  0.48104  0.75661  1.0000
  C   C297      1.0  0.23790  0.17085  0.92577  1.0000
  C   C298      1.0  0.23448  0.22318  0.94926  1.0000
  C   C299      1.0  0.15351  0.18864  0.97344  1.0000
  C   C300      1.0  0.27240  0.11986  0.51930  1.0000
  C   C301      1.0  0.29235  0.23814  0.93881  1.0000
  C   C302      1.0  0.19639  0.23068  0.94134  1.0000
  C   C303      1.0  0.21522  0.21904  0.93467  1.0000
  C   C304      1.0  0.27644  0.22726  0.92353  1.0000
  C   C305      1.0  0.27335  0.23224  0.89406  1.0000
  C   C306      1.0  0.28640  0.24747  0.87987  1.0000
  H   H232      1.0  0.28495  0.18839  0.89486  1.0000
  H   H233      1.0  0.16396  0.27021  0.92577  1.0000
  C   C307      1.0  0.15151  0.26682  0.91034  1.0000
  C   C308      1.0  0.22144  0.26555  0.89020  1.0000
  H   H234      1.0  0.04457  0.29874  0.86968  1.0000
  C   C309      1.0  0.04308  0.31400  0.77244  1.0000
  P   P11       1.0  0.01240  0.32950  0.84886  1.0000
  H   H235      1.0  0.14287  0.37314  0.95022  1.0000
  C   C310      1.0  0.00133  0.43136  0.75350  1.0000
  H   H236      1.0  0.18134  0.22677  0.93102  1.0000
  H   H237      1.0  0.21449  0.20680  0.91833  1.0000
  H   H238      1.0  0.26095  0.22421  0.88201  1.0000
  H   H239      1.0  0.28416  0.25102  0.85701  1.0000
  H   H240      1.0  0.25968  0.04727  0.79915  1.0000
  H   H241      1.0  0.28102  0.04828  0.68974  1.0000
  H   H242      1.0  0.19303  0.05660  0.97387  1.0000
  H   H243      1.0  0.00811  0.24222  0.88445  1.0000
  H   H244      1.0  0.22199  0.14148  0.91466  1.0000
  H   H245      1.0  0.04040  0.28507  0.74775  1.0000
  C   C311      1.0  0.27327  0.04091  0.88079  1.0000
  C   C312      1.0  0.28874  0.21650  0.53892  1.0000
  C   C313      1.0  0.02114  0.28357  0.78706  1.0000
  C   C314      1.0  0.13304  0.44374  0.51502  1.0000
  H   H246      1.0  0.30075  0.18760  0.95258  1.0000
  P   P12       1.0  0.13588  0.45807  0.54851  1.0000
  H   H247      1.0  0.22349  0.09754  0.53477  1.0000
  H   H248      1.0  0.12768  0.47206  0.48771  1.0000
  C   C315      1.0  0.21265  0.28118  0.49073  1.0000
  H   H249      1.0  0.04256  0.43607  0.66097  1.0000
  H   H250      1.0  0.09495  0.48262  0.54930  1.0000
  C   C316      1.0  0.13365  0.42113  0.51557  1.0000
  H   H251      1.0  0.13756  0.19024  0.96435  1.0000
  H   H252      1.0  0.01234  0.40267  0.77597  1.0000
  C   C317      1.0  0.12909  0.45468  0.48865  1.0000
  H   H253      1.0  0.24989  0.10188  0.49420  1.0000
  C   C318      1.0  0.19809  0.47910  0.64779  1.0000
  C   C319      1.0  0.30536  0.25340  0.92457  1.0000
  C   C320      1.0  0.01960  0.48907  0.69313  1.0000
  H   H254      1.0  0.20252  0.47311  0.66912  1.0000
  S   S41       1.0  0.31968  0.25768  0.50003  1.0000
  C   C321      1.0  0.13117  0.40963  0.49003  1.0000
  C   C322      1.0  0.32269  0.12765  0.64559  1.0000
  C   C323      1.0  0.30428  0.28211  0.49317  1.0000
  C   C324      1.0  0.32139  0.13565  0.52528  1.0000
  H   H255      1.0  0.31778  0.26158  0.93638  1.0000
  H   H256      1.0  0.21832  0.02761  0.98160  1.0000
  H   H257      1.0  0.05984  0.47602  0.57366  1.0000
  C   C325      1.0  0.21907  0.99274  0.98400  1.0000
  C   C326      1.0  0.22843  0.01337  0.98171  1.0000
  C   C327      1.0  0.99442  0.29267  0.92013  1.0000
  C   C328      1.0  0.29221  0.18877  0.97317  1.0000
  H   H258      1.0  0.28099  0.99795  0.97603  1.0000
  H   H259      1.0  0.20171  0.99134  0.98601  1.0000
  C   C329      1.0  0.18677  0.16673  0.98033  1.0000
  H   H260      1.0  0.12003  0.48324  0.68902  1.0000
  S   S42       1.0  0.28937  0.09200  0.98110  1.0000
  C   C330      1.0  0.17953  0.08745  0.98522  1.0000
  C   C331      1.0  0.21600  0.25162  0.97586  1.0000
  C   C332      1.0  0.01198  0.48936  0.76617  1.0000
  H   H261      1.0  0.24962  0.24378  0.98035  1.0000
  H   H262      1.0  0.99279  0.22709  0.79656  1.0000
  Fe  Fe21      1.0  0.06818  0.56835  0.22658  1.0000
  S   S43       1.0  0.06796  0.58643  0.26842  1.0000
  S   S44       1.0  0.05423  0.53469  0.22492  1.0000
  Fe  Fe22      1.0  0.08292  0.60793  0.19035  1.0000
  S   S45       1.0  0.08459  0.62877  0.22987  1.0000
  S   S46       1.0  0.08722  0.61577  0.14178  1.0000
  Fe  Fe23      1.0  0.09972  0.60003  0.25321  1.0000
  S   S47       1.0  0.12988  0.59818  0.28202  1.0000
  Fe  Fe24      1.0  0.05281  0.61338  0.24234  1.0000
  S   S48       1.0  0.02506  0.63457  0.25740  1.0000
  S   S49       1.0  0.10074  0.58019  0.21226  1.0000
  S   S50       1.0  0.05039  0.59439  0.20200  1.0000
  Fe  Fe25      1.0  0.17965  0.61298  0.44471  1.0000
  S   S51       1.0  0.21472  0.60399  0.43744  1.0000
  S   S52       1.0  0.15259  0.62290  0.41305  1.0000
  H   H263      1.0  0.30313  0.78117  0.36938  1.0000
  C   C333      1.0  0.99804  0.59642  0.41846  1.0000
  Fe  Fe26      1.0  0.20785  0.57468  0.46610  1.0000
  C   C334      1.0  0.05729  0.74372  0.11110  1.0000
  H   H264      1.0  0.02352  0.58958  0.15027  1.0000
  S   S53       1.0  0.18640  0.63243  0.48494  1.0000
  C   C335      1.0  0.16682  0.66595  0.98881  1.0000
  C   C336      1.0  0.21741  0.72120  0.07511  1.0000
  C   C337      1.0  0.02520  0.73254  0.07235  1.0000
  H   H265      1.0  0.05566  0.49402  0.37400  1.0000
  C   C338      1.0  0.26262  0.68679  0.47319  1.0000
  S   S54       1.0  0.21253  0.53986  0.45054  1.0000
  Fe  Fe27      1.0  0.27165  0.88762  0.01018  1.0000
  S   S55       1.0  0.29871  0.89603  0.04184  1.0000
  S   S56       1.0  0.23618  0.89100  0.02096  1.0000
  Fe  Fe28      1.0  0.08494  0.71213  0.01768  1.0000
  S   S57       1.0  0.08449  0.70334  0.06631  1.0000
  S   S58       1.0  0.07392  0.74620  0.00726  1.0000
  H   H266      1.0  0.26108  0.67573  0.40212  1.0000
  H   H267      1.0  0.02852  0.68381  0.20902  1.0000
  C   C339      1.0  0.02261  0.60364  0.10738  1.0000
  C   C340      1.0  0.18224  0.50501  0.30940  1.0000
  C   C341      1.0  0.20952  0.49566  0.45584  1.0000
  C   C342      1.0  0.27202  0.98105  0.10225  1.0000
  C   C343      1.0  0.01443  0.59896  0.39756  1.0000
  H   H268      1.0  0.12931  0.71070  0.11370  1.0000
  C   C344      1.0  0.30962  0.76504  0.37282  1.0000
  H   H269      1.0  0.99472  0.60683  0.22670  1.0000
  H   H270      1.0  0.01323  0.54228  0.26359  1.0000
  C   C345      1.0  0.30439  0.64538  0.42264  1.0000
  H   H271      1.0  0.00823  0.50079  0.29694  1.0000
  C   C346      1.0  0.16461  0.51746  0.40937  1.0000
  H   H272      1.0  0.01710  0.61930  0.06614  1.0000
  C   C347      1.0  0.99245  0.60408  0.14138  1.0000
  C   C348      1.0  0.00928  0.56818  0.29389  1.0000
  C   C349      1.0  0.05475  0.75553  0.08531  1.0000
  H   H273      1.0  0.24878  0.70708  0.08276  1.0000
  C   C350      1.0  0.20807  0.49418  0.37269  1.0000
  C   C351      1.0  0.30886  0.88542  0.07527  1.0000
  C   C352      1.0  0.30207  0.86581  0.08752  1.0000
  C   C353      1.0  0.29119  0.97953  0.16813  1.0000
  H   H274      1.0  0.30653  0.84239  0.12222  1.0000
  H   H275      1.0  0.22340  0.73754  0.07339  1.0000
  H   H276      1.0  0.28991  0.85657  0.07678  1.0000
  H   H277      1.0  0.01436  0.70641  0.16863  1.0000
  P   P13       1.0  0.00926  0.69858  0.10647  1.0000
  C   C354      1.0  0.06496  0.49610  0.35413  1.0000
  H   H278      1.0  0.31741  0.91480  0.99224  1.0000
  C   C355      1.0  0.31151  0.85784  0.11337  1.0000
  C   C356      1.0  0.13576  0.60558  0.31843  1.0000
  C   C357      1.0  0.15597  0.59971  0.33007  1.0000
  C   C358      1.0  0.16122  0.60440  0.35902  1.0000
  C   C359      1.0  0.14650  0.61553  0.37670  1.0000
  C   C360      1.0  0.12634  0.62154  0.36502  1.0000
  C   C361      1.0  0.12092  0.61651  0.33620  1.0000
  H   H279      1.0  0.16773  0.59149  0.31657  1.0000
  H   H280      1.0  0.17685  0.59982  0.36747  1.0000
  H   H281      1.0  0.11484  0.63019  0.37841  1.0000
  H   H282      1.0  0.10531  0.62116  0.32775  1.0000
  C   C362      1.0  0.08535  0.64040  0.12144  1.0000
  C   C363      1.0  0.08439  0.63955  0.09098  1.0000
  C   C364      1.0  0.08387  0.65857  0.07376  1.0000
  C   C365      1.0  0.08455  0.67875  0.08680  1.0000
  C   C366      1.0  0.08527  0.67962  0.11726  1.0000
  C   C367      1.0  0.08567  0.66060  0.13451  1.0000
  H   H283      1.0  0.08425  0.62404  0.08062  1.0000
  H   H284      1.0  0.08317  0.65760  0.05039  1.0000
  H   H285      1.0  0.08574  0.69512  0.12760  1.0000
  H   H286      1.0  0.08655  0.66155  0.15786  1.0000
  C   C368      1.0  0.01977  0.68212  0.13602  1.0000
  C   C369      1.0  0.07031  0.51102  0.22439  1.0000
  C   C370      1.0  0.09288  0.51159  0.22458  1.0000
  C   C371      1.0  0.02014  0.69022  0.16433  1.0000
  H   H287      1.0  0.10101  0.52694  0.22455  1.0000
  H   H288      1.0  0.19494  0.51541  0.26774  1.0000
  S   S59       1.0  0.31487  0.72768  0.48196  1.0000
  C   C372      1.0  0.29756  0.70403  0.48390  1.0000
  H   H289      1.0  0.06556  0.76865  0.07990  1.0000
  C   C373      1.0  0.15425  0.67834  0.03593  1.0000
  C   C374      1.0  0.02729  0.72080  0.09850  1.0000
  P   P14       1.0  0.15903  0.69068  0.07047  1.0000
  C   C375      1.0  0.14365  0.71561  0.07094  1.0000
  C   C376      1.0  0.15196  0.67274  0.10038  1.0000
  C   C377      1.0  0.15654  0.67871  0.12890  1.0000
  C   C378      1.0  0.15136  0.66499  0.15230  1.0000
  C   C379      1.0  0.14205  0.64500  0.14737  1.0000
  C   C380      1.0  0.13817  0.63862  0.11904  1.0000
  C   C381      1.0  0.14297  0.65241  0.09563  1.0000
  C   C382      1.0  0.14428  0.72950  0.04658  1.0000
  C   C383      1.0  0.13258  0.74890  0.04651  1.0000
  C   C384      1.0  0.12019  0.75461  0.07072  1.0000
  C   C385      1.0  0.11945  0.74091  0.09505  1.0000
  C   C386      1.0  0.13098  0.72140  0.09513  1.0000
  C   C387      1.0  0.18742  0.69623  0.07424  1.0000
  C   C388      1.0  0.17113  0.67477  0.01586  1.0000
  C   C389      1.0  0.27650  0.70499  0.47245  1.0000
  C   C390      1.0  0.19534  0.71736  0.07210  1.0000
  H   H290      1.0  0.13763  0.63445  0.16544  1.0000
  H   H291      1.0  0.30814  0.63035  0.43387  1.0000
  H   H292      1.0  0.29661  0.96333  0.02221  1.0000
  H   H293      1.0  0.11981  0.67648  0.04315  1.0000
  H   H294      1.0  0.27081  0.72000  0.46287  1.0000
  H   H295      1.0  0.16390  0.69411  0.13303  1.0000
  H   H296      1.0  0.15445  0.66987  0.17430  1.0000
  C   C391      1.0  0.04371  0.72638  0.11766  1.0000
  H   H297      1.0  0.13085  0.62312  0.11530  1.0000
  H   H298      1.0  0.13955  0.64701  0.07406  1.0000
  H   H299      1.0  0.15368  0.72530  0.02749  1.0000
  H   H300      1.0  0.13283  0.75940  0.02749  1.0000
  H   H301      1.0  0.11092  0.76951  0.07035  1.0000
  H   H302      1.0  0.27360  0.96068  0.20046  1.0000
  C   C392      1.0  0.99167  0.72177  0.99966  1.0000
  C   C393      1.0  0.09562  0.51180  0.32875  1.0000
  C   C394      1.0  0.30969  0.75020  0.35033  1.0000
  H   H303      1.0  0.18466  0.73097  0.06822  1.0000
  C   C395      1.0  0.18406  0.51917  0.28558  1.0000
  C   C396      1.0  0.17161  0.53808  0.28456  1.0000
  C   C397      1.0  0.15745  0.54287  0.30740  1.0000
  C   C398      1.0  0.15578  0.52890  0.33143  1.0000
  H   H304      1.0  0.02226  0.51320  0.34269  1.0000
  C   C399      1.0  0.10493  0.49219  0.22474  1.0000
  H   H305      1.0  0.07720  0.65445  0.38775  1.0000
  H   H306      1.0  0.17280  0.54903  0.26603  1.0000
  H   H307      1.0  0.14771  0.55746  0.30620  1.0000
  H   H308      1.0  0.14477  0.53287  0.34894  1.0000
  H   H309      1.0  0.28998  0.70008  0.38549  1.0000
  H   H310      1.0  0.01664  0.61464  0.38731  1.0000
  H   H311      1.0  0.08768  0.51758  0.37352  1.0000
  H   H312      1.0  0.28700  0.92815  0.09642  1.0000
  H   H313      1.0  0.02840  0.65464  0.10953  1.0000
  S   S60       1.0  0.11426  0.71499  0.98818  1.0000
  C   C400      1.0  0.25689  0.96515  0.05945  1.0000
  H   H314      1.0  0.18108  0.52124  0.40329  1.0000
  C   C401      1.0  0.00489  0.66002  0.02211  1.0000
  C   C402      1.0  0.26944  0.66692  0.48525  1.0000
  C   C403      1.0  0.31769  0.75899  0.39993  1.0000
  C   C404      1.0  0.15225  0.50343  0.39288  1.0000
  C   C405      1.0  0.27996  0.97633  0.19446  1.0000
  C   C406      1.0  0.21539  0.51477  0.46964  1.0000
  H   H315      1.0  0.03944  0.66380  0.01924  1.0000
  C   C407      1.0  0.15586  0.52686  0.43429  1.0000
  C   C408      1.0  0.27784  0.67097  0.40470  1.0000
  H   H316      1.0  0.32375  0.94870  0.09212  1.0000
  H   H317      1.0  0.12806  0.52984  0.46236  1.0000
  C   C409      1.0  0.31810  0.72939  0.35485  1.0000
  H   H318      1.0  0.20257  0.49657  0.43455  1.0000
  C   C410      1.0  0.01372  0.59814  0.13445  1.0000
  C   C411      1.0  0.01008  0.61480  0.08700  1.0000
  C   C412      1.0  0.99919  0.62446  0.26606  1.0000
  H   H319      1.0  0.00578  0.71457  0.00961  1.0000
  C   C413      1.0  0.26706  0.94558  0.06633  1.0000
  H   H320      1.0  0.26499  0.93173  0.05255  1.0000
  C   C414      1.0  0.02357  0.56100  0.40253  1.0000
  C   C415      1.0  0.02754  0.58132  0.38984  1.0000
  H   H321      1.0  0.31773  0.71798  0.33736  1.0000
  P   P15       1.0  0.04779  0.58393  0.36164  1.0000
  C   C416      1.0  0.07351  0.57297  0.37290  1.0000
  C   C417      1.0  0.03682  0.57047  0.33076  1.0000
  C   C418      1.0  0.04644  0.55153  0.32013  1.0000
  C   C419      1.0  0.03776  0.54128  0.29623  1.0000
  C   C420      1.0  0.01932  0.54972  0.28292  1.0000
  H   H322      1.0  0.04221  0.64695  0.19976  1.0000
  C   C421      1.0  0.01782  0.57839  0.31793  1.0000
  C   C422      1.0  0.09052  0.57172  0.35257  1.0000
  C   C423      1.0  0.11133  0.56622  0.36149  1.0000
  C   C424      1.0  0.11553  0.56232  0.39076  1.0000
  C   C425      1.0  0.09874  0.56356  0.41120  1.0000
  C   C426      1.0  0.07780  0.56894  0.40237  1.0000
  C   C427      1.0  0.05361  0.61204  0.35461  1.0000
  C   C428      1.0  0.06325  0.62407  0.37643  1.0000
  C   C429      1.0  0.06932  0.64543  0.37103  1.0000
  C   C430      1.0  0.06589  0.65493  0.34380  1.0000
  C   C431      1.0  0.05629  0.64310  0.32202  1.0000
  C   C432      1.0  0.05019  0.62174  0.32732  1.0000
  C   C433      1.0  0.29434  0.68477  0.39540  1.0000
  H   H323      1.0  0.19608  0.66269  0.08142  1.0000
  C   C434      1.0  0.03567  0.64859  0.15408  1.0000
  H   H324      1.0  0.03313  0.54710  0.39614  1.0000
  H   H325      1.0  0.03688  0.75885  0.04571  1.0000
  H   H326      1.0  0.06087  0.54486  0.32968  1.0000
  H   H327      1.0  0.04580  0.52726  0.28719  1.0000
  H   H328      1.0  0.31823  0.91858  0.16756  1.0000
  C   C435      1.0  0.03585  0.65673  0.18209  1.0000
  H   H329      1.0  0.00992  0.59283  0.32594  1.0000
  H   H330      1.0  0.08798  0.57610  0.32998  1.0000
  H   H331      1.0  0.12446  0.56638  0.34584  1.0000
  H   H332      1.0  0.13198  0.55933  0.39768  1.0000
  H   H333      1.0  0.10223  0.56142  0.43403  1.0000
  H   H334      1.0  0.06538  0.57107  0.41879  1.0000
  H   H335      1.0  0.06657  0.61681  0.39743  1.0000
  C   C436      1.0  0.31085  0.97163  0.02944  1.0000
  H   H336      1.0  0.07095  0.67134  0.33941  1.0000
  H   H337      1.0  0.05388  0.65038  0.30075  1.0000
  H   H338      1.0  0.04324  0.61292  0.30982  1.0000
  C   C437      1.0  0.29316  0.89619  0.17772  1.0000
  C   C438      1.0  0.27100  0.89226  0.17835  1.0000
  C   C439      1.0  0.25652  0.90837  0.16938  1.0000
  C   C440      1.0  0.26423  0.92832  0.15952  1.0000
  C   C441      1.0  0.28652  0.93232  0.15857  1.0000
  C   C442      1.0  0.30095  0.91616  0.16806  1.0000
  P   P16       1.0  0.29607  0.95759  0.14348  1.0000
  C   C443      1.0  0.28209  0.96133  0.10953  1.0000
  C   C444      1.0  0.02613  0.67854  0.05749  1.0000
  S   S61       1.0  0.17285  0.58313  0.47089  1.0000
  H   H339      1.0  0.07011  0.74767  0.12574  1.0000
  C   C445      1.0  0.31607  0.67889  0.39955  1.0000
  C   C446      1.0  0.16813  0.50984  0.33254  1.0000
  C   C447      1.0  0.08999  0.50102  0.30366  1.0000
  C   C448      1.0  0.12193  0.50922  0.42613  1.0000
  H   H340      1.0  0.23499  0.66970  0.08683  1.0000
  C   C449      1.0  0.28285  0.65129  0.41824  1.0000
  H   H341      1.0  0.09975  0.50284  0.28413  1.0000
  C   C450      1.0  0.27962  0.94365  0.09120  1.0000
  H   H342      1.0  0.04226  0.63265  0.15012  1.0000
  C   C451      1.0  0.13309  0.67313  0.02839  1.0000
  C   C452      1.0  0.01204  0.50227  0.35505  1.0000
  H   H343      1.0  0.10955  0.52220  0.32842  1.0000
  C   C453      1.0  0.99449  0.57625  0.43153  1.0000
  H   H344      1.0  0.11242  0.66049  0.99557  1.0000
  H   H345      1.0  0.30436  0.88355  0.18422  1.0000
  H   H346      1.0  0.26514  0.87664  0.18552  1.0000
  H   H347      1.0  0.23935  0.90523  0.16960  1.0000
  H   H348      1.0  0.25284  0.94050  0.15207  1.0000
  H   H349      1.0  0.19835  0.78900  0.00496  1.0000
  H   H350      1.0  0.04169  0.68423  0.06440  1.0000
  C   C454      1.0  0.02488  0.66700  0.03180  1.0000
  C   C455      1.0  0.23170  0.70404  0.08038  1.0000
  Fe  Fe29      1.0  0.22155  0.62192  0.47905  1.0000
  H   H351      1.0  0.03933  0.59951  0.10244  1.0000
  C   C456      1.0  0.02780  0.66122  0.13107  1.0000
  C   C457      1.0  0.02816  0.67756  0.18722  1.0000
  H   H352      1.0  0.26999  0.64087  0.42608  1.0000
  H   H353      1.0  0.20623  0.51096  0.36622  1.0000
  C   C458      1.0  0.22393  0.68300  0.08266  1.0000
  C   C459      1.0  0.00744  0.68292  0.07394  1.0000
  H   H354      1.0  0.00392  0.65150  0.00186  1.0000
  C   C460      1.0  0.20189  0.67909  0.07962  1.0000
  C   C461      1.0  0.08322  0.50922  0.35408  1.0000
  C   C462      1.0  0.03864  0.74997  0.06601  1.0000
  H   H355      1.0  0.18754  0.67912  0.02069  1.0000
  C   C463      1.0  0.13061  0.49983  0.40110  1.0000
  H   H356      1.0  0.16568  0.53750  0.44694  1.0000
  H   H357      1.0  0.28974  0.79541  0.99921  1.0000
  C   C464      1.0  0.13464  0.52257  0.44289  1.0000
  H   H358      1.0  0.04662  0.71718  0.13729  1.0000
  C   C465      1.0  0.00723  0.55853  0.42352  1.0000
  H   H359      1.0  0.10944  0.74507  0.11354  1.0000
  H   H360      1.0  0.30310  0.75483  0.32946  1.0000
  H   H361      1.0  0.99354  0.52814  0.37410  1.0000
  H   H362      1.0  0.10535  0.50616  0.43255  1.0000
  H   H363      1.0  0.24662  0.68813  0.46421  1.0000
  C   C466      1.0  0.12887  0.66407  0.00151  1.0000
  S   S62       1.0  0.25260  0.64293  0.48629  1.0000
  S   S63       1.0  0.21020  0.83359  0.99494  1.0000
  H   H364      1.0  0.24678  0.96641  0.04048  1.0000
  H   H365      1.0  0.31731  0.77030  0.41764  1.0000
  H   H366      1.0  0.12238  0.49271  0.22479  1.0000
  H   H367      1.0  0.00436  0.54287  0.43350  1.0000
  H   H368      1.0  0.25168  0.80824  0.99716  1.0000
  C   C467      1.0  0.18446  0.79687  0.99536  1.0000
  H   H369      1.0  0.01352  0.72804  0.05643  1.0000
  H   H370      1.0  0.99524  0.57494  0.28323  1.0000
  C   C468      1.0  0.99573  0.51082  0.37281  1.0000
  C   C469      1.0  0.25954  0.98294  0.07722  1.0000
  H   H371      1.0  0.99210  0.50106  0.24874  1.0000
  H   H372      1.0  0.99825  0.64131  0.30644  1.0000
  H   H373      1.0  0.24136  0.49824  0.38427  1.0000
  H   H374      1.0  0.32189  0.98969  0.23560  1.0000
  H   H375      1.0  0.32335  0.97360  0.34501  1.0000
  C   C470      1.0  0.32096  0.65906  0.41326  1.0000
  C   C471      1.0  0.05998  0.49101  0.22415  1.0000
  H   H376      1.0  0.32486  0.91546  0.29362  1.0000
  C   C472      1.0  0.32481  0.89708  0.08958  1.0000
  C   C473      1.0  0.16555  0.78470  0.99048  1.0000
  H   H377      1.0  0.16524  0.76775  0.99623  1.0000
  C   C474      1.0  0.32493  0.95602  0.13779  1.0000
  H   H378      1.0  0.04261  0.49057  0.22348  1.0000
  Fe  Fe30      1.0  0.23045  0.86500  0.98760  1.0000
  C   C475      1.0  0.18563  0.81903  0.98796  1.0000
  Fe  Fe31      1.0  0.18165  0.60138  0.51059  1.0000
  S   S64       1.0  0.21682  0.59149  0.50713  1.0000
  S   S65       1.0  0.15770  0.59077  0.54657  1.0000
  C   C476      1.0  0.03242  0.62395  0.65225  1.0000
  Fe  Fe32      1.0  0.10058  0.57370  0.74854  1.0000
  S   S66       1.0  0.09070  0.57759  0.70220  1.0000
  S   S67       1.0  0.11691  0.54230  0.76180  1.0000
  Fe  Fe33      1.0  0.08550  0.61920  0.76541  1.0000
  S   S68       1.0  0.07424  0.62612  0.71969  1.0000
  S   S69       1.0  0.07860  0.64725  0.79637  1.0000
  Fe  Fe34      1.0  0.06056  0.59271  0.72116  1.0000
  S   S70       1.0  0.02879  0.58032  0.70424  1.0000
  Fe  Fe35      1.0  0.10528  0.61041  0.70439  1.0000
  S   S71       1.0  0.12817  0.62571  0.67072  1.0000
  S   S72       1.0  0.06955  0.58663  0.76765  1.0000
  S   S73       1.0  0.11748  0.60573  0.74994  1.0000
  Fe  Fe36      1.0  0.26301  0.88598  0.94395  1.0000
  S   S74       1.0  0.27246  0.88563  0.89553  1.0000
  S   S75       1.0  0.22700  0.88959  0.95128  1.0000
  H   H379      1.0  0.23409  0.72782  0.90026  1.0000
  C   C477      1.0  0.27871  0.94427  0.80487  1.0000
  H   H380      1.0  0.03937  0.72534  0.58375  1.0000
  C   C478      1.0  0.25714  0.98017  0.90934  1.0000
  H   H381      1.0  0.25387  0.76102  0.91055  1.0000
  C   C479      1.0  0.29960  0.82265  0.82003  1.0000
  Fe  Fe37      1.0  0.09246  0.70236  0.95325  1.0000
  S   S76       1.0  0.10417  0.67412  0.92517  1.0000
  S   S77       1.0  0.08193  0.73571  0.93911  1.0000
  C   C480      1.0  0.27765  0.97905  0.82812  1.0000
  H   H382      1.0  0.32031  0.68283  0.50507  1.0000
  C   C481      1.0  0.13431  0.52897  0.65156  1.0000
  H   H383      1.0  0.19273  0.76318  0.84203  1.0000
  H   H384      1.0  0.24349  0.52463  0.60202  1.0000
  H   H385      1.0  0.15751  0.59695  0.71610  1.0000
  P   P17       1.0  0.99692  0.62764  0.82789  1.0000
  H   H386      1.0  0.20185  0.64161  0.63885  1.0000
  H   H387      1.0  0.20418  0.80788  0.91437  1.0000
  H   H388      1.0  0.18957  0.61998  0.72159  1.0000
  C   C482      1.0  0.00439  0.59455  0.71046  1.0000
  C   C483      1.0  0.00433  0.61622  0.71822  1.0000
  H   H389      1.0  0.32352  0.84247  0.61243  1.0000
  H   H390      1.0  0.01946  0.62454  0.72048  1.0000
  H   H391      1.0  0.30854  0.93844  0.85700  1.0000
  C   C484      1.0  0.08665  0.65450  0.83191  1.0000
  C   C485      1.0  0.07907  0.67416  0.84323  1.0000
  C   C486      1.0  0.08442  0.68054  0.87152  1.0000
  C   C487      1.0  0.09753  0.66731  0.88891  1.0000
  C   C488      1.0  0.10535  0.64776  0.87744  1.0000
  C   C489      1.0  0.09991  0.64134  0.84918  1.0000
  H   H392      1.0  0.06892  0.68448  0.82998  1.0000
  H   H393      1.0  0.07841  0.69564  0.87996  1.0000
  H   H394      1.0  0.11553  0.63738  0.89062  1.0000
  H   H395      1.0  0.10592  0.62619  0.84085  1.0000
  C   C490      1.0  0.26525  0.61318  0.62792  1.0000
  C   C491      1.0  0.10274  0.51859  0.75362  1.0000
  C   C492      1.0  0.08140  0.51977  0.74422  1.0000
  C   C493      1.0  0.05814  0.70489  0.61226  1.0000
  H   H396      1.0  0.07352  0.53531  0.74156  1.0000
  H   H397      1.0  0.03417  0.54594  0.80156  1.0000
  S   S78       1.0  0.21914  0.94831  0.98589  1.0000
  C   C494      1.0  0.07355  0.72241  0.65368  1.0000
  S   S79       1.0  0.06416  0.69724  0.98389  1.0000
  C   C495      1.0  0.29494  0.88785  0.84381  1.0000
  H   H398      1.0  0.24167  0.58232  0.68111  1.0000
  C   C496      1.0  0.00977  0.66326  0.89981  1.0000
  C   C497      1.0  0.01615  0.57328  0.78536  1.0000
  H   H399      1.0  0.27916  0.88956  0.83423  1.0000
  C   C498      1.0  0.14976  0.60098  0.58096  1.0000
  C   C499      1.0  0.15929  0.61908  0.59282  1.0000
  C   C500      1.0  0.15252  0.62643  0.62033  1.0000
  C   C501      1.0  0.13611  0.61583  0.63620  1.0000
  C   C502      1.0  0.12650  0.59780  0.62427  1.0000
  C   C503      1.0  0.13337  0.59036  0.59688  1.0000
  H   H400      1.0  0.17172  0.62750  0.58064  1.0000
  H   H401      1.0  0.15987  0.64053  0.62928  1.0000
  H   H402      1.0  0.11363  0.58982  0.63612  1.0000
  H   H403      1.0  0.12576  0.57644  0.58780  1.0000
  C   C504      1.0  0.05176  0.74302  0.61964  1.0000
  H   H404      1.0  0.99989  0.52247  0.82230  1.0000
  H   H405      1.0  0.14832  0.52840  0.72085  1.0000
  C   C505      1.0  0.21225  0.74335  0.87037  1.0000
  C   C506      1.0  0.27205  0.95725  0.82787  1.0000
  H   H406      1.0  0.29824  0.62384  0.62816  1.0000
  H   H407      1.0  0.19569  0.67369  0.60799  1.0000
  H   H408      1.0  0.11155  0.55225  0.63454  1.0000
  C   C507      1.0  0.05437  0.61896  0.64939  1.0000
  C   C508      1.0  0.06955  0.63548  0.64765  1.0000
  C   C509      1.0  0.06285  0.65716  0.64815  1.0000
  C   C510      1.0  0.04077  0.66201  0.65188  1.0000
  P   P18       1.0  0.08268  0.67835  0.64837  1.0000
  C   C511      1.0  0.09189  0.67959  0.68533  1.0000
  C   C512      1.0  0.10424  0.67450  0.62201  1.0000
  C   C513      1.0  0.12219  0.68817  0.62205  1.0000
  C   C514      1.0  0.13458  0.50236  0.55991  1.0000
  H   H409      1.0  0.16059  0.51012  0.61268  1.0000
  C   C515      1.0  0.11920  0.65700  0.57926  1.0000
  C   C516      1.0  0.10263  0.65924  0.59995  1.0000
  C   C517      1.0  0.07697  0.68420  0.70766  1.0000
  C   C518      1.0  0.08358  0.68427  0.73656  1.0000
  C   C519      1.0  0.10499  0.67940  0.74342  1.0000
  C   C520      1.0  0.11989  0.67475  0.72136  1.0000
  C   C521      1.0  0.11342  0.67495  0.69242  1.0000
  C   C522      1.0  0.07033  0.70366  0.63769  1.0000
  H   H410      1.0  0.17978  0.66355  0.97317  1.0000
  C   C523      1.0  0.02563  0.64545  0.65373  1.0000
  C   C524      1.0  0.01513  0.50232  0.79021  1.0000
  C   C525      1.0  0.19628  0.55394  0.72634  1.0000
  H   H411      1.0  0.31170  0.82673  0.80366  1.0000
  H   H412      1.0  0.17199  0.49251  0.73870  1.0000
  C   C526      1.0  0.00275  0.64572  0.79781  1.0000
  H   H413      1.0  0.05965  0.60225  0.64948  1.0000
  H   H414      1.0  0.08654  0.63129  0.64651  1.0000
  H   H415      1.0  0.03521  0.67851  0.65388  1.0000
  H   H416      1.0  0.12342  0.70056  0.63821  1.0000
  C   C527      1.0  0.26045  0.80440  0.97735  1.0000
  Fe  Fe38      1.0  0.05463  0.73124  0.97188  1.0000
  H   H417      1.0  0.31353  0.84267  0.85232  1.0000
  H   H418      1.0  0.30527  0.98150  0.76370  1.0000
  H   H419      1.0  0.06018  0.68737  0.70279  1.0000
  H   H420      1.0  0.07204  0.68740  0.75390  1.0000
  H   H421      1.0  0.10986  0.67869  0.76593  1.0000
  H   H422      1.0  0.13635  0.67038  0.72673  1.0000
  H   H423      1.0  0.12515  0.67069  0.67591  1.0000
  C   C528      1.0  0.99267  0.70194  0.84414  1.0000
  C   C529      1.0  0.30433  0.68418  0.49605  1.0000
  C   C530      1.0  0.17654  0.52174  0.69423  1.0000
  H   H424      1.0  0.15265  0.69629  0.60173  1.0000
  H   H425      1.0  0.22917  0.52773  0.50806  1.0000
  C   C531      1.0  0.24070  0.76173  0.89538  1.0000
  C   C532      1.0  0.20558  0.55504  0.56732  1.0000
  H   H426      1.0  0.03134  0.72712  0.89941  1.0000
  H   H427      1.0  0.20383  0.56639  0.73879  1.0000
  C   C533      1.0  0.07007  0.50082  0.73870  1.0000
  H   H428      1.0  0.02073  0.61110  0.65416  1.0000
  C   C534      1.0  0.13705  0.50922  0.66646  1.0000
  C   C535      1.0  0.27966  0.98144  0.90796  1.0000
  C   C536      1.0  0.23322  0.53838  0.59696  1.0000
  C   C537      1.0  0.09544  0.52568  0.65569  1.0000
  C   C538      1.0  0.23449  0.55719  0.61321  1.0000
  C   C539      1.0  0.30061  0.83172  0.84746  1.0000
  C   C540      1.0  0.16493  0.53258  0.71596  1.0000
  C   C541      1.0  0.01501  0.70117  0.83924  1.0000
  H   H429      1.0  0.08410  0.49765  0.67934  1.0000
  H   H430      1.0  0.24815  0.85168  0.87072  1.0000
  C   C542      1.0  0.22428  0.51322  0.49735  1.0000
  C   C543      1.0  0.21036  0.65982  0.56997  1.0000
  C   C544      1.0  0.03164  0.65891  0.90432  1.0000
  C   C545      1.0  0.04284  0.64503  0.88582  1.0000
  C   C546      1.0  0.03232  0.63569  0.86262  1.0000
  C   C547      1.0  0.01011  0.63922  0.85864  1.0000
  H   H431      1.0  0.16763  0.84574  0.96996  1.0000
  H   H432      1.0  0.12928  0.49726  0.76421  1.0000
  H   H433      1.0  0.00134  0.67450  0.91374  1.0000
  H   H434      1.0  0.22597  0.64195  0.53595  1.0000
  H   H435      1.0  0.27468  0.92730  0.80493  1.0000
  C   C548      1.0  0.28584  0.61482  0.63974  1.0000
  C   C549      1.0  0.17480  0.54849  0.73209  1.0000
  C   C550      1.0  0.13727  0.67024  0.58001  1.0000
  S   S80       1.0  0.01993  0.74064  0.95892  1.0000
  H   H436      1.0  0.01750  0.68674  0.73615  1.0000
  C   C551      1.0  0.20676  0.57379  0.58358  1.0000
  C   C552      1.0  0.09804  0.50617  0.67083  1.0000
  C   C553      1.0  0.02294  0.64464  0.78379  1.0000
  C   C554      1.0  0.02820  0.65937  0.76162  1.0000
  C   C555      1.0  0.28185  0.79718  0.97846  1.0000
  C   C556      1.0  0.15423  0.52923  0.53171  1.0000
  C   C557      1.0  0.27443  0.59320  0.68121  1.0000
  H   H437      1.0  0.04011  0.66666  0.92172  1.0000
  H   H438      1.0  0.05987  0.64190  0.88906  1.0000
  H   H439      1.0  0.04170  0.62593  0.84767  1.0000
  C   C558      1.0  0.11278  0.49828  0.75689  1.0000
  H   H440      1.0  0.20341  0.72875  0.86619  1.0000
  H   H441      1.0  0.11820  0.64475  0.56283  1.0000
  H   H442      1.0  0.08344  0.72206  0.67286  1.0000
  C   C559      1.0  0.20623  0.76274  0.85676  1.0000
  H   H443      1.0  0.31174  0.88753  0.80229  1.0000
  P   P19       1.0  0.22242  0.59936  0.62757  1.0000
  H   H444      1.0  0.03476  0.63250  0.79007  1.0000
  H   H445      1.0  0.04385  0.65825  0.75095  1.0000
  H   H446      1.0  0.22450  0.54773  0.69988  1.0000
  C   C560      1.0  0.99749  0.51250  0.80358  1.0000
  H   H447      1.0  0.13449  0.82451  0.96121  1.0000
  C   C561      1.0  0.29243  0.96261  0.90613  1.0000
  C   C562      1.0  0.31715  0.88370  0.88624  1.0000
  C   C563      1.0  0.24902  0.60165  0.64280  1.0000
  H   H448      1.0  0.20741  0.51936  0.67168  1.0000
  C   C564      1.0  0.25966  0.94133  0.90742  1.0000
  C   C565      1.0  0.28219  0.94254  0.90574  1.0000
  C   C566      1.0  0.16811  0.58431  0.67513  1.0000
  C   C567      1.0  0.21890  0.53739  0.57388  1.0000
  H   H449      1.0  0.26264  0.95032  0.84559  1.0000
  C   C568      1.0  0.22952  0.74283  0.88958  1.0000
  C   C569      1.0  0.22149  0.57519  0.60628  1.0000
  C   C570      1.0  0.99904  0.65363  0.87691  1.0000
  H   H450      1.0  0.25186  0.92577  0.90791  1.0000
  H   H451      1.0  0.29162  0.92775  0.90492  1.0000
  C   C571      1.0  0.21740  0.78166  0.86246  1.0000
  H   H452      1.0  0.19627  0.58730  0.57827  1.0000
  H   H453      1.0  0.04458  0.75822  0.61268  1.0000
  H   H454      1.0  0.21243  0.79661  0.85190  1.0000
  C   C572      1.0  0.20370  0.65966  0.59903  1.0000
  C   C573      1.0  0.17019  0.59693  0.69970  1.0000
  H   H455      1.0  0.27803  0.58546  0.70185  1.0000
  C   C574      1.0  0.02615  0.56096  0.80703  1.0000
  H   H456      1.0  0.04619  0.70984  0.85538  1.0000
  C   C575      1.0  0.16339  0.51298  0.51480  1.0000
  C   C576      1.0  0.29663  0.88602  0.87417  1.0000
  C   C577      1.0  0.00698  0.59333  0.79190  1.0000
  C   C578      1.0  0.25383  0.59152  0.66945  1.0000
  C   C579      1.0  0.29304  0.79238  0.95282  1.0000
  H   H457      1.0  0.15833  0.54596  0.52736  1.0000
  H   H458      1.0  0.04451  0.50506  0.66831  1.0000
  C   C580      1.0  0.25033  0.80723  0.95062  1.0000
  C   C581      1.0  0.26157  0.80298  0.92472  1.0000
  C   C582      1.0  0.28289  0.79504  0.92605  1.0000
  P   P20       1.0  0.24827  0.80602  0.89021  1.0000
  C   C583      1.0  0.22830  0.82746  0.89215  1.0000
  C   C584      1.0  0.26819  0.81256  0.86249  1.0000
  H   H459      1.0  0.15375  0.57472  0.67266  1.0000
  C   C585      1.0  0.20800  0.82356  0.90508  1.0000
  C   C586      1.0  0.19250  0.84006  0.90667  1.0000
  C   C587      1.0  0.19720  0.86063  0.89572  1.0000
  C   C588      1.0  0.21730  0.86462  0.88275  1.0000
  C   C589      1.0  0.23273  0.84809  0.88077  1.0000
  H   H460      1.0  0.14818  0.53841  0.64483  1.0000
  H   H461      1.0  0.22975  0.95903  0.91178  1.0000
  C   C590      1.0  0.25434  0.97597  0.98071  1.0000
  C   C591      1.0  0.31341  0.88672  0.82561  1.0000
  H   H462      1.0  0.13345  0.53660  0.56797  1.0000
  C   C592      1.0  0.29074  0.95316  0.78189  1.0000
  H   H463      1.0  0.30638  0.60622  0.67551  1.0000
  H   H464      1.0  0.20767  0.67397  0.55632  1.0000
  S   S81       1.0  0.27079  0.91274  0.97409  1.0000
  H   H465      1.0  0.23381  0.81294  0.95038  1.0000
  H   H466      1.0  0.29174  0.79103  0.90643  1.0000
  H   H467      1.0  0.25457  0.79244  0.82950  1.0000
  C   C593      1.0  0.24715  0.96010  0.90937  1.0000
  C   C594      1.0  0.23462  0.78132  0.88197  1.0000
  H   H468      1.0  0.17697  0.83695  0.91686  1.0000
  H   H469      1.0  0.18539  0.87353  0.89769  1.0000
  H   H470      1.0  0.22121  0.88065  0.87477  1.0000
  C   C595      1.0  0.20728  0.64135  0.61651  1.0000
  C   C596      1.0  0.18826  0.60993  0.70272  1.0000
  H   H471      1.0  0.24573  0.55764  0.63092  1.0000
  C   C597      1.0  0.13871  0.68591  0.60130  1.0000
  H   H472      1.0  0.01610  0.56758  0.76325  1.0000
  H   H473      1.0  0.28560  0.83470  0.88940  1.0000
  C   C598      1.0  0.19808  0.52737  0.68838  1.0000
  C   C599      1.0  0.02054  0.71998  0.88398  1.0000
  H   H474      1.0  0.18156  0.57554  0.63401  1.0000
  H   H475      1.0  0.17479  0.51709  0.49759  1.0000
  H   H476      1.0  0.19448  0.55440  0.54938  1.0000
  C   C600      1.0  0.21747  0.62298  0.60497  1.0000
  C   C601      1.0  0.26730  0.80342  0.83486  1.0000
  H   H477      1.0  0.16562  0.55657  0.74903  1.0000
  C   C602      1.0  0.20425  0.61039  0.68106  1.0000
  C   C603      1.0  0.22437  0.62344  0.57582  1.0000
  C   C604      1.0  0.18397  0.58485  0.65330  1.0000
  H   H478      1.0  0.21793  0.62093  0.68343  1.0000
  C   C605      1.0  0.20222  0.59787  0.65614  1.0000
  H   H479      1.0  0.23273  0.60975  0.56645  1.0000
  C   C606      1.0  0.22069  0.64173  0.55843  1.0000
  C   C607      1.0  0.28293  0.80853  0.81370  1.0000
  C   C608      1.0  0.20787  0.54348  0.70436  1.0000
  Fe  Fe39      1.0  0.10226  0.74829  0.97588  1.0000
  H   H480      1.0  0.02160  0.69350  0.82006  1.0000
  C   C609      1.0  0.11869  0.49796  0.67624  1.0000
  H   H481      1.0  0.26217  0.62094  0.60717  1.0000
  C   C610      1.0  0.02892  0.71023  0.85917  1.0000
  C   C611      1.0  0.04880  0.72449  0.60337  1.0000
  H   H482      1.0  0.07941  0.53231  0.65225  1.0000
  C   C612      1.0  0.06418  0.74198  0.64473  1.0000
  C   C613      1.0  0.28486  0.82696  0.86851  1.0000
  H   H483      1.0  0.28212  0.80160  0.79234  1.0000
  C   C614      1.0  0.11358  0.53698  0.64588  1.0000
  H   H484      1.0  0.12403  0.49852  0.57813  1.0000
  H   H485      1.0  0.21816  0.52300  0.56099  1.0000
  H   H486      1.0  0.30963  0.78673  0.95367  1.0000
  C   C615      1.0  0.29042  0.60488  0.66639  1.0000
  H   H487      1.0  0.01692  0.59357  0.86443  1.0000
  P   P21       1.0  0.16387  0.49989  0.67581  1.0000
  H   H488      1.0  0.99221  0.72858  0.90816  1.0000
  H   H489      1.0  0.01344  0.50398  0.70210  1.0000
  H   H490      1.0  0.08868  0.64906  0.59843  1.0000
  C   C616      1.0  0.29619  0.97496  0.78196  1.0000
  H   H491      1.0  0.05594  0.69069  0.59929  1.0000
  C   C617      1.0  0.01341  0.67541  0.75342  1.0000
  H   H492      1.0  0.06668  0.75641  0.65715  1.0000
  H   H493      1.0  0.29608  0.94314  0.76403  1.0000
  H   H494      1.0  0.15018  0.66824  0.56414  1.0000
  H   H495      1.0  0.00863  0.64918  0.65694  1.0000
  H   H496      1.0  0.03392  0.55865  0.85235  1.0000
  C   C618      1.0  0.14570  0.66064  0.98163  1.0000
  H   H497      1.0  0.30582  0.94604  0.96243  1.0000
  C   C619      1.0  0.14719  0.79445  0.97815  1.0000
  H   H498      1.0  0.29627  0.65091  0.50600  1.0000
  C   C620      1.0  0.14006  0.52392  0.55449  1.0000
  H   H499      1.0  0.26446  0.96168  0.98006  1.0000
  C   C621      1.0  0.17450  0.49989  0.61628  1.0000
  C   C622      1.0  0.01672  0.58817  0.84224  1.0000
  C   C623      1.0  0.00774  0.60119  0.82020  1.0000
  H   H500      1.0  0.31874  0.88232  0.90953  1.0000
  C   C624      1.0  0.02616  0.56824  0.83555  1.0000
  C   C625      1.0  0.16732  0.82875  0.97557  1.0000
  S   S82       1.0  0.26653  0.86032  0.97890  1.0000
  C   C626      1.0  0.99327  0.67667  0.76737  1.0000
  S   S83       1.0  0.12244  0.78000  0.97163  1.0000
  H   H501      1.0  0.03129  0.50420  0.79852  1.0000
  H   H502      1.0  0.05354  0.50200  0.73170  1.0000
  C   C627      1.0  0.99414  0.73481  0.97481  1.0000
  C   C628      1.0  0.22798  0.49277  0.51046  1.0000
  C   C629      1.0  0.99825  0.72061  0.88900  1.0000
  Fe  Fe40      1.0  0.23552  0.91504  0.98359  1.0000
  C   C630      1.0  0.32010  0.93700  0.95600  1.0000
  H   H503      1.0  0.99958  0.60283  0.77479  1.0000
  H   H504      1.0  0.32108  0.98124  0.96585  1.0000
  C   C631      1.0  0.18727  0.49403  0.59236  1.0000
  C   C632      1.0  0.23190  0.97389  0.98326  1.0000
  C   C633      1.0  0.17979  0.49243  0.64425  1.0000
  C   C634      1.0  0.14841  0.81659  0.97068  1.0000
  H   H505      1.0  0.14221  0.65432  0.96041  1.0000
  C   C635      1.0  0.29052  0.66595  0.49661  1.0000
  C   C636      1.0  0.15803  0.49142  0.52019  1.0000
  C   C637      1.0  0.28992  0.98809  0.80522  1.0000
  H   H506      1.0  0.27212  0.98872  0.84604  1.0000
  H   H507      1.0  0.23566  0.49172  0.53136  1.0000
  C   C638      1.0  0.32373  0.94610  0.85180  1.0000
  P   P22       1.0  0.32162  0.96399  0.90701  1.0000
  H   H508      1.0  0.18317  0.49976  0.57082  1.0000
  Fe  Fe41      1.0  0.34877  0.09477  0.21043  1.0000
  S   S84       1.0  0.34421  0.07808  0.25417  1.0000
  H   H509      1.0  0.44735  0.21912  0.45565  1.0000
  Fe  Fe42      1.0  0.39575  0.10551  0.22467  1.0000
  S   S85       1.0  0.39411  0.08927  0.26830  1.0000
  S   S86       1.0  0.42712  0.11951  0.20691  1.0000
  Fe  Fe43      1.0  0.37665  0.06308  0.24562  1.0000
  S   S87       1.0  0.38888  0.02900  0.25360  1.0000
  Fe  Fe44      1.0  0.36208  0.10603  0.27348  1.0000
  S   S88       1.0  0.35293  0.11731  0.31947  1.0000
  S   S89       1.0  0.38055  0.07813  0.20146  1.0000
  S   S90       1.0  0.36426  0.12399  0.23041  1.0000
  Fe  Fe45      1.0  0.54888  0.08274  0.23955  1.0000
  S   S91       1.0  0.57024  0.07715  0.27806  1.0000
  S   S92       1.0  0.51398  0.07454  0.25007  1.0000
  Fe  Fe46      1.0  0.58719  0.09628  0.19981  1.0000
  S   S93       1.0  0.61093  0.09240  0.23614  1.0000
  S   S94       1.0  0.59360  0.10682  0.15241  1.0000
  Fe  Fe47      1.0  0.59300  0.06143  0.24624  1.0000
  S   S95       1.0  0.61031  0.02921  0.25299  1.0000
  Fe  Fe48      1.0  0.58582  0.10852  0.26520  1.0000
  S   S96       1.0  0.58836  0.13821  0.29445  1.0000
  S   S97       1.0  0.57058  0.06466  0.20873  1.0000
  S   S98       1.0  0.56325  0.11471  0.22778  1.0000
  Fe  Fe49      1.0  0.37374  0.20705  0.44427  1.0000
  S   S99       1.0  0.37702  0.24221  0.45605  1.0000
  S   S100      1.0  0.37743  0.19906  0.39588  1.0000
  S   S101      1.0  0.52650  0.22201  0.45636  1.0000
  H   H510      1.0  0.33671  0.14748  0.45548  1.0000
  C   C639      1.0  0.32746  0.00350  0.04923  1.0000
  C   C640      1.0  0.57767  0.99570  0.09925  1.0000
  C   C641      1.0  0.63925  0.02829  0.10169  1.0000
  Fe  Fe50      1.0  0.59850  0.18860  0.45565  1.0000
  S   S102      1.0  0.58939  0.22189  0.44015  1.0000
  S   S103      1.0  0.60619  0.15875  0.42816  1.0000
  C   C642      1.0  0.60661  0.04496  0.12137  1.0000
  C   C643      1.0  0.48229  0.21959  0.45739  1.0000
  H   H511      1.0  0.49103  0.20381  0.38285  1.0000
  H   H512      1.0  0.61412  0.00453  0.19384  1.0000
  H   H513      1.0  0.41839  0.12423  0.45151  1.0000
  C   C644      1.0  0.53482  0.01009  0.18776  1.0000
  C   C645      1.0  0.36098  0.15776  0.38769  1.0000
  C   C646      1.0  0.43988  0.20156  0.26856  1.0000
  H   H514      1.0  0.34339  0.02310  0.24007  1.0000
  C   C647      1.0  0.32910  0.07150  0.03765  1.0000
  C   C648      1.0  0.34808  0.02495  0.30966  1.0000
  H   H515      1.0  0.62519  0.05455  0.01054  1.0000
  H   H516      1.0  0.33979  0.06783  0.09624  1.0000
  H   H517      1.0  0.35995  0.00214  0.15279  1.0000
  C   C649      1.0  0.59542  0.00497  0.25466  1.0000
  H   H518      1.0  0.58376  0.02436  0.07360  1.0000
  C   C650      1.0  0.57285  0.00498  0.25343  1.0000
  H   H519      1.0  0.34742  0.99062  0.39072  1.0000
  H   H520      1.0  0.56409  0.02013  0.25177  1.0000
  C   C651      1.0  0.60050  0.15326  0.39110  1.0000
  C   C652      1.0  0.60217  0.13190  0.38127  1.0000
  C   C653      1.0  0.59837  0.12687  0.35195  1.0000
  C   C654      1.0  0.59307  0.14323  0.33192  1.0000
  C   C655      1.0  0.59152  0.16457  0.34179  1.0000
  C   C656      1.0  0.59496  0.16955  0.37116  1.0000
  H   H521      1.0  0.60654  0.11914  0.39640  1.0000
  H   H522      1.0  0.59983  0.11040  0.34480  1.0000
  H   H523      1.0  0.58771  0.17741  0.32650  1.0000
  H   H524      1.0  0.59375  0.18606  0.37823  1.0000
  C   C657      1.0  0.61729  0.10461  0.13009  1.0000
  C   C658      1.0  0.61698  0.11338  0.10169  1.0000
  H   H525      1.0  0.60270  0.12191  0.09434  1.0000
  H   H526      1.0  0.35696  0.15757  0.41056  1.0000
  C   C659      1.0  0.45166  0.10801  0.21947  1.0000
  C   C660      1.0  0.45203  0.09496  0.24442  1.0000
  C   C661      1.0  0.47139  0.08537  0.25366  1.0000
  C   C662      1.0  0.49069  0.08854  0.23810  1.0000
  C   C663      1.0  0.49058  0.10189  0.21332  1.0000
  C   C664      1.0  0.47110  0.11171  0.20416  1.0000
  H   H527      1.0  0.43745  0.09221  0.25673  1.0000
  H   H528      1.0  0.47141  0.07541  0.27302  1.0000
  H   H529      1.0  0.50538  0.10441  0.20108  1.0000
  H   H530      1.0  0.47103  0.12189  0.18488  1.0000
  C   C665      1.0  0.37338  0.00601  0.24682  1.0000
  C   C666      1.0  0.35125  0.00747  0.24137  1.0000
  C   C667      1.0  0.45873  0.18393  0.33036  1.0000
  H   H531      1.0  0.64795  0.22926  0.40683  1.0000
  C   C668      1.0  0.44234  0.17909  0.27117  1.0000
  C   C669      1.0  0.36065  0.13995  0.34039  1.0000
  C   C670      1.0  0.37105  0.15789  0.32808  1.0000
  C   C671      1.0  0.37614  0.17570  0.34541  1.0000
  C   C672      1.0  0.37108  0.17582  0.37531  1.0000
  H   H532      1.0  0.42408  0.18896  0.32901  1.0000
  C   C673      1.0  0.35572  0.14003  0.37032  1.0000
  H   H533      1.0  0.37475  0.15824  0.30509  1.0000
  H   H534      1.0  0.38373  0.18964  0.33546  1.0000
  H   H535      1.0  0.63644  0.08677  0.16095  1.0000
  H   H536      1.0  0.43719  0.00522  0.15744  1.0000
  C   C674      1.0  0.43885  0.19227  0.34033  1.0000
  C   C675      1.0  0.54012  0.02866  0.17183  1.0000
  H   H537      1.0  0.57856  0.13447  0.46856  1.0000
  H   H538      1.0  0.49272  0.18090  0.33974  1.0000
  C   C676      1.0  0.53475  0.01006  0.10143  1.0000
  H   H539      1.0  0.36393  0.11909  0.46662  1.0000
  H   H540      1.0  0.51820  0.01584  0.10272  1.0000
  C   C677      1.0  0.51711  0.12538  0.46002  1.0000
  C   C678      1.0  0.52902  0.13500  0.43722  1.0000
  C   C679      1.0  0.55130  0.13782  0.44032  1.0000
  P   P23       1.0  0.51635  0.14153  0.40314  1.0000
  C   C680      1.0  0.52056  0.11824  0.38060  1.0000
  C   C681      1.0  0.48845  0.14934  0.40926  1.0000
  C   C682      1.0  0.47260  0.14468  0.38891  1.0000
  C   C683      1.0  0.45113  0.15117  0.39351  1.0000
  C   C684      1.0  0.44543  0.16287  0.41813  1.0000
  C   C685      1.0  0.46121  0.16806  0.43818  1.0000
  C   C686      1.0  0.48267  0.16152  0.43365  1.0000
  C   C687      1.0  0.54031  0.11568  0.36567  1.0000
  C   C688      1.0  0.54346  0.09862  0.34667  1.0000
  C   C689      1.0  0.52722  0.08347  0.34317  1.0000
  C   C690      1.0  0.50805  0.08506  0.35941  1.0000
  C   C691      1.0  0.50476  0.10230  0.37828  1.0000
  C   C692      1.0  0.52884  0.16486  0.38632  1.0000
  C   C693      1.0  0.53526  0.18210  0.40337  1.0000
  C   C694      1.0  0.54484  0.20023  0.39043  1.0000
  C   C695      1.0  0.54812  0.20129  0.36045  1.0000
  C   C696      1.0  0.54159  0.18429  0.34329  1.0000
  C   C697      1.0  0.53178  0.16625  0.35606  1.0000
  H   H541      1.0  0.49068  0.05235  0.16815  1.0000
  C   C698      1.0  0.42639  0.12922  0.47102  1.0000
  C   C699      1.0  0.65018  0.19512  0.41584  1.0000
  H   H542      1.0  0.50009  0.12225  0.45767  1.0000
  H   H543      1.0  0.56096  0.14454  0.42271  1.0000
  H   H544      1.0  0.47690  0.13657  0.36913  1.0000
  H   H545      1.0  0.43898  0.14767  0.37758  1.0000
  H   H546      1.0  0.42888  0.16832  0.42137  1.0000
  H   H547      1.0  0.45681  0.17738  0.45707  1.0000
  H   H548      1.0  0.49479  0.16630  0.44896  1.0000
  H   H549      1.0  0.55322  0.12714  0.36819  1.0000
  H   H550      1.0  0.55850  0.09733  0.33448  1.0000
  H   H551      1.0  0.52963  0.07045  0.32798  1.0000
  H   H552      1.0  0.49578  0.07292  0.35723  1.0000
  H   H553      1.0  0.48995  0.10315  0.39090  1.0000
  H   H554      1.0  0.53307  0.18153  0.42671  1.0000
  H   H555      1.0  0.54999  0.21340  0.40375  1.0000
  H   H556      1.0  0.55608  0.21512  0.35064  1.0000
  H   H557      1.0  0.54477  0.18476  0.32016  1.0000
  H   H558      1.0  0.52668  0.15344  0.34213  1.0000
  C   C700      1.0  0.34463  0.05325  0.10775  1.0000
  C   C701      1.0  0.40958  0.28859  0.44747  1.0000
  H   H559      1.0  0.48450  0.21087  0.43746  1.0000
  H   H560      1.0  0.34762  0.12631  0.38010  1.0000
  C   C702      1.0  0.48485  0.02482  0.25707  1.0000
  H   H561      1.0  0.33167  0.10319  0.01821  1.0000
  P   P24       1.0  0.46959  0.01683  0.20129  1.0000
  C   C703      1.0  0.50262  0.04011  0.17322  1.0000
  C   C704      1.0  0.35595  0.01634  0.13991  1.0000
  C   C705      1.0  0.36031  0.03671  0.15065  1.0000
  C   C706      1.0  0.35468  0.05515  0.13455  1.0000
  H   H562      1.0  0.63773  0.01644  0.01343  1.0000
  C   C707      1.0  0.48234  0.03030  0.28624  1.0000
  H   H563      1.0  0.62331  0.01855  0.14176  1.0000
  C   C708      1.0  0.50058  0.22652  0.47229  1.0000
  C   C709      1.0  0.33749  0.08664  0.01787  1.0000
  H   H564      1.0  0.42239  0.21112  0.37285  1.0000
  Fe  Fe51      1.0  0.60952  0.23457  0.47710  1.0000
  C   C710      1.0  0.46122  0.22427  0.46763  1.0000
  S   S104      1.0  0.39855  0.19569  0.47643  1.0000
  H   H565      1.0  0.65418  0.16243  0.43115  1.0000
  H   H566      1.0  0.36770  0.03819  0.17171  1.0000
  H   H567      1.0  0.54749  0.99904  0.19448  1.0000
  H   H568      1.0  0.44298  0.99397  0.31552  1.0000
  C   C711      1.0  0.32764  0.11468  0.12864  1.0000
  C   C712      1.0  0.43257  0.10136  0.32779  1.0000
  C   C713      1.0  0.41007  0.29390  0.47679  1.0000
  H   H569      1.0  0.40561  0.20404  0.21140  1.0000
  C   C714      1.0  0.56136  0.13198  0.46629  1.0000
  C   C715      1.0  0.43785  0.20490  0.36517  1.0000
  H   H570      1.0  0.49517  0.19828  0.29138  1.0000
  C   C716      1.0  0.43187  0.16580  0.25162  1.0000
  H   H571      1.0  0.37878  0.00962  0.31455  1.0000
  H   H572      1.0  0.43403  0.14847  0.25276  1.0000
  H   H573      1.0  0.33367  0.23885  0.41573  1.0000
  C   C717      1.0  0.45668  0.20931  0.38025  1.0000
  H   H574      1.0  0.35823  0.02758  0.01597  1.0000
  H   H575      1.0  0.58416  0.99764  0.16069  1.0000
  C   C718      1.0  0.36046  0.05910  0.99698  1.0000
  H   H576      1.0  0.35775  0.30301  0.43283  1.0000
  H   H577      1.0  0.41589  0.15203  0.30974  1.0000
  H   H578      1.0  0.42597  0.08578  0.33375  1.0000
  H   H579      1.0  0.63926  0.19079  0.39873  1.0000
  C   C719      1.0  0.62294  0.02930  0.12310  1.0000
  H   H580      1.0  0.39042  0.28773  0.40892  1.0000
  H   H581      1.0  0.59482  0.04655  0.13881  1.0000
  C   C720      1.0  0.41858  0.17479  0.23026  1.0000
  H   H582      1.0  0.53157  0.19522  0.26914  1.0000
  H   H583      1.0  0.52835  0.05856  0.15341  1.0000
  H   H584      1.0  0.42463  0.22787  0.24527  1.0000
  H   H585      1.0  0.59377  0.07189  0.09692  1.0000
  H   H586      1.0  0.35587  0.99614  0.44202  1.0000
  C   C721      1.0  0.49227  0.14712  0.26608  1.0000
  C   C722      1.0  0.51298  0.14542  0.25388  1.0000
  C   C723      1.0  0.47646  0.20072  0.37084  1.0000
  C   C724      1.0  0.52067  0.18168  0.26877  1.0000
  H   H587      1.0  0.63432  0.11788  0.06089  1.0000
  H   H588      1.0  0.44828  0.21214  0.28296  1.0000
  H   H589      1.0  0.49641  0.03093  0.29988  1.0000
  C   C725      1.0  0.63489  0.11109  0.08262  1.0000
  C   C726      1.0  0.48615  0.16553  0.28164  1.0000
  C   C727      1.0  0.47743  0.18788  0.34618  1.0000
  C   C728      1.0  0.57171  0.01498  0.08528  1.0000
  C   C729      1.0  0.42657  0.21053  0.24716  1.0000
  H   H590      1.0  0.48061  0.12567  0.31465  1.0000
  H   H591      1.0  0.55677  0.03170  0.16573  1.0000
  C   C730      1.0  0.44933  0.14145  0.31017  1.0000
  H   H592      1.0  0.46564  0.09036  0.32814  1.0000
  C   C731      1.0  0.45486  0.10396  0.32468  1.0000
  C   C732      1.0  0.34586  0.01435  0.11312  1.0000
  C   C733      1.0  0.63592  0.09365  0.13927  1.0000
  C   C734      1.0  0.55032  0.02228  0.08659  1.0000
  C   C735      1.0  0.60597  0.05922  0.09768  1.0000
  C   C736      1.0  0.35304  0.08043  0.99741  1.0000
  P   P25       1.0  0.45964  0.16739  0.29844  1.0000
  C   C737      1.0  0.52406  0.04372  0.16471  1.0000
  C   C738      1.0  0.51337  0.00627  0.19601  1.0000
  C   C739      1.0  0.49703  0.02120  0.18864  1.0000
  C   C740      1.0  0.46326  0.12399  0.31635  1.0000
  C   C741      1.0  0.46689  0.02464  0.23879  1.0000
  C   C742      1.0  0.45049  0.03246  0.18001  1.0000
  C   C743      1.0  0.33662  0.13951  0.47656  1.0000
  C   C744      1.0  0.41867  0.11885  0.32281  1.0000
  H   H593      1.0  0.48118  0.13395  0.26337  1.0000
  C   C745      1.0  0.42698  0.13879  0.31398  1.0000
  H   H594      1.0  0.40135  0.11685  0.32514  1.0000
  H   H595      1.0  0.45634  0.11308  0.46055  1.0000
  C   C746      1.0  0.43661  0.02244  0.16053  1.0000
  C   C747      1.0  0.42137  0.03465  0.14506  1.0000
  C   C748      1.0  0.42000  0.05692  0.14866  1.0000
  C   C749      1.0  0.43380  0.06698  0.16779  1.0000
  C   C750      1.0  0.44880  0.05482  0.18367  1.0000
  C   C751      1.0  0.46191  0.03564  0.29738  1.0000
  C   C752      1.0  0.34022  0.03282  0.09668  1.0000
  H   H596      1.0  0.34132  0.12146  0.13950  1.0000
  H   H597      1.0  0.43251  0.03059  0.23630  1.0000
  C   C753      1.0  0.44402  0.03574  0.27924  1.0000
  C   C754      1.0  0.44652  0.03032  0.25008  1.0000
  H   H598      1.0  0.41055  0.16433  0.21526  1.0000
  C   C755      1.0  0.62156  0.05773  0.07562  1.0000
  C   C756      1.0  0.36165  0.00798  0.31841  1.0000
  C   C757      1.0  0.32575  0.02327  0.31318  1.0000
  C   C758      1.0  0.33638  0.04998  0.03739  1.0000
  C   C759      1.0  0.34759  0.99284  0.04818  1.0000
  C   C760      1.0  0.52730  0.16257  0.25557  1.0000
  H   H599      1.0  0.45587  0.21913  0.39946  1.0000
  C   C761      1.0  0.35224  0.04394  0.01692  1.0000
  H   H600      1.0  0.41048  0.02683  0.13046  1.0000
  H   H601      1.0  0.40812  0.06643  0.13688  1.0000
  H   H602      1.0  0.43268  0.08425  0.17059  1.0000
  H   H603      1.0  0.45905  0.06286  0.19889  1.0000
  H   H604      1.0  0.46003  0.04018  0.31983  1.0000
  C   C762      1.0  0.63807  0.04221  0.07742  1.0000
  H   H605      1.0  0.35753  0.07100  0.14324  1.0000
  H   H606      1.0  0.42816  0.04024  0.28751  1.0000
  H   H607      1.0  0.34187  0.99840  0.10595  1.0000
  H   H608      1.0  0.51792  0.13079  0.24300  1.0000
  H   H609      1.0  0.62152  0.06942  0.05793  1.0000
  C   C763      1.0  0.50011  0.18325  0.28157  1.0000
  H   H610      1.0  0.54344  0.16112  0.24627  1.0000
  C   C764      1.0  0.41587  0.19714  0.22806  1.0000
  H   H611      1.0  0.36199  0.00077  0.05550  1.0000
  H   H612      1.0  0.54582  0.03745  0.07621  1.0000
  C   C765      1.0  0.65344  0.09999  0.09174  1.0000
  Fe  Fe52      1.0  0.56146  0.21951  0.47229  1.0000
  H   H613      1.0  0.35826  0.31228  0.48462  1.0000
  H   H614      1.0  0.42375  0.28148  0.43725  1.0000
  S   S105      1.0  0.34563  0.20186  0.47516  1.0000
  C   C766      1.0  0.37274  0.30573  0.47452  1.0000
  C   C767      1.0  0.37238  0.30058  0.44511  1.0000
  C   C768      1.0  0.65385  0.09142  0.12023  1.0000
  S   S106      1.0  0.63457  0.26198  0.46692  1.0000
  H   H615      1.0  0.35493  0.03924  0.29943  1.0000
  C   C769      1.0  0.39080  0.29207  0.43156  1.0000
  H   H616      1.0  0.50091  0.02125  0.24891  1.0000
  H   H617      1.0  0.32631  0.26385  0.37447  1.0000
  H   H618      1.0  0.40821  0.99572  0.34233  1.0000
  C   C770      1.0  0.63095  0.04651  0.99127  1.0000
  C   C771      1.0  0.63803  0.02509  0.99284  1.0000
  H   H619      1.0  0.32519  0.29521  0.46008  1.0000
  C   C772      1.0  0.65384  0.28271  0.47551  1.0000
  C   C773      1.0  0.65513  0.21672  0.42032  1.0000
  C   C774      1.0  0.44777  0.12298  0.47613  1.0000
  H   H620      1.0  0.65030  0.04173  0.06042  1.0000
  H   H621      1.0  0.33161  0.13450  0.09002  1.0000
  P   P26       1.0  0.32541  0.03060  0.06327  1.0000
  H   H622      1.0  0.50964  0.99198  0.20885  1.0000
  C   C775      1.0  0.35194  0.12349  0.48283  1.0000
  S   S107      1.0  0.56993  0.18570  0.48594  1.0000
  H   H623      1.0  0.59446  0.99056  0.09867  1.0000
  C   C776      1.0  0.52720  0.11971  0.48609  1.0000
  Fe  Fe53      1.0  0.37091  0.19300  0.50848  1.0000
  S   S108      1.0  0.37367  0.22681  0.52410  1.0000
  S   S109      1.0  0.37097  0.16229  0.53658  1.0000
  Fe  Fe54      1.0  0.59031  0.20045  0.51998  1.0000
  S   S110      1.0  0.58054  0.23474  0.50784  1.0000
  S   S111      1.0  0.58565  0.19162  0.56835  1.0000
  Fe  Fe55      1.0  0.38222  0.07177  0.70919  1.0000
  S   S112      1.0  0.38403  0.07206  0.75767  1.0000
  S   S113      1.0  0.38714  0.04138  0.68327  1.0000
  Fe  Fe56      1.0  0.37754  0.12053  0.70327  1.0000
  S   S114      1.0  0.37920  0.12479  0.75192  1.0000
  S   S115      1.0  0.37351  0.15089  0.67460  1.0000
  Fe  Fe57      1.0  0.40622  0.10015  0.75031  1.0000
  S   S116      1.0  0.43495  0.10168  0.78023  1.0000
  Fe  Fe58      1.0  0.35690  0.09647  0.75618  1.0000
  H   H624      1.0  0.48058  0.32470  0.55694  1.0000
  S   S117      1.0  0.40644  0.09825  0.70178  1.0000
  S   S118      1.0  0.35322  0.09385  0.70750  1.0000
  Fe  Fe59      1.0  0.58069  0.06164  0.73660  1.0000
  S   S119      1.0  0.57841  0.08402  0.77444  1.0000
  S   S120      1.0  0.57282  0.02773  0.75283  1.0000
  Fe  Fe60      1.0  0.59207  0.09884  0.69417  1.0000
  S   S121      1.0  0.59154  0.12324  0.72965  1.0000
  S   S122      1.0  0.59900  0.10573  0.64581  1.0000
  Fe  Fe61      1.0  0.60907  0.09841  0.75754  1.0000
  S   S123      1.0  0.63856  0.10467  0.78609  1.0000
  Fe  Fe62      1.0  0.56097  0.10645  0.74400  1.0000
  S   S124      1.0  0.53272  0.12712  0.75870  1.0000
  S   S125      1.0  0.61228  0.07513  0.72058  1.0000
  S   S126      1.0  0.56057  0.08317  0.70750  1.0000
  C   C777      1.0  0.57889  0.00237  0.73752  1.0000
  H   H625      1.0  0.63697  0.01851  0.82325  1.0000
  C   C778      1.0  0.64023  0.04788  0.94014  1.0000
  H   H626      1.0  0.59301  0.01461  0.69774  1.0000
  H   H627      1.0  0.41812  0.35062  0.53634  1.0000
  C   C779      1.0  0.64259  0.10175  0.82434  1.0000
  C   C780      1.0  0.62644  0.09423  0.84334  1.0000
  H   H628      1.0  0.61653  0.08946  0.88811  1.0000
  H   H629      1.0  0.61126  0.08916  0.83464  1.0000
  C   C781      1.0  0.46145  0.10935  0.77037  1.0000
  C   C782      1.0  0.47072  0.12608  0.78573  1.0000
  C   C783      1.0  0.49246  0.13130  0.78144  1.0000
  C   C784      1.0  0.50554  0.11933  0.76256  1.0000
  C   C785      1.0  0.49648  0.10245  0.74707  1.0000
  C   C786      1.0  0.47431  0.09761  0.75073  1.0000
  H   H630      1.0  0.46100  0.13500  0.80117  1.0000
  H   H631      1.0  0.49928  0.14451  0.79317  1.0000
  H   H632      1.0  0.50651  0.09317  0.73240  1.0000
  H   H633      1.0  0.46739  0.08431  0.73931  1.0000
  C   C787      1.0  0.37334  0.01814  0.69540  1.0000
  H   H634      1.0  0.33374  0.00532  0.87895  1.0000
  C   C788      1.0  0.35690  0.01940  0.71638  1.0000
  H   H635      1.0  0.60301  0.14820  0.95293  1.0000
  H   H636      1.0  0.35243  0.03484  0.72538  1.0000
  C   C789      1.0  0.41531  0.14200  0.49107  1.0000
  C   C790      1.0  0.58951  0.16749  0.58931  1.0000
  C   C791      1.0  0.58474  0.16770  0.61927  1.0000
  C   C792      1.0  0.58772  0.14910  0.63693  1.0000
  C   C793      1.0  0.59549  0.12993  0.62482  1.0000
  C   C794      1.0  0.60007  0.12968  0.59480  1.0000
  C   C795      1.0  0.59713  0.14830  0.57714  1.0000
  H   H637      1.0  0.57881  0.18242  0.62894  1.0000
  H   H638      1.0  0.58403  0.14957  0.65990  1.0000
  H   H639      1.0  0.60602  0.11496  0.58514  1.0000
  H   H640      1.0  0.60088  0.14782  0.55418  1.0000
  C   C796      1.0  0.37228  0.15958  0.57495  1.0000
  C   C797      1.0  0.36885  0.17709  0.59321  1.0000
  C   C798      1.0  0.36950  0.17409  0.62359  1.0000
  C   C799      1.0  0.37364  0.15363  0.63611  1.0000
  C   C800      1.0  0.37717  0.13613  0.61782  1.0000
  C   C801      1.0  0.37641  0.13911  0.58742  1.0000
  H   H641      1.0  0.36555  0.19289  0.58395  1.0000
  C   C802      1.0  0.42187  0.19385  0.59778  1.0000
  H   H642      1.0  0.38023  0.12028  0.62710  1.0000
  H   H643      1.0  0.37899  0.12544  0.57350  1.0000
  C   C803      1.0  0.43618  0.09578  0.59713  1.0000
  H   H644      1.0  0.32898  0.04891  0.94981  1.0000
  H   H645      1.0  0.51795  0.11268  0.50387  1.0000
  C   C804      1.0  0.47947  0.04257  0.78342  1.0000
  H   H646      1.0  0.53770  0.13987  0.57604  1.0000
  H   H647      1.0  0.42266  0.17462  0.65963  1.0000
  C   C805      1.0  0.53257  0.16057  0.53903  1.0000
  C   C806      1.0  0.42562  0.14875  0.51609  1.0000
  C   C807      1.0  0.45703  0.17238  0.66712  1.0000
  C   C808      1.0  0.47325  0.16484  0.68590  1.0000
  C   C809      1.0  0.46724  0.15413  0.71180  1.0000
  P   P27       1.0  0.50154  0.16726  0.67603  1.0000
  C   C810      1.0  0.51174  0.14170  0.66284  1.0000
  C   C811      1.0  0.50489  0.18831  0.64876  1.0000
  C   C812      1.0  0.50272  0.18367  0.61929  1.0000
  C   C813      1.0  0.50607  0.19966  0.59803  1.0000
  C   C814      1.0  0.51126  0.22055  0.60609  1.0000
  C   C815      1.0  0.51298  0.22548  0.63543  1.0000
  C   C816      1.0  0.50978  0.20945  0.65673  1.0000
  C   C817      1.0  0.52952  0.14104  0.64358  1.0000
  C   C818      1.0  0.53811  0.12124  0.63468  1.0000
  C   C819      1.0  0.52918  0.10198  0.64495  1.0000
  C   C820      1.0  0.51154  0.10245  0.66408  1.0000
  C   C821      1.0  0.50291  0.12219  0.67309  1.0000
  C   C822      1.0  0.51739  0.17459  0.70693  1.0000
  C   C823      1.0  0.50781  0.18525  0.73056  1.0000
  C   C824      1.0  0.52035  0.19130  0.75403  1.0000
  C   C825      1.0  0.54257  0.18715  0.75383  1.0000
  C   C826      1.0  0.55228  0.17700  0.73012  1.0000
  C   C827      1.0  0.53977  0.17069  0.70680  1.0000
  C   C828      1.0  0.63212  0.05789  0.96496  1.0000
  H   H648      1.0  0.46106  0.18063  0.64695  1.0000
  H   H649      1.0  0.47942  0.14794  0.72643  1.0000
  H   H650      1.0  0.49882  0.16761  0.61278  1.0000
  H   H651      1.0  0.50501  0.19581  0.57526  1.0000
  H   H652      1.0  0.51419  0.23284  0.58955  1.0000
  H   H653      1.0  0.33596  0.99082  0.79230  1.0000
  H   H654      1.0  0.51137  0.21357  0.67930  1.0000
  H   H655      1.0  0.53723  0.15574  0.63607  1.0000
  H   H656      1.0  0.55216  0.12075  0.62047  1.0000
  H   H657      1.0  0.53637  0.08672  0.63869  1.0000
  H   H658      1.0  0.50494  0.08751  0.67264  1.0000
  H   H659      1.0  0.48974  0.12197  0.68864  1.0000
  H   H660      1.0  0.49070  0.18892  0.73098  1.0000
  H   H661      1.0  0.51282  0.19908  0.77247  1.0000
  H   H662      1.0  0.55225  0.19161  0.77214  1.0000
  H   H663      1.0  0.56947  0.17356  0.73000  1.0000
  H   H664      1.0  0.54767  0.16265  0.68888  1.0000
  H   H665      1.0  0.40845  0.19354  0.61300  1.0000
  C   C829      1.0  0.60052  0.00139  0.87571  1.0000
  C   C830      1.0  0.52145  0.99420  0.70490  1.0000
  H   H666      1.0  0.38569  0.03451  0.81552  1.0000
  C   C831      1.0  0.50379  0.14281  0.56598  1.0000
  H   H667      1.0  0.59191  0.01354  0.88846  1.0000
  C   C832      1.0  0.44821  0.17480  0.56773  1.0000
  C   C833      1.0  0.47757  0.02137  0.77389  1.0000
  C   C834      1.0  0.58880  0.00034  0.71027  1.0000
  C   C835      1.0  0.44256  0.11037  0.57525  1.0000
  H   H668      1.0  0.53395  0.04773  0.77749  1.0000
  H   H669      1.0  0.33796  0.35989  0.57233  1.0000
  C   C836      1.0  0.36235  0.01081  0.80357  1.0000
  C   C837      1.0  0.62940  0.00457  0.83387  1.0000
  H   H670      1.0  0.43563  0.08863  0.64305  1.0000
  C   C838      1.0  0.59216  0.01185  0.82754  1.0000
  H   H671      1.0  0.46517  0.05180  0.78952  1.0000
  H   H672      1.0  0.46918  0.19595  0.54222  1.0000
  H   H673      1.0  0.54441  0.00269  0.67119  1.0000
  H   H674      1.0  0.46393  0.00948  0.71672  1.0000
  C   C839      1.0  0.32551  0.01526  0.96109  1.0000
  H   H675      1.0  0.46648  0.28755  0.55340  1.0000
  C   C840      1.0  0.33129  0.04011  0.82357  1.0000
  C   C841      1.0  0.48837  0.15268  0.54787  1.0000
  H   H676      1.0  0.42283  0.22851  0.59545  1.0000
  H   H677      1.0  0.51712  0.24167  0.64166  1.0000
  C   C842      1.0  0.43005  0.21357  0.58805  1.0000
  H   H678      1.0  0.51146  0.24363  0.50942  1.0000
  H   H679      1.0  0.64203  0.05742  0.92045  1.0000
  H   H680      1.0  0.43803  0.10727  0.55315  1.0000
  H   H681      1.0  0.47854  0.17248  0.88849  1.0000
  C   C843      1.0  0.63476  0.02266  0.73967  1.0000
  C   C844      1.0  0.51746  0.16949  0.51993  1.0000
  C   C845      1.0  0.43524  0.16910  0.67417  1.0000
  S   S127      1.0  0.32683  0.09223  0.78552  1.0000
  C   C846      1.0  0.34598  0.00067  0.72542  1.0000
  C   C847      1.0  0.45619  0.99424  0.72157  1.0000
  C   C848      1.0  0.45398  0.12902  0.58221  1.0000
  H   H682      1.0  0.42703  0.08163  0.59179  1.0000
  H   H683      1.0  0.42340  0.15953  0.59463  1.0000
  H   H684      1.0  0.45622  0.35610  0.54845  1.0000
  C   C849      1.0  0.63632  0.00702  0.76166  1.0000
  H   H685      1.0  0.37433  0.99981  0.79471  1.0000
  H   H686      1.0  0.35365  0.28485  0.52367  1.0000
  C   C850      1.0  0.34042  0.00581  0.80208  1.0000
  C   C851      1.0  0.35321  0.04493  0.82538  1.0000
  H   H687      1.0  0.61925  0.02999  0.73499  1.0000
  C   C852      1.0  0.52579  0.14693  0.56165  1.0000
  C   C853      1.0  0.47648  0.24318  0.50776  1.0000
  H   H688      1.0  0.50793  0.17588  0.92413  1.0000
  C   C854      1.0  0.43499  0.99111  0.71253  1.0000
  H   H689      1.0  0.54960  0.16414  0.53632  1.0000
  C   C855      1.0  0.39169  0.30264  0.49061  1.0000
  C   C856      1.0  0.49539  0.14842  0.86352  1.0000
  C   C857      1.0  0.49314  0.16283  0.88633  1.0000
  C   C858      1.0  0.50970  0.16472  0.90639  1.0000
  C   C859      1.0  0.52853  0.15220  0.90371  1.0000
  C   C860      1.0  0.53092  0.13762  0.88087  1.0000
  C   C861      1.0  0.51418  0.13591  0.86073  1.0000
  P   P28       1.0  0.55509  0.12119  0.87683  1.0000
  C   C862      1.0  0.56992  0.11883  0.91038  1.0000
  C   C863      1.0  0.54644  0.09475  0.86621  1.0000
  C   C864      1.0  0.55840  0.08295  0.84579  1.0000
  C   C865      1.0  0.55135  0.06271  0.83715  1.0000
  C   C866      1.0  0.53247  0.05400  0.84913  1.0000
  C   C867      1.0  0.52063  0.06549  0.86985  1.0000
  C   C868      1.0  0.52762  0.08575  0.87848  1.0000
  C   C869      1.0  0.58084  0.13673  0.92109  1.0000
  C   C870      1.0  0.59396  0.13455  0.94543  1.0000
  H   H690      1.0  0.62176  0.00225  0.77321  1.0000
  C   C871      1.0  0.58494  0.09678  0.94946  1.0000
  C   C872      1.0  0.57198  0.09883  0.92494  1.0000
  C   C873      1.0  0.57202  0.13296  0.84852  1.0000
  C   C874      1.0  0.56312  0.13871  0.82161  1.0000
  C   C875      1.0  0.57625  0.14677  0.79913  1.0000
  C   C876      1.0  0.59836  0.14920  0.80322  1.0000
  C   C877      1.0  0.60734  0.14376  0.82994  1.0000
  C   C878      1.0  0.59433  0.13549  0.85239  1.0000
  H   H691      1.0  0.48253  0.14684  0.84798  1.0000
  H   H692      1.0  0.62772  0.07483  0.96397  1.0000
  H   H693      1.0  0.65169  0.04085  0.70654  1.0000
  H   H694      1.0  0.54095  0.15389  0.91968  1.0000
  H   H695      1.0  0.51546  0.12474  0.84293  1.0000
  H   H696      1.0  0.57303  0.08952  0.83633  1.0000
  H   H697      1.0  0.56036  0.05387  0.82082  1.0000
  H   H698      1.0  0.52694  0.03840  0.84217  1.0000
  H   H699      1.0  0.50593  0.05879  0.87903  1.0000
  H   H700      1.0  0.51826  0.09447  0.89455  1.0000
  H   H701      1.0  0.57994  0.15221  0.90991  1.0000
  H   H702      1.0  0.36659  0.18770  0.63754  1.0000
  H   H703      1.0  0.45319  0.22936  0.56017  1.0000
  C   C879      1.0  0.46375  0.32221  0.55193  1.0000
  H   H704      1.0  0.56407  0.08464  0.91716  1.0000
  H   H705      1.0  0.54618  0.13645  0.81749  1.0000
  H   H706      1.0  0.56933  0.15052  0.77822  1.0000
  H   H707      1.0  0.60866  0.15471  0.78547  1.0000
  H   H708      1.0  0.62462  0.14510  0.83287  1.0000
  H   H709      1.0  0.60211  0.13048  0.87223  1.0000
  H   H710      1.0  0.33553  0.04215  0.89757  1.0000
  C   C880      1.0  0.43417  0.29804  0.54326  1.0000
  C   C881      1.0  0.64615  0.01500  0.96802  1.0000
  P   P29       1.0  0.39257  0.31114  0.52798  1.0000
  C   C882      1.0  0.38038  0.29124  0.55201  1.0000
  C   C883      1.0  0.37682  0.33577  0.53053  1.0000
  C   C884      1.0  0.36231  0.33902  0.55377  1.0000
  C   C885      1.0  0.34942  0.35765  0.55465  1.0000
  C   C886      1.0  0.35099  0.37321  0.53249  1.0000
  C   C887      1.0  0.36559  0.37025  0.50951  1.0000
  C   C888      1.0  0.37848  0.35162  0.50851  1.0000
  C   C889      1.0  0.36102  0.28139  0.54439  1.0000
  C   C890      1.0  0.35075  0.26708  0.56373  1.0000
  H   H711      1.0  0.32992  0.18036  0.54587  1.0000
  C   C891      1.0  0.37898  0.27216  0.59856  1.0000
  C   C892      1.0  0.38907  0.28681  0.57953  1.0000
  C   C893      1.0  0.51821  0.04031  0.77672  1.0000
  C   C894      1.0  0.64901  0.10157  0.88549  1.0000
  H   H712      1.0  0.42834  0.28170  0.54152  1.0000
  C   C895      1.0  0.42836  0.33668  0.54019  1.0000
  H   H713      1.0  0.57967  0.01508  0.81183  1.0000
  H   H714      1.0  0.34024  0.13307  0.87488  1.0000
  C   C896      1.0  0.32955  0.12220  0.86408  1.0000
  H   H715      1.0  0.33297  0.00191  0.74108  1.0000
  S   S128      1.0  0.43199  0.24458  0.50479  1.0000
  H   H716      1.0  0.34076  0.38750  0.53302  1.0000
  C   C897      1.0  0.45806  0.12953  0.50130  1.0000
  H   H717      1.0  0.50123  0.06861  0.79168  1.0000
  H   H718      1.0  0.40348  0.29479  0.58657  1.0000
  C   C898      1.0  0.33685  0.11953  0.53139  1.0000
  H   H719      1.0  0.51757  0.01086  0.70941  1.0000
  C   C899      1.0  0.42949  0.15848  0.70002  1.0000
  H   H720      1.0  0.35804  0.06051  0.83330  1.0000
  H   H721      1.0  0.47447  0.12420  0.50525  1.0000
  C   C900      1.0  0.45898  0.13267  0.61134  1.0000
  C   C901      1.0  0.49599  0.00969  0.76486  1.0000
  H   H722      1.0  0.55719  0.11882  0.50941  1.0000
  C   C902      1.0  0.45001  0.33989  0.54709  1.0000
  H   H723      1.0  0.58676  0.08126  0.96028  1.0000
  C   C903      1.0  0.51636  0.01908  0.76734  1.0000
  C   C904      1.0  0.44711  0.14270  0.52128  1.0000
  C   C905      1.0  0.42025  0.31569  0.53822  1.0000
  H   H724      1.0  0.35198  0.25093  0.60534  1.0000
  P   P30       1.0  0.45970  0.14959  0.55490  1.0000
  H   H725      1.0  0.52276  0.17989  0.50211  1.0000
  C   C906      1.0  0.44546  0.15103  0.71883  1.0000
  H   H726      1.0  0.45576  0.12136  0.65569  1.0000
  Fe  Fe63      1.0  0.35011  0.23658  0.48878  1.0000
  C   C907      1.0  0.36875  0.03035  0.81521  1.0000
  H   H727      1.0  0.53081  0.01011  0.76152  1.0000
  H   H728      1.0  0.46729  0.14712  0.61727  1.0000
  H   H729      1.0  0.59804  0.04872  0.83840  1.0000
  C   C908      1.0  0.63716  0.00987  0.88346  1.0000
  C   C909      1.0  0.45246  0.11813  0.63316  1.0000
  H   H730      1.0  0.47438  0.25280  0.52690  1.0000
  H   H731      1.0  0.38589  0.26862  0.61958  1.0000
  H   H732      1.0  0.34976  0.12035  0.82541  1.0000
  C   C910      1.0  0.49978  0.05208  0.78465  1.0000
  H   H733      1.0  0.49898  0.13234  0.58386  1.0000
  C   C911      1.0  0.49549  0.16531  0.52406  1.0000
  C   C912      1.0  0.43065  0.17455  0.58744  1.0000
  H   H734      1.0  0.41671  0.15854  0.53145  1.0000
  H   H735      1.0  0.39865  0.14671  0.48737  1.0000
  H   H736      1.0  0.42637  0.00392  0.70109  1.0000
  H   H737      1.0  0.36063  0.32711  0.57105  1.0000
  C   C913      1.0  0.62384  0.03189  0.86968  1.0000
  H   H738      1.0  0.41262  0.15592  0.70551  1.0000
  H   H739      1.0  0.44088  0.14267  0.73877  1.0000
  C   C914      1.0  0.44721  0.21403  0.56819  1.0000
  C   C915      1.0  0.44103  0.09971  0.62606  1.0000
  H   H740      1.0  0.62904  0.04742  0.87700  1.0000
  C   C916      1.0  0.45624  0.19481  0.55799  1.0000
  C   C917      1.0  0.45581  0.30129  0.55002  1.0000
  H   H741      1.0  0.46170  0.01426  0.77345  1.0000
  C   C918      1.0  0.62954  0.09438  0.87367  1.0000
  C   C919      1.0  0.35204  0.11350  0.51022  1.0000
  H   H742      1.0  0.33773  0.11201  0.55261  1.0000
  H   H743      1.0  0.48405  0.17243  0.50901  1.0000
  H   H744      1.0  0.33578  0.25959  0.55769  1.0000
  C   C920      1.0  0.33220  0.00766  0.90209  1.0000
  H   H745      1.0  0.36427  0.10149  0.51535  1.0000
  H   H746      1.0  0.35923  0.09218  0.98182  1.0000
  H   H747      1.0  0.63295  0.24342  0.55258  1.0000
  H   H748      1.0  0.39131  0.99703  0.66710  1.0000
  H   H749      1.0  0.62754  0.20973  0.58141  1.0000
  C   C921      1.0  0.60373  0.03278  0.84463  1.0000
  C   C922      1.0  0.64357  0.22966  0.54922  1.0000
  C   C923      1.0  0.64043  0.21065  0.56531  1.0000
  C   C924      1.0  0.45819  0.23646  0.49261  1.0000
  C   C925      1.0  0.33295  0.02869  0.91251  1.0000
  C   C926      1.0  0.59609  0.11457  0.95954  1.0000
  C   C927      1.0  0.35985  0.26226  0.59063  1.0000
  C   C928      1.0  0.37877  0.99805  0.68358  1.0000
  C   C929      1.0  0.32936  0.03251  0.94195  1.0000
  S   S129      1.0  0.65092  0.10389  0.92397  1.0000
  H   H750      1.0  0.64730  0.28323  0.52141  1.0000
  C   C930      1.0  0.64708  0.02624  0.94127  1.0000
  C   C931      1.0  0.65304  0.02867  0.72357  1.0000
  C   C932      1.0  0.33501  0.11503  0.83596  1.0000
  C   C933      1.0  0.54931  0.12310  0.48925  1.0000
  H   H751      1.0  0.36671  0.38228  0.49226  1.0000
  H   H752      1.0  0.32629  0.16180  0.65033  1.0000
  H   H753      1.0  0.38955  0.34944  0.49038  1.0000
  H   H754      1.0  0.60673  0.11284  0.97793  1.0000
  C   C934      1.0  0.49756  0.23797  0.49793  1.0000
  C   C935      1.0  0.65328  0.19250  0.55973  1.0000
  H   H755      1.0  0.65222  0.99872  0.97028  1.0000
  C   C936      1.0  0.65641  0.99764  0.76826  1.0000
  H   H756      1.0  0.65015  0.17753  0.57144  1.0000
  C   C937      1.0  0.32505  0.99418  0.95081  1.0000
  H   H757      1.0  0.42487  0.29098  0.48837  1.0000
  Fe  Fe64      1.0  0.40017  0.23001  0.49025  1.0000
  S   S130      1.0  0.62009  0.20085  0.49106  1.0000
  H   H758      1.0  0.37252  0.05430  0.98105  1.0000
  H   H759      1.0  0.32799  0.12398  0.66746  1.0000
  C   C938      1.0  0.65696  0.28994  0.50385  1.0000
  Fe  Fe65      1.0  0.39518  0.89109  0.23008  1.0000
  S   S131      1.0  0.37509  0.89966  0.26946  1.0000
  S   S132      1.0  0.42974  0.90231  0.23523  1.0000
  Fe  Fe66      1.0  0.35586  0.87473  0.19712  1.0000
  H   H760      1.0  0.62312  0.87777  0.37354  1.0000
  H   H761      1.0  0.58408  0.96021  0.06950  1.0000
  Fe  Fe67      1.0  0.35180  0.91321  0.23686  1.0000
  H   H762      1.0  0.54412  0.98558  0.25498  1.0000
  Fe  Fe68      1.0  0.35889  0.86779  0.26387  1.0000
  S   S133      1.0  0.34719  0.84280  0.29788  1.0000
  S   S134      1.0  0.37261  0.90675  0.19781  1.0000
  S   S135      1.0  0.38047  0.85823  0.22629  1.0000
  Fe  Fe69      1.0  0.56994  0.90910  0.24457  1.0000
  S   S136      1.0  0.56583  0.90270  0.19726  1.0000
  S   S137      1.0  0.55794  0.94145  0.26126  1.0000
  Fe  Fe70      1.0  0.58364  0.86222  0.25831  1.0000
  S   S138      1.0  0.58076  0.85297  0.21133  1.0000
  S   S139      1.0  0.59332  0.83388  0.28820  1.0000
  Fe  Fe71      1.0  0.59727  0.88420  0.19989  1.0000
  S   S140      1.0  0.62576  0.89201  0.16896  1.0000
  Fe  Fe72      1.0  0.54970  0.87225  0.21259  1.0000
  S   S141      1.0  0.51855  0.85959  0.19416  1.0000
  S   S142      1.0  0.60232  0.89244  0.24694  1.0000
  S   S143      1.0  0.55171  0.87962  0.25980  1.0000
  Fe  Fe73      1.0  0.58849  0.78294  0.45726  1.0000
  S   S144      1.0  0.57647  0.74854  0.45972  1.0000
  S   S145      1.0  0.58437  0.81040  0.42354  1.0000
  Fe  Fe74      1.0  0.36555  0.79190  0.46124  1.0000
  S   S146      1.0  0.36866  0.75705  0.44900  1.0000
  S   S147      1.0  0.36824  0.82187  0.43123  1.0000
  C   C939      1.0  0.36633  0.69677  0.46742  1.0000
  C   C940      1.0  0.33380  0.88944  0.11584  1.0000
  C   C941      1.0  0.64895  0.67029  0.48383  1.0000
  C   C942      1.0  0.37644  0.97194  0.38162  1.0000
  C   C943      1.0  0.35136  0.69489  0.44524  1.0000
  H   H763      1.0  0.41270  0.76098  0.22963  1.0000
  C   C944      1.0  0.58980  0.82738  0.32575  1.0000
  C   C945      1.0  0.57938  0.84129  0.34511  1.0000
  C   C946      1.0  0.57780  0.83565  0.37484  1.0000
  C   C947      1.0  0.58612  0.81591  0.38555  1.0000
  C   C948      1.0  0.59617  0.80182  0.36609  1.0000
  C   C949      1.0  0.59806  0.80760  0.33642  1.0000
  H   H764      1.0  0.57274  0.85645  0.33731  1.0000
  H   H765      1.0  0.57028  0.84675  0.38979  1.0000
  H   H766      1.0  0.60279  0.78667  0.37397  1.0000
  H   H767      1.0  0.60613  0.79671  0.32165  1.0000
  C   C950      1.0  0.63422  0.88287  0.13405  1.0000
  C   C951      1.0  0.40782  0.83747  0.29403  1.0000
  H   H768      1.0  0.61194  0.85662  0.13170  1.0000
  C   C952      1.0  0.40042  0.94944  0.30525  1.0000
  C   C953      1.0  0.59531  0.96553  0.25746  1.0000
  C   C954      1.0  0.57276  0.96557  0.25696  1.0000
  C   C955      1.0  0.43711  0.86260  0.28688  1.0000
  H   H769      1.0  0.60408  0.95039  0.25898  1.0000
  C   C956      1.0  0.35300  0.98922  0.33121  1.0000
  C   C957      1.0  0.49378  0.87074  0.20661  1.0000
  C   C958      1.0  0.47418  0.86306  0.19592  1.0000
  C   C959      1.0  0.45430  0.87228  0.20473  1.0000
  C   C960      1.0  0.45396  0.88936  0.22416  1.0000
  C   C961      1.0  0.47352  0.89683  0.23509  1.0000
  C   C962      1.0  0.49332  0.88743  0.22659  1.0000
  H   H770      1.0  0.47442  0.85010  0.18049  1.0000
  H   H771      1.0  0.43931  0.86638  0.19625  1.0000
  H   H772      1.0  0.47340  0.91005  0.25010  1.0000
  H   H773      1.0  0.50827  0.89351  0.23493  1.0000
  C   C963      1.0  0.36253  0.82703  0.39394  1.0000
  C   C964      1.0  0.37146  0.84537  0.38011  1.0000
  C   C965      1.0  0.36711  0.85038  0.35075  1.0000
  C   C966      1.0  0.35352  0.83723  0.33490  1.0000
  H   H774      1.0  0.64451  0.66641  0.40546  1.0000
  C   C967      1.0  0.37144  0.76797  0.35196  1.0000
  H   H775      1.0  0.38177  0.85579  0.39224  1.0000
  H   H776      1.0  0.37404  0.86452  0.34049  1.0000
  H   H777      1.0  0.36902  0.92785  0.38065  1.0000
  H   H778      1.0  0.37125  0.95781  0.17681  1.0000
  S   S148      1.0  0.33335  0.94476  0.23950  1.0000
  C   C968      1.0  0.65083  0.86113  0.22605  1.0000
  C   C969      1.0  0.34908  0.96820  0.24118  1.0000
  C   C970      1.0  0.37134  0.96680  0.24547  1.0000
  P   P31       1.0  0.37042  0.96751  0.34396  1.0000
  H   H779      1.0  0.37917  0.95116  0.24703  1.0000
  H   H780      1.0  0.64747  0.93012  0.32074  1.0000
  H   H781      1.0  0.38702  0.94797  0.12893  1.0000
  C   C971      1.0  0.33393  0.95099  0.11065  1.0000
  H   H782      1.0  0.39185  0.83405  0.30239  1.0000
  C   C972      1.0  0.32742  0.86957  0.12774  1.0000
  H   H783      1.0  0.64640  0.57144  0.31256  1.0000
  H   H784      1.0  0.64613  0.62714  0.39850  1.0000
  C   C973      1.0  0.37950  0.70172  0.40948  1.0000
  C   C974      1.0  0.36541  0.76209  0.32411  1.0000
  C   C975      1.0  0.65262  0.98418  0.09214  1.0000
  P   P32       1.0  0.56996  0.95816  0.13163  1.0000
  C   C976      1.0  0.57854  0.93799  0.10570  1.0000
  H   H785      1.0  0.44388  0.92991  0.18598  1.0000
  C   C977      1.0  0.60507  0.94671  0.16605  1.0000
  C   C978      1.0  0.49462  0.74255  0.47509  1.0000
  C   C979      1.0  0.56206  0.98313  0.11379  1.0000
  H   H786      1.0  0.38768  0.84619  0.48357  1.0000
  C   C980      1.0  0.54053  0.99049  0.11484  1.0000
  C   C981      1.0  0.57920  0.91613  0.11415  1.0000
  C   C982      1.0  0.58612  0.90041  0.09469  1.0000
  C   C983      1.0  0.59264  0.90628  0.06661  1.0000
  C   C984      1.0  0.59165  0.92789  0.05772  1.0000
  C   C985      1.0  0.58459  0.94369  0.07710  1.0000
  C   C986      1.0  0.54734  0.94767  0.15236  1.0000
  C   C987      1.0  0.53212  0.93459  0.13900  1.0000
  C   C988      1.0  0.51458  0.92644  0.15495  1.0000
  C   C989      1.0  0.51173  0.93186  0.18402  1.0000
  C   C990      1.0  0.52657  0.94514  0.19732  1.0000
  C   C991      1.0  0.54450  0.95279  0.18172  1.0000
  H   H787      1.0  0.63956  0.92703  0.06401  1.0000
  H   H788      1.0  0.52454  0.94893  0.22006  1.0000
  P   P33       1.0  0.40726  0.79606  0.27178  1.0000
  H   H789      1.0  0.36296  0.76154  0.37087  1.0000
  C   C992      1.0  0.64443  0.57466  0.33548  1.0000
  H   H790      1.0  0.60251  0.93038  0.15934  1.0000
  H   H791      1.0  0.63226  0.93752  0.19219  1.0000
  C   C993      1.0  0.47142  0.97665  0.17499  1.0000
  H   H792      1.0  0.34619  0.89854  0.12633  1.0000
  C   C994      1.0  0.41937  0.82176  0.27863  1.0000
  H   H793      1.0  0.57450  0.91112  0.13588  1.0000
  H   H794      1.0  0.58664  0.88362  0.10153  1.0000
  H   H795      1.0  0.59853  0.89404  0.05183  1.0000
  H   H796      1.0  0.59667  0.93240  0.03587  1.0000
  H   H797      1.0  0.40048  0.98445  0.25286  1.0000
  H   H798      1.0  0.53396  0.93037  0.11640  1.0000
  H   H799      1.0  0.41158  0.80278  0.33423  1.0000
  H   H800      1.0  0.49812  0.92561  0.19634  1.0000
  C   C995      1.0  0.65183  0.95853  0.05288  1.0000
  C   C996      1.0  0.42830  0.77630  0.26557  1.0000
  C   C997      1.0  0.62482  0.86525  0.12069  1.0000
  C   C998      1.0  0.44023  0.95830  0.21188  1.0000
  C   C999      1.0  0.35925  0.92555  0.36174  1.0000
  S   S149      1.0  0.34001  0.85794  0.15900  1.0000
  H   H801      1.0  0.35225  0.75103  0.32130  1.0000
  H   H802      1.0  0.41667  0.80053  0.20960  1.0000
  C   C1000     1.0  0.35659  0.94211  0.34089  1.0000
  C   C1001     1.0  0.34456  0.81894  0.34875  1.0000
  C   C1002     1.0  0.35495  0.80866  0.22047  1.0000
  C   C1003     1.0  0.60728  0.89296  0.32026  1.0000
  C   C1004     1.0  0.58957  0.90706  0.31914  1.0000
  C   C1005     1.0  0.59273  0.92932  0.31936  1.0000
  C   C1006     1.0  0.36793  0.80422  0.24448  1.0000
  H   H803      1.0  0.35146  0.89279  0.37421  1.0000
  C   C1007     1.0  0.34415  0.93825  0.31633  1.0000
  C   C1008     1.0  0.32669  0.72339  0.38189  1.0000
  H   H804      1.0  0.47116  0.94631  0.15284  1.0000
  C   C1009     1.0  0.33910  0.98856  0.23891  1.0000
  H   H805      1.0  0.61601  0.95480  0.31940  1.0000
  C   C1010     1.0  0.46142  0.74582  0.25667  1.0000
  C   C1011     1.0  0.34903  0.81385  0.37805  1.0000
  C   C1012     1.0  0.65117  0.89365  0.11944  1.0000
  H   H806      1.0  0.46414  0.85116  0.26144  1.0000
  C   C1013     1.0  0.38791  0.70106  0.46068  1.0000
  C   C1014     1.0  0.39450  0.70348  0.43173  1.0000
  C   C1015     1.0  0.45518  0.74714  0.47973  1.0000
  H   H807      1.0  0.60468  0.87576  0.31910  1.0000
  H   H808      1.0  0.57346  0.90073  0.31709  1.0000
  H   H809      1.0  0.57901  0.94027  0.31784  1.0000
  H   H810      1.0  0.34193  0.79984  0.38841  1.0000
  H   H811      1.0  0.62998  0.93666  0.11448  1.0000
  C   C1016     1.0  0.39570  0.96658  0.32385  1.0000
  C   C1017     1.0  0.59162  0.96355  0.15632  1.0000
  P   P34       1.0  0.33766  0.69661  0.38793  1.0000
  H   H812      1.0  0.65619  0.95424  0.03082  1.0000
  H   H813      1.0  0.36308  0.94333  0.08680  1.0000
  H   H814      1.0  0.44378  0.87852  0.28953  1.0000
  C   C1018     1.0  0.44476  0.84989  0.35964  1.0000
  C   C1019     1.0  0.43531  0.83075  0.36962  1.0000
  C   C1020     1.0  0.44732  0.81156  0.36966  1.0000
  C   C1021     1.0  0.46881  0.81152  0.35994  1.0000
  C   C1022     1.0  0.47866  0.83084  0.35083  1.0000
  C   C1023     1.0  0.46632  0.84996  0.35016  1.0000
  P   P35       1.0  0.50698  0.83090  0.34069  1.0000
  C   C1024     1.0  0.51771  0.85761  0.34541  1.0000
  C   C1025     1.0  0.52072  0.81165  0.36410  1.0000
  C   C1026     1.0  0.51498  0.81013  0.39367  1.0000
  C   C1027     1.0  0.52473  0.79464  0.41169  1.0000
  C   C1028     1.0  0.54024  0.78053  0.40034  1.0000
  C   C1029     1.0  0.54609  0.78193  0.37103  1.0000
  C   C1030     1.0  0.53650  0.79750  0.35297  1.0000
  C   C1031     1.0  0.52794  0.86314  0.37118  1.0000
  C   C1032     1.0  0.53642  0.88378  0.37435  1.0000
  C   C1033     1.0  0.53459  0.89910  0.35193  1.0000
  C   C1034     1.0  0.52431  0.89379  0.32628  1.0000
  C   C1035     1.0  0.51585  0.87317  0.32301  1.0000
  C   C1036     1.0  0.51092  0.82393  0.30312  1.0000
  C   C1037     1.0  0.49432  0.81465  0.28728  1.0000
  C   C1038     1.0  0.49746  0.81013  0.25786  1.0000
  C   C1039     1.0  0.51715  0.81485  0.24417  1.0000
  C   C1040     1.0  0.53386  0.82370  0.25997  1.0000
  C   C1041     1.0  0.53078  0.82828  0.28928  1.0000
  H   H815      1.0  0.43534  0.86470  0.35936  1.0000
  H   H816      1.0  0.41866  0.83078  0.37732  1.0000
  H   H817      1.0  0.44003  0.79674  0.37762  1.0000
  H   H818      1.0  0.47789  0.79650  0.36030  1.0000
  H   H819      1.0  0.47332  0.86499  0.34267  1.0000
  H   H820      1.0  0.50296  0.82093  0.40286  1.0000
  H   H821      1.0  0.52049  0.79365  0.43456  1.0000
  H   H822      1.0  0.54810  0.76883  0.41445  1.0000
  H   H823      1.0  0.55855  0.77133  0.36250  1.0000
  H   H824      1.0  0.54167  0.79843  0.33051  1.0000
  H   H825      1.0  0.52977  0.85152  0.38873  1.0000
  H   H826      1.0  0.54465  0.88778  0.39411  1.0000
  H   H827      1.0  0.54135  0.91502  0.35427  1.0000
  H   H828      1.0  0.52318  0.90558  0.30868  1.0000
  H   H829      1.0  0.50804  0.86934  0.30285  1.0000
  H   H830      1.0  0.47891  0.81120  0.29745  1.0000
  H   H831      1.0  0.48463  0.80322  0.24543  1.0000
  H   H832      1.0  0.51945  0.81197  0.22119  1.0000
  H   H833      1.0  0.54917  0.82728  0.24940  1.0000
  H   H834      1.0  0.54390  0.83534  0.30108  1.0000
  C   C1042     1.0  0.61364  0.93750  0.32025  1.0000
  C   C1043     1.0  0.37622  0.77064  0.29979  1.0000
  C   C1044     1.0  0.34936  0.90559  0.35817  1.0000
  H   H835      1.0  0.38501  0.70411  0.38741  1.0000
  C   C1045     1.0  0.36285  0.70118  0.33775  1.0000
  C   C1046     1.0  0.39018  0.80043  0.24076  1.0000
  C   C1047     1.0  0.44912  0.94632  0.18922  1.0000
  C   C1048     1.0  0.62831  0.90102  0.32171  1.0000
  C   C1049     1.0  0.40005  0.96632  0.42286  1.0000
  Fe  Fe75      1.0  0.39599  0.75524  0.48117  1.0000
  C   C1050     1.0  0.35773  0.69742  0.41608  1.0000
  C   C1051     1.0  0.36693  0.98695  0.42851  1.0000
  C   C1052     1.0  0.35628  0.94815  0.10747  1.0000
  C   C1053     1.0  0.39938  0.80212  0.21282  1.0000
  H   H836      1.0  0.33790  0.81220  0.22354  1.0000
  H   H837      1.0  0.47431  0.73417  0.25307  1.0000
  C   C1054     1.0  0.44335  0.74614  0.23882  1.0000
  H   H838      1.0  0.36587  0.71737  0.34497  1.0000
  C   C1055     1.0  0.43950  0.82702  0.26626  1.0000
  H   H839      1.0  0.62471  0.84509  0.08288  1.0000
  H   H840      1.0  0.33199  0.96258  0.18256  1.0000
  C   C1056     1.0  0.63931  0.58308  0.39456  1.0000
  C   C1057     1.0  0.61183  0.98847  0.18546  1.0000
  H   H841      1.0  0.33628  0.65514  0.35714  1.0000
  H   H842      1.0  0.64965  0.85670  0.20346  1.0000
  H   H843      1.0  0.44220  0.73468  0.22143  1.0000
  H   H844      1.0  0.61828  0.84803  0.40902  1.0000
  C   C1058     1.0  0.36219  0.98380  0.39931  1.0000
  C   C1059     1.0  0.64899  0.86961  0.07827  1.0000
  H   H845      1.0  0.45092  0.96358  0.28262  1.0000
  C   C1060     1.0  0.41662  0.85784  0.29809  1.0000
  C   C1061     1.0  0.32611  0.73825  0.40445  1.0000
  C   C1062     1.0  0.38339  0.98565  0.24860  1.0000
  P   P36       1.0  0.65087  0.88241  0.32137  1.0000
  H   H846      1.0  0.33757  0.65432  0.41706  1.0000
  H   H847      1.0  0.62396  0.98505  0.25828  1.0000
  H   H848      1.0  0.37616  0.66784  0.28228  1.0000
  S   S150      1.0  0.42884  0.74087  0.46700  1.0000
  H   H849      1.0  0.40644  0.95368  0.38052  1.0000
  C   C1063     1.0  0.33863  0.95885  0.16139  1.0000
  H   H850      1.0  0.35412  0.81376  0.17419  1.0000
  H   H851      1.0  0.37161  0.76559  0.27840  1.0000
  H   H852      1.0  0.33464  0.69209  0.45094  1.0000
  H   H853      1.0  0.47668  0.75998  0.29341  1.0000
  H   H854      1.0  0.40737  0.87006  0.30941  1.0000
  C   C1064     1.0  0.36880  0.67327  0.30236  1.0000
  H   H855      1.0  0.52819  0.98139  0.12629  1.0000
  H   H856      1.0  0.38946  0.98072  0.46291  1.0000
  C   C1065     1.0  0.41134  0.98250  0.32777  1.0000
  C   C1066     1.0  0.44690  0.97947  0.21620  1.0000
  H   H857      1.0  0.61077  0.56620  0.33671  1.0000
  C   C1067     1.0  0.46457  0.95555  0.17066  1.0000
  H   H858      1.0  0.63330  0.66280  0.48271  1.0000
  H   H859      1.0  0.36480  0.96360  0.03732  1.0000
  C   C1068     1.0  0.62436  0.57172  0.34908  1.0000
  C   C1069     1.0  0.63142  0.92343  0.32114  1.0000
  S   S151      1.0  0.62513  0.70886  0.48550  1.0000
  S   S152      1.0  0.33363  0.88223  0.23451  1.0000
  C   C1070     1.0  0.35580  0.65931  0.31886  1.0000
  C   C1071     1.0  0.63212  0.85874  0.09296  1.0000
  C   C1072     1.0  0.62981  0.84637  0.39127  1.0000
  H   H860      1.0  0.42792  0.95119  0.22585  1.0000
  H   H861      1.0  0.39263  0.78735  0.37713  1.0000
  H   H862      1.0  0.33054  0.91192  0.07989  1.0000
  C   C1073     1.0  0.38585  0.97824  0.44028  1.0000
  H   H863      1.0  0.35306  0.64306  0.31154  1.0000
  C   C1074     1.0  0.63243  0.86308  0.37085  1.0000
  C   C1075     1.0  0.36978  0.95067  0.13122  1.0000
  H   H864      1.0  0.38881  0.93690  0.30181  1.0000
  H   H865      1.0  0.44728  0.78646  0.30188  1.0000
  H   H866      1.0  0.47136  0.72995  0.44535  1.0000
  C   C1076     1.0  0.33423  0.91833  0.31287  1.0000
  C   C1077     1.0  0.36094  0.95616  0.15815  1.0000
  H   H867      1.0  0.50331  0.91566  0.14494  1.0000
  C   C1078     1.0  0.33049  0.98778  0.33500  1.0000
  H   H868      1.0  0.33197  0.73380  0.42569  1.0000
  C   C1079     1.0  0.42031  0.94833  0.29065  1.0000
  C   C1080     1.0  0.43561  0.96440  0.29425  1.0000
  H   H869      1.0  0.42376  0.93501  0.27637  1.0000
  H   H870      1.0  0.44804  0.81577  0.25251  1.0000
  C   C1081     1.0  0.62204  0.95075  0.18480  1.0000
  C   C1082     1.0  0.44619  0.77544  0.28398  1.0000
  C   C1083     1.0  0.37234  0.69421  0.31183  1.0000
  C   C1084     1.0  0.44857  0.84718  0.27100  1.0000
  H   H871      1.0  0.55631  0.96219  0.19292  1.0000
  C   C1085     1.0  0.33695  0.90193  0.33367  1.0000
  C   C1086     1.0  0.64221  0.96909  0.11037  1.0000
  C   C1087     1.0  0.34970  0.68729  0.35442  1.0000
  C   C1088     1.0  0.39267  0.78576  0.30312  1.0000
  C   C1089     1.0  0.36412  0.80968  0.19266  1.0000
  H   H872      1.0  0.48314  0.98364  0.16008  1.0000
  C   C1090     1.0  0.46278  0.76039  0.27936  1.0000
  C   C1091     1.0  0.38821  0.78255  0.35548  1.0000
  C   C1092     1.0  0.64254  0.94319  0.07158  1.0000
  C   C1093     1.0  0.64153  0.82717  0.38842  1.0000
  H   H873      1.0  0.39348  0.80816  0.16735  1.0000
  C   C1094     1.0  0.38634  0.80652  0.18884  1.0000
  H   H874      1.0  0.34233  0.95057  0.29963  1.0000
  H   H875      1.0  0.36062  0.80458  0.26592  1.0000
  H   H876      1.0  0.41119  0.70733  0.42673  1.0000
  C   C1095     1.0  0.62557  0.97167  0.19423  1.0000
  H   H877      1.0  0.60619  0.57381  0.38910  1.0000
  C   C1096     1.0  0.39875  0.79145  0.33116  1.0000
  C   C1097     1.0  0.42673  0.76121  0.24337  1.0000
  C   C1098     1.0  0.43112  0.98149  0.31280  1.0000
  C   C1099     1.0  0.62179  0.57597  0.37859  1.0000
  H   H878      1.0  0.63698  0.58651  0.41736  1.0000
  C   C1100     1.0  0.34926  0.97177  0.03799  1.0000
  C   C1101     1.0  0.65627  0.82480  0.36545  1.0000
  C   C1102     1.0  0.47352  0.73917  0.46478  1.0000
  C   C1103     1.0  0.60654  0.98517  0.25704  1.0000
  H   H879      1.0  0.50842  0.73578  0.46374  1.0000
  H   H880      1.0  0.38250  0.70503  0.29915  1.0000
  C   C1104     1.0  0.39536  0.96314  0.39366  1.0000
  H   H881      1.0  0.41470  0.95952  0.43194  1.0000
  H   H882      1.0  0.63891  0.81406  0.40389  1.0000
  C   C1105     1.0  0.59483  0.98445  0.16670  1.0000
  C   C1106     1.0  0.64684  0.86065  0.34731  1.0000
  H   H883      1.0  0.32968  0.88630  0.33057  1.0000
  C   C1107     1.0  0.34631  0.66624  0.34482  1.0000
  H   H884      1.0  0.63844  0.97289  0.13266  1.0000
  C   C1108     1.0  0.46270  0.98876  0.19791  1.0000
  H   H885      1.0  0.63855  0.97478  0.20905  1.0000
  C   C1109     1.0  0.64387  0.84693  0.24796  1.0000
  C   C1110     1.0  0.56158  0.98538  0.25508  1.0000
  H   H886      1.0  0.43935  0.98861  0.23341  1.0000
  H   H887      1.0  0.33203  0.94451  0.02204  1.0000
  H   H888      1.0  0.33407  0.80861  0.33672  1.0000
  C   C1111     1.0  0.64456  0.85300  0.27700  1.0000
  C   C1112     1.0  0.33085  0.96106  0.02904  1.0000
  H   H889      1.0  0.63820  0.84206  0.29341  1.0000
  C   C1113     1.0  0.63732  0.94861  0.10014  1.0000
  H   H890      1.0  0.63712  0.83149  0.24243  1.0000
  C   C1114     1.0  0.65643  0.97908  0.06298  1.0000
  H   H891      1.0  0.39946  0.70305  0.47788  1.0000
  C   C1115     1.0  0.64999  0.69298  0.48519  1.0000
  S   S153      1.0  0.61814  0.77570  0.48403  1.0000
  C   C1116     1.0  0.65228  0.87335  0.28437  1.0000
  S   S154      1.0  0.65764  0.86056  0.04337  1.0000
  Fe  Fe76      1.0  0.34578  0.74942  0.48693  1.0000
  Fe  Fe77      1.0  0.59724  0.78358  0.52321  1.0000
  S   S155      1.0  0.58624  0.74939  0.52976  1.0000
  S   S156      1.0  0.60770  0.80885  0.55585  1.0000
  H   H892      1.0  0.35525  0.88089  0.61504  1.0000
  H   H893      1.0  0.53856  0.79455  0.72185  1.0000
  C   C1117     1.0  0.64254  0.79990  0.85860  1.0000
  H   H894      1.0  0.52232  0.87861  0.57154  1.0000
  C   C1118     1.0  0.47664  0.86418  0.67379  1.0000
  H   H895      1.0  0.50362  0.79336  0.74887  1.0000
  Fe  Fe78      1.0  0.37034  0.78083  0.52696  1.0000
  S   S157      1.0  0.37372  0.74503  0.51811  1.0000
  S   S158      1.0  0.38005  0.79388  0.57152  1.0000
  S   S159      1.0  0.39379  0.79018  0.49142  1.0000
  H   H896      1.0  0.47538  0.81947  0.57256  1.0000
  C   C1119     1.0  0.44861  0.92755  0.64301  1.0000
  H   H897      1.0  0.46985  0.78541  0.72290  1.0000
  H   H898      1.0  0.53981  0.78749  0.66966  1.0000
  Fe  Fe79      1.0  0.35583  0.87807  0.70173  1.0000
  S   S160      1.0  0.38099  0.86725  0.73395  1.0000
  S   S161      1.0  0.33982  0.85832  0.66622  1.0000
  Fe  Fe80      1.0  0.35520  0.92459  0.72496  1.0000
  S   S162      1.0  0.38098  0.91718  0.75732  1.0000
  S   S163      1.0  0.33832  0.95719  0.72698  1.0000
  Fe  Fe81      1.0  0.39736  0.89846  0.72201  1.0000
  S   S164      1.0  0.43186  0.90269  0.70576  1.0000
  Fe  Fe82      1.0  0.36205  0.88703  0.76700  1.0000
  S   S165      1.0  0.35735  0.87929  0.81551  1.0000
  S   S166      1.0  0.37300  0.90852  0.68847  1.0000
  C   C1120     1.0  0.48740  0.94436  0.82383  1.0000
  Fe  Fe83      1.0  0.57722  0.85679  0.71425  1.0000
  S   S167      1.0  0.56798  0.85140  0.76124  1.0000
  S   S168      1.0  0.57389  0.82723  0.68507  1.0000
  Fe  Fe84      1.0  0.58421  0.90469  0.72500  1.0000
  S   S169      1.0  0.57557  0.90275  0.77252  1.0000
  S   S170      1.0  0.59249  0.93537  0.69981  1.0000
  Fe  Fe85      1.0  0.59591  0.87244  0.77308  1.0000
  S   S171      1.0  0.61468  0.85949  0.81253  1.0000
  Fe  Fe86      1.0  0.54847  0.88190  0.75775  1.0000
  S   S172      1.0  0.51557  0.88315  0.77984  1.0000
  S   S173      1.0  0.60672  0.87563  0.72608  1.0000
  S   S174      1.0  0.55554  0.88601  0.71023  1.0000
  C   C1121     1.0  0.63192  0.87137  0.83843  1.0000
  H   H899      1.0  0.48142  0.77084  0.53519  1.0000
  C   C1122     1.0  0.35690  0.84601  0.50548  1.0000
  C   C1123     1.0  0.49499  0.84377  0.71139  1.0000
  C   C1124     1.0  0.33947  0.83553  0.61513  1.0000
  C   C1125     1.0  0.58758  0.96101  0.71503  1.0000
  C   C1126     1.0  0.57773  0.96310  0.74229  1.0000
  C   C1127     1.0  0.64409  0.72551  0.55352  1.0000
  H   H900      1.0  0.57324  0.94887  0.75465  1.0000
  C   C1128     1.0  0.45465  0.89904  0.72796  1.0000
  C   C1129     1.0  0.45299  0.89018  0.75594  1.0000
  C   C1130     1.0  0.47179  0.88582  0.77193  1.0000
  C   C1131     1.0  0.49231  0.88997  0.75986  1.0000
  C   C1132     1.0  0.49390  0.89933  0.73218  1.0000
  C   C1133     1.0  0.47511  0.90419  0.71654  1.0000
  H   H901      1.0  0.43729  0.88626  0.76503  1.0000
  H   H902      1.0  0.47047  0.87870  0.79344  1.0000
  H   H903      1.0  0.50960  0.90260  0.72272  1.0000
  H   H904      1.0  0.47647  0.91130  0.69513  1.0000
  C   C1134     1.0  0.47499  0.83692  0.57329  1.0000
  H   H905      1.0  0.35833  0.93296  0.90233  1.0000
  S   S175      1.0  0.56881  0.79267  0.49629  1.0000
  H   H906      1.0  0.35134  0.87985  0.87750  1.0000
  H   H907      1.0  0.37263  0.96376  0.68426  1.0000
  H   H908      1.0  0.44682  0.94930  0.51567  1.0000
  C   C1135     1.0  0.36840  0.81206  0.59722  1.0000
  C   C1136     1.0  0.38020  0.81700  0.62212  1.0000
  C   C1137     1.0  0.37193  0.83135  0.64311  1.0000
  C   C1138     1.0  0.35142  0.84064  0.63987  1.0000
  C   C1139     1.0  0.63035  0.73974  0.59878  1.0000
  C   C1140     1.0  0.34794  0.82148  0.59384  1.0000
  H   H909      1.0  0.39583  0.80954  0.62534  1.0000
  H   H910      1.0  0.38121  0.83484  0.66212  1.0000
  H   H911      1.0  0.45365  0.93592  0.56579  1.0000
  H   H912      1.0  0.65264  0.85975  0.90571  1.0000
  C   C1141     1.0  0.59749  0.81390  0.59139  1.0000
  C   C1142     1.0  0.58726  0.79792  0.60812  1.0000
  C   C1143     1.0  0.58071  0.80214  0.63691  1.0000
  C   C1144     1.0  0.58369  0.82255  0.64916  1.0000
  C   C1145     1.0  0.59385  0.83857  0.63237  1.0000
  C   C1146     1.0  0.60088  0.83418  0.60378  1.0000
  H   H913      1.0  0.58486  0.78217  0.59907  1.0000
  H   H914      1.0  0.57342  0.78942  0.64977  1.0000
  H   H915      1.0  0.59636  0.85431  0.64144  1.0000
  H   H916      1.0  0.60899  0.84659  0.59115  1.0000
  H   H917      1.0  0.46102  0.85141  0.71229  1.0000
  C   C1147     1.0  0.62605  0.95669  0.83721  1.0000
  H   H918      1.0  0.64519  0.78033  0.55229  1.0000
  C   C1148     1.0  0.49368  0.92798  0.64001  1.0000
  C   C1149     1.0  0.33971  0.93296  0.62401  1.0000
  C   C1150     1.0  0.36741  0.93031  0.58655  1.0000
  C   C1151     1.0  0.46546  0.84875  0.55073  1.0000
  C   C1152     1.0  0.46519  0.87128  0.55134  1.0000
  H   H919      1.0  0.56040  0.70252  0.62295  1.0000
  H   H920      1.0  0.55429  0.96475  0.66048  1.0000
  H   H921      1.0  0.51026  0.78411  0.56481  1.0000
  C   C1153     1.0  0.63107  0.98434  0.87240  1.0000
  C   C1154     1.0  0.47460  0.88196  0.57441  1.0000
  C   C1155     1.0  0.64332  0.89034  0.83250  1.0000
  H   H922      1.0  0.46523  0.94478  0.75299  1.0000
  H   H923      1.0  0.56575  0.98510  0.77455  1.0000
  H   H924      1.0  0.47081  0.77837  0.67071  1.0000
  C   C1156     1.0  0.40694  0.90920  0.55311  1.0000
  C   C1157     1.0  0.64931  0.67607  0.57792  1.0000
  H   H925      1.0  0.40429  0.87082  0.51827  1.0000
  H   H926      1.0  0.35292  0.96021  0.60075  1.0000
  C   C1158     1.0  0.45968  0.94617  0.65020  1.0000
  C   C1159     1.0  0.55472  0.88773  0.58088  1.0000
  C   C1160     1.0  0.48380  0.87017  0.59746  1.0000
  S   S176      1.0  0.33556  0.89520  0.73584  1.0000
  H   H927      1.0  0.62650  0.84599  0.87012  1.0000
  C   C1161     1.0  0.33387  0.88353  0.83756  1.0000
  H   H928      1.0  0.41568  0.87154  0.66837  1.0000
  C   C1162     1.0  0.57345  0.98368  0.75348  1.0000
  H   H929      1.0  0.63657  0.69257  0.71726  1.0000
  C   C1163     1.0  0.53287  0.88481  0.58788  1.0000
  C   C1164     1.0  0.48397  0.84757  0.59670  1.0000
  H   H930      1.0  0.38845  0.91261  0.51373  1.0000
  C   C1165     1.0  0.65113  0.68608  0.64642  1.0000
  H   H931      1.0  0.42839  0.91057  0.58960  1.0000
  H   H932      1.0  0.60009  0.70677  0.64073  1.0000
  C   C1166     1.0  0.47603  0.85255  0.70000  1.0000
  H   H933      1.0  0.64061  0.97082  0.88073  1.0000
  H   H934      1.0  0.49117  0.83817  0.61406  1.0000
  C   C1167     1.0  0.34435  0.90674  0.96463  1.0000
  H   H935      1.0  0.33851  0.81770  0.57506  1.0000
  C   C1168     1.0  0.36430  0.96319  0.83841  1.0000
  C   C1169     1.0  0.59487  0.97491  0.88307  1.0000
  C   C1170     1.0  0.63531  0.86058  0.86515  1.0000
  H   H936      1.0  0.53375  0.90042  0.65833  1.0000
  H   H937      1.0  0.46187  0.87160  0.66632  1.0000
  H   H938      1.0  0.60425  0.70699  0.54354  1.0000
  C   C1171     1.0  0.57082  0.66623  0.58962  1.0000
  C   C1172     1.0  0.53941  0.89703  0.63655  1.0000
  C   C1173     1.0  0.35398  0.95027  0.81846  1.0000
  C   C1174     1.0  0.35421  0.96789  0.86488  1.0000
  C   C1175     1.0  0.45831  0.75900  0.50486  1.0000
  C   C1176     1.0  0.60342  0.68736  0.58280  1.0000
  C   C1177     1.0  0.35453  0.89810  0.61116  1.0000
  H   H939      1.0  0.58318  0.97093  0.89990  1.0000
  C   C1178     1.0  0.36825  0.97921  0.69328  1.0000
  C   C1179     1.0  0.48272  0.90889  0.63372  1.0000
  C   C1180     1.0  0.35583  0.91201  0.93929  1.0000
  H   H940      1.0  0.58588  0.89716  0.59644  1.0000
  H   H941      1.0  0.36166  0.94673  0.79784  1.0000
  C   C1181     1.0  0.35396  0.86753  0.54876  1.0000
  C   C1182     1.0  0.57432  0.69032  0.54807  1.0000
  H   H942      1.0  0.60084  0.97822  0.67803  1.0000
  H   H943      1.0  0.59786  0.66466  0.61827  1.0000
  C   C1183     1.0  0.53204  0.95142  0.69205  1.0000
  C   C1184     1.0  0.51687  0.95592  0.71387  1.0000
  C   C1185     1.0  0.34022  0.91058  0.62769  1.0000
  H   H944      1.0  0.54626  0.67110  0.55728  1.0000
  C   C1186     1.0  0.35193  0.98046  0.71443  1.0000
  C   C1187     1.0  0.46703  0.97798  0.73742  1.0000
  C   C1188     1.0  0.49966  0.96464  0.78127  1.0000
  C   C1189     1.0  0.52003  0.95462  0.78363  1.0000
  C   C1190     1.0  0.52371  0.93895  0.80517  1.0000
  C   C1191     1.0  0.50732  0.93360  0.82500  1.0000
  C   C1192     1.0  0.51215  0.97734  0.72131  1.0000
  C   C1193     1.0  0.41732  0.93150  0.51150  1.0000
  C   C1194     1.0  0.33386  0.94152  0.82530  1.0000
  H   H945      1.0  0.36101  0.69550  0.48987  1.0000
  C   C1195     1.0  0.42471  0.97161  0.71878  1.0000
  C   C1196     1.0  0.43568  0.95513  0.73354  1.0000
  C   C1197     1.0  0.60720  0.95468  0.86450  1.0000
  C   C1198     1.0  0.49768  0.75367  0.50088  1.0000
  H   H946      1.0  0.55027  0.83975  0.55607  1.0000
  H   H947      1.0  0.60268  0.93842  0.87083  1.0000
  C   C1199     1.0  0.56222  0.67550  0.56440  1.0000
  C   C1200     1.0  0.34477  0.85351  0.52905  1.0000
  H   H948      1.0  0.59222  0.97319  0.82189  1.0000
  H   H949      1.0  0.64102  0.89878  0.81207  1.0000
  S   S177      1.0  0.52347  0.75522  0.51774  1.0000
  H   H950      1.0  0.53666  0.93488  0.68773  1.0000
  H   H951      1.0  0.50939  0.94269  0.72569  1.0000
  H   H952      1.0  0.45080  0.96020  0.65773  1.0000
  H   H953      1.0  0.53294  0.95836  0.76842  1.0000
  H   H954      1.0  0.53905  0.93040  0.80593  1.0000
  H   H955      1.0  0.62326  0.73769  0.62014  1.0000
  C   C1201     1.0  0.63209  0.69345  0.63313  1.0000
  H   H956      1.0  0.60300  0.70594  0.69406  1.0000
  H   H957      1.0  0.42764  0.94004  0.73831  1.0000
  C   C1202     1.0  0.63694  0.94506  0.76724  1.0000
  H   H958      1.0  0.40825  0.96912  0.71225  1.0000
  H   H959      1.0  0.61980  0.92014  0.74568  1.0000
  C   C1203     1.0  0.61475  0.70058  0.65053  1.0000
  C   C1204     1.0  0.54194  0.96827  0.67665  1.0000
  C   C1205     1.0  0.35323  0.94282  0.60336  1.0000
  H   H960      1.0  0.64276  0.97241  0.93131  1.0000
  C   C1206     1.0  0.64765  0.81280  0.83441  1.0000
  C   C1207     1.0  0.61637  0.70022  0.68075  1.0000
  C   C1208     1.0  0.33143  0.94239  0.93038  1.0000
  H   H961      1.0  0.62685  0.79239  0.86021  1.0000
  C   C1209     1.0  0.43571  0.93811  0.52607  1.0000
  C   C1210     1.0  0.37539  0.87433  0.54493  1.0000
  H   H962      1.0  0.44446  0.76531  0.51661  1.0000
  P   P37       1.0  0.38798  0.89145  0.57120  1.0000
  C   C1211     1.0  0.37828  0.85244  0.50163  1.0000
  C   C1212     1.0  0.40264  0.87465  0.59678  1.0000
  C   C1213     1.0  0.41370  0.85614  0.58735  1.0000
  C   C1214     1.0  0.42570  0.84359  0.60685  1.0000
  C   C1215     1.0  0.42649  0.84913  0.63603  1.0000
  C   C1216     1.0  0.41549  0.86747  0.64563  1.0000
  C   C1217     1.0  0.40390  0.88039  0.62606  1.0000
  H   H963      1.0  0.37787  0.93839  0.57101  1.0000
  P   P38       1.0  0.63016  0.69466  0.59410  1.0000
  C   C1218     1.0  0.65268  0.68568  0.67666  1.0000
  C   C1219     1.0  0.36827  0.90778  0.59048  1.0000
  C   C1220     1.0  0.40287  0.91723  0.52504  1.0000
  H   H964      1.0  0.50514  0.73618  0.65717  1.0000
  C   C1221     1.0  0.63405  0.76070  0.58833  1.0000
  C   C1222     1.0  0.64277  0.76404  0.56055  1.0000
  C   C1223     1.0  0.34944  0.92973  0.92221  1.0000
  C   C1224     1.0  0.48364  0.96000  0.80223  1.0000
  H   H965      1.0  0.41292  0.85110  0.56508  1.0000
  H   H966      1.0  0.43385  0.82923  0.59937  1.0000
  H   H967      1.0  0.43525  0.83904  0.65133  1.0000
  C   C1225     1.0  0.42530  0.91609  0.56769  1.0000
  H   H968      1.0  0.39584  0.89470  0.63401  1.0000
  H   H969      1.0  0.52827  0.70357  0.65557  1.0000
  H   H970      1.0  0.55034  0.84346  0.60955  1.0000
  H   H971      1.0  0.56080  0.88388  0.55941  1.0000
  C   C1226     1.0  0.56121  0.89999  0.62951  1.0000
  H   H972      1.0  0.62667  0.64984  0.57411  1.0000
  H   H973      1.0  0.50998  0.92085  0.84095  1.0000
  H   H974      1.0  0.53031  0.85797  0.65797  1.0000
  C   C1227     1.0  0.45692  0.95807  0.74227  1.0000
  Fe  Fe87      1.0  0.55838  0.75837  0.50041  1.0000
  H   H975      1.0  0.38023  0.96936  0.83340  1.0000
  H   H976      1.0  0.34896  0.89274  0.97760  1.0000
  H   H977      1.0  0.36937  0.90204  0.93246  1.0000
  C   C1228     1.0  0.52938  0.81223  0.55722  1.0000
  C   C1229     1.0  0.48219  0.94647  0.64835  1.0000
  C   C1230     1.0  0.51499  0.85695  0.66939  1.0000
  H   H978      1.0  0.52911  0.83874  0.70464  1.0000
  H   H979      1.0  0.49191  0.74256  0.59022  1.0000
  H   H980      1.0  0.49473  0.83594  0.73255  1.0000
  C   C1231     1.0  0.52507  0.88925  0.61593  1.0000
  H   H981      1.0  0.57222  0.90573  0.64576  1.0000
  C   C1232     1.0  0.63518  0.92508  0.75401  1.0000
  C   C1233     1.0  0.43963  0.93050  0.55422  1.0000
  H   H982      1.0  0.54672  0.76673  0.59300  1.0000
  H   H983      1.0  0.56930  0.73416  0.59156  1.0000
  C   C1234     1.0  0.38754  0.86645  0.52130  1.0000
  H   H984      1.0  0.45112  0.89468  0.62990  1.0000
  H   H985      1.0  0.45790  0.88044  0.53376  1.0000
  C   C1235     1.0  0.56889  0.89521  0.60172  1.0000
  H   H986      1.0  0.56154  0.65448  0.60200  1.0000
  H   H987      1.0  0.53093  0.81774  0.64074  1.0000
  C   C1236     1.0  0.47937  0.76208  0.51540  1.0000
  C   C1237     1.0  0.51437  0.84562  0.69584  1.0000
  C   C1238     1.0  0.46004  0.90906  0.63466  1.0000
  H   H988      1.0  0.62277  0.95540  0.76882  1.0000
  H   H989      1.0  0.45836  0.84041  0.53275  1.0000
  H   H990      1.0  0.43116  0.92711  0.64530  1.0000
  P   P39       1.0  0.49371  0.98265  0.75112  1.0000
  H   H991      1.0  0.47486  0.89940  0.57418  1.0000
  P   P40       1.0  0.49726  0.88400  0.62616  1.0000
  H   H992      1.0  0.51105  0.92875  0.63916  1.0000
  H   H993      1.0  0.52959  0.81030  0.53389  1.0000
  H   H994      1.0  0.56784  0.69733  0.52825  1.0000
  C   C1239     1.0  0.59135  0.67214  0.59884  1.0000
  C   C1240     1.0  0.49625  0.86712  0.65865  1.0000
  H   H995      1.0  0.49079  0.96088  0.65412  1.0000
  C   C1241     1.0  0.45853  0.74908  0.58213  1.0000
  C   C1242     1.0  0.44104  0.76311  0.58634  1.0000
  C   C1243     1.0  0.44350  0.78154  0.60288  1.0000
  C   C1244     1.0  0.46350  0.78607  0.61512  1.0000
  C   C1245     1.0  0.48099  0.77165  0.61183  1.0000
  C   C1246     1.0  0.47846  0.75334  0.59466  1.0000
  P   P41       1.0  0.50697  0.77765  0.62722  1.0000
  C   C1247     1.0  0.52413  0.75397  0.62536  1.0000
  C   C1248     1.0  0.51890  0.79888  0.60521  1.0000
  C   C1249     1.0  0.51835  0.79738  0.57487  1.0000
  C   C1250     1.0  0.59492  0.69602  0.55703  1.0000
  C   C1251     1.0  0.54093  0.82883  0.56970  1.0000
  C   C1252     1.0  0.54102  0.83086  0.59982  1.0000
  C   C1253     1.0  0.53008  0.81597  0.61756  1.0000
  C   C1254     1.0  0.51917  0.73593  0.64289  1.0000
  C   C1255     1.0  0.53225  0.71744  0.64204  1.0000
  C   C1256     1.0  0.55035  0.71683  0.62366  1.0000
  C   C1257     1.0  0.55540  0.73467  0.60608  1.0000
  C   C1258     1.0  0.54239  0.75321  0.60691  1.0000
  C   C1259     1.0  0.50531  0.78358  0.66558  1.0000
  C   C1260     1.0  0.48567  0.78245  0.68117  1.0000
  C   C1261     1.0  0.48508  0.78607  0.71106  1.0000
  C   C1262     1.0  0.50409  0.79041  0.72576  1.0000
  C   C1263     1.0  0.52374  0.79103  0.71061  1.0000
  C   C1264     1.0  0.52436  0.78737  0.68080  1.0000
  H   H996      1.0  0.45676  0.73514  0.56849  1.0000
  H   H997      1.0  0.42560  0.75991  0.57644  1.0000
  H   H998      1.0  0.42973  0.79220  0.60599  1.0000
  H   H999      1.0  0.46527  0.80071  0.62730  1.0000
  H   H1000     1.0  0.63585  0.81555  0.81752  1.0000
  H   H1001     1.0  0.64755  0.71213  0.53946  1.0000
  C   C1265     1.0  0.33360  0.95974  0.87156  1.0000
  H   H1002     1.0  0.63955  0.82867  0.97721  1.0000
  H   H1003     1.0  0.47469  0.94013  0.83918  1.0000
  H   H1004     1.0  0.34985  0.83496  0.49036  1.0000
  C   C1266     1.0  0.63531  0.69274  0.69382  1.0000
  C   C1267     1.0  0.33562  0.88233  0.86800  1.0000
  C   C1268     1.0  0.65015  0.86831  0.88542  1.0000
  C   C1269     1.0  0.63691  0.97947  0.82215  1.0000
  C   C1270     1.0  0.59321  0.97971  0.69915  1.0000
  H   H1005     1.0  0.65388  0.74903  0.52124  1.0000
  H   H1006     1.0  0.63209  0.94147  0.82909  1.0000
  H   H1007     1.0  0.32997  0.90286  0.64396  1.0000
  H   H1008     1.0  0.46799  0.96790  0.80126  1.0000
  C   C1271     1.0  0.60016  0.98579  0.83410  1.0000
  S   S178      1.0  0.34149  0.78508  0.49769  1.0000
  C   C1272     1.0  0.63546  0.72191  0.58144  1.0000
  H   H1009     1.0  0.36277  0.97737  0.88041  1.0000
  C   C1273     1.0  0.64774  0.74645  0.54313  1.0000
  C   C1274     1.0  0.32655  0.91924  0.97294  1.0000
  C   C1275     1.0  0.64310  0.65512  0.57070  1.0000
  H   H1010     1.0  0.62974  0.77450  0.60144  1.0000
  H   H1011     1.0  0.65323  0.78712  0.89956  1.0000
  C   C1276     1.0  0.65464  0.81985  0.97464  1.0000
  H   H1012     1.0  0.65172  0.89598  0.74129  1.0000
  H   H1013     1.0  0.34428  0.87264  0.56708  1.0000
  C   C1277     1.0  0.53646  0.98963  0.68285  1.0000
  Fe  Fe88      1.0  0.60551  0.74155  0.48878  1.0000
  H   H1014     1.0  0.65311  0.62488  0.55211  1.0000
  C   C1278     1.0  0.32823  0.99015  0.92115  1.0000
  C   C1279     1.0  0.65322  0.91153  0.75141  1.0000
  H   H1015     1.0  0.65545  0.82384  0.92844  1.0000
  C   C1280     1.0  0.65678  0.95152  0.77836  1.0000
  C   C1281     1.0  0.65807  0.64083  0.55830  1.0000
  C   C1282     1.0  0.65744  0.79714  0.88093  1.0000
  H   H1016     1.0  0.32903  0.94263  0.63749  1.0000
  H   H1017     1.0  0.32835  0.84805  0.53238  1.0000
  H   H1018     1.0  0.32637  0.93078  0.81020  1.0000
  H   H1019     1.0  0.41415  0.93754  0.48978  1.0000
  Fe  Fe89      1.0  0.89911  0.39372  0.21622  1.0000
  S   S179      1.0  0.87293  0.39785  0.18319  1.0000
  S   S180      1.0  0.93234  0.39676  0.19518  1.0000
  Fe  Fe90      1.0  0.86610  0.38514  0.26604  1.0000
  S   S181      1.0  0.83829  0.38732  0.23569  1.0000
  S   S182      1.0  0.86198  0.38059  0.31524  1.0000
  Fe  Fe91      1.0  0.85883  0.36823  0.20393  1.0000
  S   S183      1.0  0.84979  0.33788  0.17925  1.0000
  Fe  Fe92      1.0  0.85531  0.41660  0.21760  1.0000
  S   S184      1.0  0.83634  0.44788  0.21318  1.0000
  S   S185      1.0  0.88551  0.36346  0.23623  1.0000
  S   S186      1.0  0.88261  0.41504  0.24888  1.0000
  Fe  Fe93      1.0  0.76556  0.37803  0.43736  1.0000
  S   S187      1.0  0.73191  0.38858  0.45188  1.0000
  S   S188      1.0  0.77332  0.37971  0.38848  1.0000
  Fe  Fe94      1.0  0.86065  0.29019  0.01291  1.0000
  S   S189      1.0  0.86798  0.25469  0.01989  1.0000
  S   S190      1.0  0.85420  0.31881  0.04315  1.0000
  C   C1283     1.0  0.97155  0.43675  0.29970  1.0000
  H   H1020     1.0  0.83509  0.45950  0.34972  1.0000
  C   C1284     1.0  0.71594  0.13775  0.07530  1.0000
  P   P42       1.0  0.78894  0.12563  0.06037  1.0000
  C   C1285     1.0  0.78583  0.32267  0.16646  1.0000
  H   H1021     1.0  0.81950  0.41986  0.44174  1.0000
  Fe  Fe95      1.0  0.68724  0.10209  0.02114  1.0000
  S   S191      1.0  0.72340  0.10039  0.01437  1.0000
  C   C1286     1.0  0.96795  0.38092  0.11872  1.0000
  C   C1287     1.0  0.70895  0.04729  0.06913  1.0000
  C   C1288     1.0  0.95353  0.26650  0.12572  1.0000
  C   C1289     1.0  0.73584  0.47192  0.46350  1.0000
  H   H1022     1.0  0.83190  0.11932  0.15011  1.0000
  C   C1290     1.0  0.66860  0.22230  0.44305  1.0000
  P   P43       1.0  0.79023  0.46952  0.36658  1.0000
  C   C1291     1.0  0.72259  0.44250  0.38766  1.0000
  C   C1292     1.0  0.79252  0.30801  0.14537  1.0000
  H   H1023     1.0  0.80378  0.43458  0.32800  1.0000
  C   C1293     1.0  0.80196  0.44730  0.28461  1.0000
  H   H1024     1.0  0.81136  0.30005  0.22473  1.0000
  H   H1025     1.0  0.71330  0.23558  0.44362  1.0000
  C   C1294     1.0  0.96533  0.43326  0.32860  1.0000
  H   H1026     1.0  0.79031  0.33732  0.32921  1.0000
  C   C1295     1.0  0.71794  0.34316  0.21953  1.0000
  C   C1296     1.0  0.80580  0.07798  0.11863  1.0000
  H   H1027     1.0  0.82315  0.27449  0.18737  1.0000
  C   C1297     1.0  0.79300  0.46802  0.32758  1.0000
  C   C1298     1.0  0.93155  0.45510  0.19484  1.0000
  C   C1299     1.0  0.85144  0.47189  0.21151  1.0000
  C   C1300     1.0  0.94498  0.46818  0.17774  1.0000
  Fe  Fe96      1.0  0.73264  0.35932  0.48225  1.0000
  C   C1301     1.0  0.93548  0.47922  0.23541  1.0000
  H   H1028     1.0  0.90308  0.44808  0.28792  1.0000
  C   C1302     1.0  0.80717  0.44254  0.41001  1.0000
  H   H1029     1.0  0.88088  0.45639  0.19745  1.0000
  C   C1303     1.0  0.79132  0.10951  0.02816  1.0000
  C   C1304     1.0  0.79839  0.38168  0.36916  1.0000
  C   C1305     1.0  0.79817  0.38637  0.33916  1.0000
  C   C1306     1.0  0.81748  0.38675  0.32250  1.0000
  C   C1307     1.0  0.83731  0.38221  0.33560  1.0000
  C   C1308     1.0  0.83758  0.37805  0.36571  1.0000
  C   C1309     1.0  0.81828  0.37785  0.38242  1.0000
  H   H1030     1.0  0.78291  0.38931  0.32861  1.0000
  H   H1031     1.0  0.81693  0.38985  0.29938  1.0000
  H   H1032     1.0  0.85279  0.37453  0.37612  1.0000
  H   H1033     1.0  0.81876  0.37419  0.40542  1.0000
  C   C1310     1.0  0.85267  0.33294  0.14141  1.0000
  C   C1311     1.0  0.85285  0.34967  0.12070  1.0000
  C   C1312     1.0  0.85335  0.34496  0.09085  1.0000
  C   C1313     1.0  0.85415  0.32353  0.08121  1.0000
  C   C1314     1.0  0.85473  0.30680  0.10193  1.0000
  C   C1315     1.0  0.85385  0.31152  0.13181  1.0000
  H   H1034     1.0  0.85201  0.36623  0.12766  1.0000
  H   H1035     1.0  0.85296  0.35804  0.07507  1.0000
  H   H1036     1.0  0.85543  0.29025  0.09496  1.0000
  H   H1037     1.0  0.85393  0.29845  0.14762  1.0000
  C   C1316     1.0  0.95542  0.39029  0.24536  1.0000
  C   C1317     1.0  0.95606  0.39537  0.21577  1.0000
  C   C1318     1.0  0.97602  0.39942  0.20204  1.0000
  H   H1038     1.0  0.94011  0.38712  0.25608  1.0000
  C   C1319     1.0  0.98482  0.47473  0.38669  1.0000
  H   H1039     1.0  0.67158  0.23918  0.44674  1.0000
  C   C1320     1.0  0.97060  0.26588  0.99502  1.0000
  H   H1040     1.0  0.73675  0.03748  0.04381  1.0000
  H   H1041     1.0  0.92573  0.47142  0.33393  1.0000
  C   C1321     1.0  0.94889  0.44587  0.34091  1.0000
  C   C1322     1.0  0.72607  0.12018  0.08890  1.0000
  C   C1323     1.0  0.99028  0.26789  0.10721  1.0000
  H   H1042     1.0  0.97308  0.42057  0.34125  1.0000
  H   H1043     1.0  0.71818  0.18623  0.45393  1.0000
  C   C1324     1.0  0.69916  0.99391  0.99794  1.0000
  C   C1325     1.0  0.94452  0.46517  0.29502  1.0000
  C   C1326     1.0  0.72303  0.03216  0.05683  1.0000
  H   H1044     1.0  0.93780  0.25898  0.12628  1.0000
  C   C1327     1.0  0.87314  0.47153  0.20287  1.0000
  C   C1328     1.0  0.74142  0.16972  0.48058  1.0000
  H   H1045     1.0  0.82522  0.08017  0.15686  1.0000
  C   C1329     1.0  0.74577  0.47297  0.37726  1.0000
  C   C1330     1.0  0.92698  0.46044  0.22362  1.0000
  C   C1331     1.0  0.93860  0.46188  0.32425  1.0000
  C   C1332     1.0  0.82215  0.11089  0.13470  1.0000
  C   C1333     1.0  0.85706  0.47814  0.29105  1.0000
  C   C1334     1.0  0.78665  0.48540  0.30965  1.0000
  C   C1335     1.0  0.81839  0.08884  0.13849  1.0000
  C   C1336     1.0  0.97392  0.36121  0.07442  1.0000
  H   H1046     1.0  0.80261  0.20276  0.07782  1.0000
  H   H1047     1.0  0.70576  0.35391  0.21057  1.0000
  H   H1048     1.0  0.69477  0.32080  0.23759  1.0000
  H   H1049     1.0  0.66811  0.08290  0.12765  1.0000
  C   C1337     1.0  0.78310  0.21025  0.98751  1.0000
  H   H1050     1.0  0.81642  0.13918  0.10861  1.0000
  H   H1051     1.0  0.94385  0.44297  0.36319  1.0000
  C   C1338     1.0  0.72532  0.46471  0.38385  1.0000
  C   C1339     1.0  0.76373  0.45905  0.37494  1.0000
  C   C1340     1.0  0.67719  0.20630  0.46154  1.0000
  H   H1052     1.0  0.69175  0.31497  0.44133  1.0000
  C   C1341     1.0  0.81330  0.12212  0.11105  1.0000
  C   C1342     1.0  0.81112  0.45330  0.38346  1.0000
  H   H1053     1.0  0.79181  0.44437  0.42129  1.0000
  C   C1343     1.0  0.76442  0.19710  0.98926  1.0000
  H   H1054     1.0  0.79820  0.46391  0.24363  1.0000
  H   H1055     1.0  0.94841  0.46396  0.15544  1.0000
  C   C1344     1.0  0.68215  0.30818  0.45890  1.0000
  H   H1056     1.0  0.66461  0.28680  0.43115  1.0000
  C   C1345     1.0  0.95718  0.28482  0.14211  1.0000
  C   C1346     1.0  0.80062  0.11133  0.09097  1.0000
  H   H1057     1.0  0.84098  0.17417  0.01031  1.0000
  H   H1058     1.0  0.76438  0.12500  0.00667  1.0000
  H   H1059     1.0  0.95791  0.38506  0.13734  1.0000
  H   H1060     1.0  0.75548  0.10263  0.09519  1.0000
  C   C1347     1.0  0.89289  0.46236  0.28724  1.0000
  H   H1061     1.0  0.94431  0.29142  0.15556  1.0000
  H   H1062     1.0  0.81144  0.27952  0.13644  1.0000
  C   C1348     1.0  0.81883  0.15277  0.03267  1.0000
  H   H1063     1.0  0.96580  0.45433  0.26034  1.0000
  P   P44       1.0  0.66164  0.00961  0.10604  1.0000
  S   S192      1.0  0.93005  0.24491  0.99823  1.0000
  H   H1064     1.0  0.77002  0.33945  0.28370  1.0000
  H   H1065     1.0  0.74429  0.36224  0.20347  1.0000
  S   S193      1.0  0.67639  0.09591  0.06855  1.0000
  C   C1349     1.0  0.95874  0.24700  0.00104  1.0000
  C   C1350     1.0  0.82320  0.19049  0.04386  1.0000
  H   H1066     1.0  0.83063  0.20592  0.03905  1.0000
  H   H1067     1.0  0.91669  0.44993  0.23648  1.0000
  C   C1351     1.0  0.97738  0.29472  0.14107  1.0000
  C   C1352     1.0  0.67842  0.00302  0.20300  1.0000
  S   S194      1.0  0.68370  0.13039  0.99012  1.0000
  H   H1068     1.0  0.86400  0.44429  0.29683  1.0000
  C   C1353     1.0  0.80896  0.08102  0.00070  1.0000
  C   C1354     1.0  0.74826  0.11667  0.08504  1.0000
  C   C1355     1.0  0.81260  0.28786  0.18159  1.0000
  C   C1356     1.0  0.76061  0.13095  0.06777  1.0000
  H   H1069     1.0  0.80282  0.06089  0.12158  1.0000
  H   H1070     1.0  0.97423  0.46403  0.39890  1.0000
  C   C1357     1.0  0.70524  0.01510  0.98997  1.0000
  Fe  Fe97      1.0  0.74927  0.40713  0.48624  1.0000
  C   C1358     1.0  0.66975  0.02235  0.19213  1.0000
  P   P45       1.0  0.93644  0.35079  0.10641  1.0000
  C   C1359     1.0  0.91545  0.36963  0.09603  1.0000
  C   C1360     1.0  0.93367  0.32604  0.08660  1.0000
  C   C1361     1.0  0.91296  0.31866  0.08005  1.0000
  C   C1362     1.0  0.91041  0.29962  0.06479  1.0000
  C   C1363     1.0  0.92849  0.28769  0.05607  1.0000
  C   C1364     1.0  0.94915  0.29463  0.06290  1.0000
  C   C1365     1.0  0.95175  0.31346  0.07877  1.0000
  C   C1366     1.0  0.90706  0.38433  0.11618  1.0000
  C   C1367     1.0  0.89107  0.39920  0.10792  1.0000
  C   C1368     1.0  0.88324  0.39939  0.07964  1.0000
  C   C1369     1.0  0.89171  0.38499  0.05937  1.0000
  C   C1370     1.0  0.90795  0.37033  0.06741  1.0000
  C   C1371     1.0  0.93289  0.34310  0.14414  1.0000
  C   C1372     1.0  0.95016  0.34336  0.16358  1.0000
  C   C1373     1.0  0.94698  0.33746  0.19270  1.0000
  C   C1374     1.0  0.92667  0.33075  0.20249  1.0000
  C   C1375     1.0  0.90954  0.32992  0.18315  1.0000
  C   C1376     1.0  0.91258  0.33619  0.15415  1.0000
  C   C1377     1.0  0.80785  0.09397  0.02526  1.0000
  C   C1378     1.0  0.96110  0.45248  0.28289  1.0000
  C   C1379     1.0  0.69069  0.04047  0.08479  1.0000
  H   H1071     1.0  0.68316  0.99107  0.00649  1.0000
  H   H1072     1.0  0.97652  0.40361  0.17923  1.0000
  H   H1073     1.0  0.89870  0.32759  0.08670  1.0000
  H   H1074     1.0  0.89435  0.29415  0.05964  1.0000
  H   H1075     1.0  0.92643  0.27291  0.04434  1.0000
  H   H1076     1.0  0.96306  0.28509  0.05630  1.0000
  H   H1077     1.0  0.98419  0.42696  0.28997  1.0000
  H   H1078     1.0  0.91285  0.38436  0.13827  1.0000
  H   H1079     1.0  0.88466  0.41054  0.12352  1.0000
  H   H1080     1.0  0.87060  0.41070  0.07349  1.0000
  H   H1081     1.0  0.88556  0.38504  0.03749  1.0000
  H   H1082     1.0  0.91443  0.35941  0.05134  1.0000
  H   H1083     1.0  0.96604  0.34826  0.15660  1.0000
  H   H1084     1.0  0.96017  0.33850  0.20782  1.0000
  H   H1085     1.0  0.92408  0.32653  0.22516  1.0000
  H   H1086     1.0  0.89373  0.32487  0.19078  1.0000
  H   H1087     1.0  0.89898  0.33585  0.13967  1.0000
  H   H1088     1.0  0.85442  0.41440  0.41605  1.0000
  H   H1089     1.0  0.72012  0.16521  0.04662  1.0000
  C   C1380     1.0  0.78738  0.33753  0.28261  1.0000
  H   H1090     1.0  0.78480  0.16789  0.08760  1.0000
  P   P46       1.0  0.78404  0.33945  0.22205  1.0000
  C   C1381     1.0  0.78808  0.36703  0.21016  1.0000
  C   C1382     1.0  0.79842  0.33685  0.25579  1.0000
  C   C1383     1.0  0.82107  0.33589  0.25544  1.0000
  C   C1384     1.0  0.83247  0.33492  0.28140  1.0000
  C   C1385     1.0  0.82134  0.33496  0.30793  1.0000
  C   C1386     1.0  0.80047  0.37201  0.18523  1.0000
  C   C1387     1.0  0.80391  0.39351  0.17696  1.0000
  C   C1388     1.0  0.79528  0.41018  0.19366  1.0000
  C   C1389     1.0  0.78327  0.40538  0.21877  1.0000
  C   C1390     1.0  0.77975  0.38389  0.22708  1.0000
  C   C1391     1.0  0.75024  0.14860  0.05428  1.0000
  H   H1091     1.0  0.82996  0.33632  0.23509  1.0000
  H   H1092     1.0  0.84998  0.33478  0.28100  1.0000
  H   H1093     1.0  0.83024  0.33480  0.32803  1.0000
  H   H1094     1.0  0.80813  0.35948  0.17261  1.0000
  H   H1095     1.0  0.81388  0.39724  0.15810  1.0000
  H   H1096     1.0  0.79848  0.42682  0.18762  1.0000
  H   H1097     1.0  0.77715  0.41833  0.23213  1.0000
  H   H1098     1.0  0.77085  0.38041  0.24696  1.0000
  H   H1099     1.0  0.77534  0.33600  0.16031  1.0000
  H   H1100     1.0  0.72265  0.29581  0.25732  1.0000
  C   C1392     1.0  0.80605  0.30258  0.20269  1.0000
  H   H1101     1.0  0.69861  0.14000  0.07758  1.0000
  C   C1393     1.0  0.82286  0.42871  0.42180  1.0000
  C   C1394     1.0  0.79988  0.44865  0.31476  1.0000
  C   C1395     1.0  0.71174  0.32448  0.23469  1.0000
  H   H1102     1.0  0.66654  0.03566  0.20660  1.0000
  H   H1103     1.0  0.83982  0.47630  0.29409  1.0000
  H   H1104     1.0  0.87050  0.35134  0.99252  1.0000
  C   C1396     1.0  0.66834  0.00708  0.14397  1.0000
  H   H1105     1.0  0.78233  0.22663  0.99512  1.0000
  C   C1397     1.0  0.66666  0.29207  0.45317  1.0000
  C   C1398     1.0  0.82906  0.17250  0.02762  1.0000
  C   C1399     1.0  0.72430  0.26592  0.45917  1.0000
  C   C1400     1.0  0.67191  0.18465  0.45713  1.0000
  H   H1106     1.0  0.96727  0.24379  0.09558  1.0000
  C   C1401     1.0  0.97011  0.25796  0.10841  1.0000
  C   C1402     1.0  0.72803  0.15196  0.05800  1.0000
  H   H1107     1.0  0.73068  0.27112  0.43825  1.0000
  H   H1108     1.0  0.73176  0.45867  0.44970  1.0000
  H   H1109     1.0  0.97406  0.38547  0.28409  1.0000
  C   C1403     1.0  0.70094  0.00329  0.07650  1.0000
  P   P47       1.0  0.93043  0.48512  0.27320  1.0000
  H   H1110     1.0  0.71160  0.47553  0.38627  1.0000
  H   H1111     1.0  0.97989  0.30859  0.15438  1.0000
  H   H1112     1.0  0.86217  0.43438  0.37015  1.0000
  C   C1404     1.0  0.77676  0.11266  0.00544  1.0000
  H   H1113     1.0  0.92449  0.44087  0.18574  1.0000
  C   C1405     1.0  0.79720  0.16896  0.07088  1.0000
  H   H1114     1.0  0.71647  0.10892  0.10171  1.0000
  C   C1406     1.0  0.71922  0.01017  0.06097  1.0000
  C   C1407     1.0  0.79300  0.32040  0.19513  1.0000
  H   H1115     1.0  0.78753  0.31023  0.12309  1.0000
  C   C1408     1.0  0.74935  0.31513  0.24209  1.0000
  H   H1116     1.0  0.81984  0.09178  0.04193  1.0000
  C   C1409     1.0  0.74024  0.42853  0.38433  1.0000
  C   C1410     1.0  0.73984  0.34792  0.21576  1.0000
  H   H1117     1.0  0.80797  0.43257  0.27484  1.0000
  H   H1118     1.0  0.73813  0.41127  0.38699  1.0000
  H   H1119     1.0  0.74864  0.16112  0.46256  1.0000
  H   H1120     1.0  0.77410  0.42559  0.37490  1.0000
  C   C1411     1.0  0.75569  0.33415  0.22758  1.0000
  H   H1121     1.0  0.78713  0.08050  0.07981  1.0000
  C   C1412     1.0  0.97467  0.38932  0.26112  1.0000
  C   C1413     1.0  0.79882  0.33636  0.30855  1.0000
  H   H1122     1.0  0.76138  0.30396  0.25054  1.0000
  C   C1414     1.0  0.98742  0.39175  0.11404  1.0000
  H   H1123     1.0  0.96121  0.21376  0.01464  1.0000
  C   C1415     1.0  0.80272  0.15088  0.05425  1.0000
  C   C1416     1.0  0.76068  0.43673  0.37772  1.0000
  S   S195      1.0  0.76542  0.34809  0.46595  1.0000
  H   H1124     1.0  0.82146  0.06878  0.99876  1.0000
  C   C1417     1.0  0.80595  0.29064  0.15292  1.0000
  C   C1418     1.0  0.80733  0.18871  0.06555  1.0000
  H   H1125     1.0  0.96780  0.31798  0.08510  1.0000
  C   C1419     1.0  0.72745  0.31042  0.24585  1.0000
  H   H1126     1.0  0.75914  0.15947  0.04005  1.0000
  H   H1127     1.0  0.82324  0.13924  0.01926  1.0000
  C   C1420     1.0  0.68605  0.01842  0.08757  1.0000
  C   C1421     1.0  0.79695  0.08915  0.09496  1.0000
  C   C1422     1.0  0.87070  0.46012  0.29245  1.0000
  C   C1423     1.0  0.84261  0.42570  0.40739  1.0000
  H   H1128     1.0  0.70683  0.43607  0.39313  1.0000
  C   C1424     1.0  0.78868  0.48397  0.27947  1.0000
  H   H1129     1.0  0.96851  0.35036  0.05798  1.0000
  C   C1425     1.0  0.65865  0.17909  0.43417  1.0000
  H   H1130     1.0  0.71196  0.06437  0.06608  1.0000
  C   C1426     1.0  0.83143  0.45098  0.36983  1.0000
  S   S196      1.0  0.78241  0.39807  0.47003  1.0000
  C   C1427     1.0  0.96156  0.36478  0.09970  1.0000
  H   H1131     1.0  0.65896  0.03988  0.15454  1.0000
  C   C1428     1.0  0.84696  0.43695  0.38152  1.0000
  H   H1132     1.0  0.68006  0.05247  0.09424  1.0000
  H   H1133     1.0  0.69392  0.02833  0.99264  1.0000
  C   C1429     1.0  0.97001  0.22840  0.00980  1.0000
  H   H1134     1.0  0.73296  0.29528  0.48040  1.0000
  C   C1430     1.0  0.95389  0.48666  0.18942  1.0000
  C   C1431     1.0  0.71421  0.24592  0.46225  1.0000
  H   H1135     1.0  0.67752  0.17210  0.47187  1.0000
  Fe  Fe98      1.0  0.89669  0.26015  0.98978  1.0000
  C   C1432     1.0  0.72571  0.27949  0.48293  1.0000
  H   H1136     1.0  0.74751  0.49020  0.37414  1.0000
  C   C1433     1.0  0.72404  0.18385  0.47580  1.0000
  C   C1434     1.0  0.90168  0.48270  0.28061  1.0000
  H   H1137     1.0  0.74958  0.20371  0.99817  1.0000
  H   H1138     1.0  0.73010  0.99840  0.05134  1.0000
  C   C1435     1.0  0.79646  0.46498  0.26699  1.0000
  H   H1139     1.0  0.66376  0.99072  0.04835  1.0000
  H   H1140     1.0  0.96220  0.28051  0.98863  1.0000
  H   H1141     1.0  0.68191  0.00138  0.22591  1.0000
  C   C1436     1.0  0.66517  0.02456  0.16262  1.0000
  H   H1142     1.0  0.83167  0.34467  0.00112  1.0000
  C   C1437     1.0  0.94625  0.36152  0.83016  1.0000
  S   S197      1.0  0.74740  0.37902  0.51801  1.0000
  S   S198      1.0  0.80901  0.35950  0.52746  1.0000
  H   H1143     1.0  0.81818  0.42595  0.69066  1.0000
  H   H1144     1.0  0.80306  0.32784  0.68385  1.0000
  H   H1145     1.0  0.88940  0.29552  0.77230  1.0000
  H   H1146     1.0  0.91942  0.31258  0.74489  1.0000
  H   H1147     1.0  0.85304  0.40501  0.56742  1.0000
  C   C1438     1.0  0.94762  0.29173  0.80196  1.0000
  Fe  Fe99      1.0  0.85572  0.38628  0.69024  1.0000
  S   S199      1.0  0.84478  0.38855  0.73695  1.0000
  S   S200      1.0  0.82703  0.38490  0.65907  1.0000
  Fe  Fe100     1.0  0.90313  0.39229  0.70824  1.0000
  S   S201      1.0  0.89515  0.39486  0.75587  1.0000
  S   S202      1.0  0.93652  0.40041  0.69032  1.0000
  Fe  Fe101     1.0  0.87291  0.36697  0.74834  1.0000
  S   S203      1.0  0.86661  0.33660  0.77616  1.0000
  Fe  Fe102     1.0  0.86774  0.41612  0.74050  1.0000
  S   S204      1.0  0.85658  0.44704  0.76211  1.0000
  S   S205      1.0  0.88271  0.36287  0.70121  1.0000
  S   S206      1.0  0.87691  0.41540  0.69348  1.0000
  Fe  Fe103     1.0  0.87021  0.28797  0.94688  1.0000
  S   S207      1.0  0.87805  0.25243  0.94971  1.0000
  S   S208      1.0  0.87820  0.31274  0.91070  1.0000
  Fe  Fe104     1.0  0.67990  0.10563  0.95480  1.0000
  S   S209      1.0  0.71561  0.10454  0.94439  1.0000
  H   H1148     1.0  0.81277  0.42868  0.49861  1.0000
  H   H1149     1.0  0.90458  0.19367  0.85124  1.0000
  H   H1150     1.0  0.89610  0.27629  0.81835  1.0000
  C   C1439     1.0  0.85219  0.36123  0.92414  1.0000
  C   C1440     1.0  0.78595  0.31428  0.61648  1.0000
  H   H1151     1.0  0.86997  0.20549  0.87392  1.0000
  P   P48       1.0  0.69242  0.21351  0.49295  1.0000
  H   H1152     1.0  0.95680  0.30987  0.76344  1.0000
  C   C1441     1.0  0.81864  0.47591  0.63901  1.0000
  C   C1442     1.0  0.74464  0.37953  0.93166  1.0000
  C   C1443     1.0  0.80821  0.45711  0.63055  1.0000
  C   C1444     1.0  0.77790  0.09975  0.98092  1.0000
  H   H1153     1.0  0.90912  0.45597  0.78189  1.0000
  H   H1154     1.0  0.71613  0.20097  0.54506  1.0000
  Fe  Fe105     1.0  0.77973  0.36933  0.50016  1.0000
  H   H1155     1.0  0.86417  0.24390  0.88603  1.0000
  H   H1156     1.0  0.75676  0.00452  0.96823  1.0000
  C   C1445     1.0  0.67708  0.03975  0.86479  1.0000
  C   C1446     1.0  0.79100  0.48301  0.58120  1.0000
  H   H1157     1.0  0.77693  0.32814  0.54349  1.0000
  H   H1158     1.0  0.89338  0.45740  0.72506  1.0000
  H   H1159     1.0  0.71760  0.07642  0.86393  1.0000
  C   C1447     1.0  0.87079  0.32995  0.81341  1.0000
  C   C1448     1.0  0.88285  0.34290  0.83160  1.0000
  C   C1449     1.0  0.88505  0.33722  0.86120  1.0000
  C   C1450     1.0  0.87544  0.31848  0.87296  1.0000
  C   C1451     1.0  0.86384  0.30528  0.85461  1.0000
  C   C1452     1.0  0.86148  0.31104  0.82508  1.0000
  H   H1160     1.0  0.89014  0.35744  0.82297  1.0000
  H   H1161     1.0  0.89409  0.34753  0.87516  1.0000
  H   H1162     1.0  0.85651  0.29076  0.86321  1.0000
  H   H1163     1.0  0.85218  0.30085  0.81122  1.0000
  C   C1453     1.0  0.96109  0.38832  0.70182  1.0000
  C   C1454     1.0  0.98067  0.39745  0.69230  1.0000
  C   C1455     1.0  0.96162  0.37006  0.72007  1.0000
  H   H1164     1.0  0.98042  0.41136  0.67790  1.0000
  H   H1165     1.0  0.94665  0.36281  0.72734  1.0000
  C   C1456     1.0  0.71572  0.35197  0.56924  1.0000
  C   C1457     1.0  0.93369  0.32055  0.90146  1.0000
  C   C1458     1.0  0.72885  0.33362  0.57209  1.0000
  H   H1166     1.0  0.93332  0.21995  0.84084  1.0000
  C   C1459     1.0  0.71723  0.27299  0.50985  1.0000
  C   C1460     1.0  0.70712  0.25302  0.51301  1.0000
  C   C1461     1.0  0.81384  0.36715  0.56387  1.0000
  C   C1462     1.0  0.79781  0.37670  0.58120  1.0000
  C   C1463     1.0  0.80217  0.38191  0.61021  1.0000
  C   C1464     1.0  0.82271  0.37813  0.62216  1.0000
  C   C1465     1.0  0.83886  0.36894  0.60469  1.0000
  C   C1466     1.0  0.83434  0.36323  0.57586  1.0000
  H   H1167     1.0  0.78199  0.37985  0.57233  1.0000
  H   H1168     1.0  0.78949  0.38894  0.62346  1.0000
  H   H1169     1.0  0.85470  0.36586  0.61353  1.0000
  H   H1170     1.0  0.84685  0.35582  0.56269  1.0000
  H   H1171     1.0  0.89278  0.27043  0.87623  1.0000
  C   C1467     1.0  0.77504  0.31103  0.53999  1.0000
  H   H1172     1.0  0.93443  0.25852  0.91307  1.0000
  H   H1173     1.0  0.76666  0.42943  0.55977  1.0000
  H   H1174     1.0  0.68841  0.01295  0.80614  1.0000
  H   H1175     1.0  0.97263  0.25958  0.89076  1.0000
  C   C1468     1.0  0.96257  0.43499  0.74826  1.0000
  C   C1469     1.0  0.91623  0.46573  0.79852  1.0000
  H   H1176     1.0  0.98422  0.33012  0.79737  1.0000
  H   H1177     1.0  0.76976  0.31873  0.65792  1.0000
  H   H1178     1.0  0.93201  0.45660  0.65160  1.0000
  H   H1179     1.0  0.66574  0.03289  0.85013  1.0000
  H   H1180     1.0  0.74668  0.17577  0.55334  1.0000
  C   C1470     1.0  0.80289  0.18075  0.96628  1.0000
  C   C1471     1.0  0.83437  0.41559  0.53074  1.0000
  C   C1472     1.0  0.93428  0.45816  0.81357  1.0000
  S   S210      1.0  0.74622  0.44087  0.50588  1.0000
  H   H1181     1.0  0.67504  0.11394  0.82175  1.0000
  C   C1473     1.0  0.95649  0.34918  0.80889  1.0000
  P   P49       1.0  0.98725  0.46882  0.72539  1.0000
  Fe  Fe106     1.0  0.71996  0.12773  0.98151  1.0000
  H   H1182     1.0  0.84027  0.41408  0.80810  1.0000
  H   H1183     1.0  0.80030  0.42435  0.64329  1.0000
  C   C1474     1.0  0.98161  0.36104  0.72856  1.0000
  H   H1184     1.0  0.66128  0.24509  0.51460  1.0000
  H   H1185     1.0  0.69001  0.99521  0.75503  1.0000
  H   H1186     1.0  0.81747  0.42805  0.84835  1.0000
  P   P50       1.0  0.81178  0.35695  0.89880  1.0000
  H   H1187     1.0  0.88760  0.47134  0.66514  1.0000
  C   C1475     1.0  0.66560  0.10798  0.86645  1.0000
  C   C1476     1.0  0.82374  0.32388  0.64649  1.0000
  H   H1188     1.0  0.71972  0.06399  0.91522  1.0000
  C   C1477     1.0  0.99121  0.48678  0.75504  1.0000
  P   P51       1.0  0.93609  0.26688  0.85066  1.0000
  C   C1478     1.0  0.96533  0.47710  0.70229  1.0000
  C   C1479     1.0  0.81038  0.44012  0.57069  1.0000
  C   C1480     1.0  0.93467  0.27584  0.90949  1.0000
  H   H1189     1.0  0.71808  0.28377  0.52803  1.0000
  C   C1481     1.0  0.71182  0.27482  0.63651  1.0000
  C   C1482     1.0  0.93334  0.28926  0.93344  1.0000
  H   H1190     1.0  0.81769  0.17416  0.95728  1.0000
  C   C1483     1.0  0.72618  0.01919  0.97962  1.0000
  C   C1484     1.0  0.83014  0.35731  0.92886  1.0000
  C   C1485     1.0  0.87575  0.46176  0.62372  1.0000
  P   P52       1.0  0.76128  0.30857  0.59755  1.0000
  H   H1191     1.0  0.83200  0.42599  0.60268  1.0000
  H   H1192     1.0  0.79554  0.30219  0.82550  1.0000
  C   C1486     1.0  0.72336  0.29009  0.62010  1.0000
  C   C1487     1.0  0.67459  0.00307  0.75126  1.0000
  C   C1488     1.0  0.67294  0.01874  0.72920  1.0000
  H   H1193     1.0  0.75386  0.24536  0.66340  1.0000
  C   C1489     1.0  0.72279  0.25873  0.65213  1.0000
  C   C1490     1.0  0.91833  0.22549  0.85051  1.0000
  C   C1491     1.0  0.83988  0.41524  0.56002  1.0000
  H   H1194     1.0  0.80518  0.40370  0.88783  1.0000
  H   H1195     1.0  0.79439  0.07351  0.95986  1.0000
  H   H1196     1.0  0.85838  0.36476  0.90255  1.0000
  H   H1197     1.0  0.69358  0.03793  0.93507  1.0000
  Fe  Fe107     1.0  0.71656  0.07753  0.97820  1.0000
  C   C1492     1.0  0.77837  0.28057  0.50802  1.0000
  H   H1198     1.0  0.72569  0.31985  0.55869  1.0000
  C   C1493     1.0  0.82213  0.41117  0.84826  1.0000
  S   S211      1.0  0.68101  0.07767  0.98679  1.0000
  H   H1199     1.0  0.84307  0.40543  0.51557  1.0000
  H   H1200     1.0  0.97557  0.38849  0.78445  1.0000
  C   C1494     1.0  0.93519  0.30717  0.87736  1.0000
  C   C1495     1.0  0.81516  0.39724  0.87061  1.0000
  H   H1201     1.0  0.78738  0.31304  0.49623  1.0000
  H   H1202     1.0  0.94121  0.44251  0.80866  1.0000
  P   P53       1.0  0.79472  0.45605  0.59607  1.0000
  H   H1203     1.0  0.94909  0.34768  0.78784  1.0000
  C   C1496     1.0  0.67319  0.21273  0.52269  1.0000
  H   H1204     1.0  0.72071  0.01568  0.83647  1.0000
  C   C1497     1.0  0.93512  0.49046  0.66071  1.0000
  H   H1205     1.0  0.80610  0.34727  0.96081  1.0000
  C   C1498     1.0  0.74534  0.25786  0.65131  1.0000
  H   H1206     1.0  0.76828  0.25000  0.52600  1.0000
  H   H1207     1.0  0.83597  0.45947  0.70565  1.0000
  C   C1499     1.0  0.82818  0.45890  0.68478  1.0000
  C   C1500     1.0  0.80128  0.30494  0.84720  1.0000
  H   H1208     1.0  0.78508  0.15107  0.96099  1.0000
  C   C1501     1.0  0.71966  0.37013  0.58576  1.0000
  C   C1502     1.0  0.73581  0.44047  0.63164  1.0000
  C   C1503     1.0  0.72587  0.42954  0.60926  1.0000
  C   C1504     1.0  0.73720  0.42571  0.58345  1.0000
  C   C1505     1.0  0.75843  0.43275  0.57998  1.0000
  C   C1506     1.0  0.76844  0.44416  0.60203  1.0000
  C   C1507     1.0  0.75694  0.44793  0.62797  1.0000
  C   C1508     1.0  0.80800  0.43915  0.64946  1.0000
  C   C1509     1.0  0.92266  0.30392  0.76502  1.0000
  H   H1209     1.0  0.82023  0.27754  0.90629  1.0000
  C   C1510     1.0  0.96225  0.25388  0.84683  1.0000
  C   C1511     1.0  0.90960  0.28339  0.80671  1.0000
  C   C1512     1.0  0.88513  0.47227  0.73058  1.0000
  H   H1210     1.0  0.67447  0.31129  0.53160  1.0000
  H   H1211     1.0  0.95784  0.46520  0.84589  1.0000
  H   H1212     1.0  0.72957  0.41757  0.56570  1.0000
  C   C1513     1.0  0.93574  0.28467  0.88126  1.0000
  H   H1213     1.0  0.97947  0.31710  0.89376  1.0000
  C   C1514     1.0  0.93064  0.28186  0.81755  1.0000
  C   C1515     1.0  0.90570  0.29429  0.78050  1.0000
  H   H1214     1.0  0.93231  0.33782  0.89843  1.0000
  C   C1516     1.0  0.81721  0.42852  0.52124  1.0000
  C   C1517     1.0  0.74978  0.35157  0.60840  1.0000
  C   C1518     1.0  0.66235  0.10818  0.83613  1.0000
  H   H1215     1.0  0.95704  0.24458  0.80240  1.0000
  C   C1519     1.0  0.98837  0.23442  0.81699  1.0000
  C   C1520     1.0  0.93281  0.31161  0.92947  1.0000
  C   C1521     1.0  0.90203  0.21050  0.85636  1.0000
  C   C1522     1.0  0.88251  0.21713  0.86909  1.0000
  C   C1523     1.0  0.91519  0.24725  0.85750  1.0000
  C   C1524     1.0  0.82285  0.35136  0.95682  1.0000
  C   C1525     1.0  0.87923  0.23877  0.87592  1.0000
  C   C1526     1.0  0.86666  0.35943  0.94713  1.0000
  H   H1216     1.0  0.79763  0.33931  0.84356  1.0000
  C   C1527     1.0  0.69131  0.05539  0.85400  1.0000
  C   C1528     1.0  0.95610  0.36421  0.85693  1.0000
  C   C1529     1.0  0.86646  0.46868  0.59769  1.0000
  C   C1530     1.0  0.67243  0.30603  0.50958  1.0000
  H   H1217     1.0  0.71381  0.24693  0.66486  1.0000
  C   C1531     1.0  0.89552  0.25376  0.87033  1.0000
  H   H1218     1.0  0.71446  0.30232  0.60817  1.0000
  C   C1532     1.0  0.80387  0.32367  0.66112  1.0000
  C   C1533     1.0  0.97676  0.25285  0.86996  1.0000
  H   H1219     1.0  0.79790  0.39019  0.93965  1.0000
  C   C1534     1.0  0.96813  0.24435  0.82039  1.0000
  H   H1220     1.0  0.93521  0.31444  0.85587  1.0000
  H   H1221     1.0  0.96392  0.29105  0.81007  1.0000
  C   C1535     1.0  0.74054  0.00163  0.97627  1.0000
  S   S212      1.0  0.74028  0.15957  0.98276  1.0000
  H   H1222     1.0  0.68066  0.11359  0.87509  1.0000
  H   H1223     1.0  0.69033  0.06084  0.83159  1.0000
  C   C1536     1.0  0.94355  0.47090  0.83470  1.0000
  C   C1537     1.0  0.70760  0.05751  0.90119  1.0000
  C   C1538     1.0  0.70661  0.06424  0.87220  1.0000
  H   H1224     1.0  0.84022  0.31957  0.60560  1.0000
  C   C1539     1.0  0.97637  0.33913  0.81451  1.0000
  C   C1540     1.0  0.67749  0.03344  0.89419  1.0000
  C   C1541     1.0  0.69285  0.04253  0.91232  1.0000
  C   C1542     1.0  0.73682  0.37000  0.60513  1.0000
  H   H1225     1.0  0.83822  0.32835  0.65782  1.0000
  H   H1226     1.0  0.83926  0.35096  0.84735  1.0000
  H   H1227     1.0  0.87858  0.44471  0.62794  1.0000
  H   H1228     1.0  0.85099  0.37550  0.80774  1.0000
  S   S213      1.0  0.82706  0.21832  0.97321  1.0000
  H   H1229     1.0  0.72704  0.44347  0.65167  1.0000
  C   C1543     1.0  0.95507  0.46188  0.68513  1.0000
  C   C1544     1.0  0.74604  0.28938  0.61924  1.0000
  C   C1545     1.0  0.71443  0.19485  0.49908  1.0000
  H   H1230     1.0  0.76304  0.35204  0.62335  1.0000
  C   C1546     1.0  0.83428  0.36770  0.84780  1.0000
  H   H1231     1.0  0.76203  0.40209  0.95734  1.0000
  H   H1232     1.0  0.88377  0.36153  0.94309  1.0000
  H   H1233     1.0  0.74025  0.38421  0.61750  1.0000
  C   C1547     1.0  0.98610  0.34123  0.84168  1.0000
  H   H1234     1.0  0.94369  0.40901  0.76645  1.0000
  C   C1548     1.0  0.82484  0.31901  0.61704  1.0000
  H   H1235     1.0  0.86221  0.45696  0.58163  1.0000
  H   H1236     1.0  0.93086  0.32194  0.94805  1.0000
  H   H1237     1.0  0.76741  0.34319  0.88601  1.0000
  C   C1549     1.0  0.80260  0.32598  0.85747  1.0000
  H   H1238     1.0  0.76294  0.15573  0.51220  1.0000
  C   C1550     1.0  0.81519  0.29105  0.89266  1.0000
  C   C1551     1.0  0.78428  0.16749  0.96843  1.0000
  C   C1552     1.0  0.75694  0.27306  0.63487  1.0000
  H   H1239     1.0  0.70270  0.35224  0.55374  1.0000
  H   H1240     1.0  0.70937  0.42414  0.61180  1.0000
  C   C1553     1.0  0.86657  0.47173  0.74807  1.0000
  C   C1554     1.0  0.74892  0.48507  0.50897  1.0000
  C   C1555     1.0  0.74577  0.33312  0.59210  1.0000
  C   C1556     1.0  0.65972  0.23062  0.52781  1.0000
  C   C1557     1.0  0.98343  0.44279  0.74254  1.0000
  C   C1558     1.0  0.81040  0.32973  0.88540  1.0000
  H   H1241     1.0  0.93203  0.28221  0.95504  1.0000
  H   H1242     1.0  0.69432  0.27546  0.63708  1.0000
  C   C1559     1.0  0.84109  0.38161  0.82540  1.0000
  H   H1243     1.0  0.73183  0.35533  0.90390  1.0000
  C   C1560     1.0  0.78360  0.38249  0.93160  1.0000
  C   C1561     1.0  0.76744  0.29747  0.56242  1.0000
  H   H1244     1.0  0.94834  0.37412  0.87322  1.0000
  H   H1245     1.0  0.93081  0.36920  0.82572  1.0000
  C   C1562     1.0  0.80749  0.28748  0.86483  1.0000
  H   H1246     1.0  0.94845  0.44376  0.74078  1.0000
  C   C1563     1.0  0.80262  0.20230  0.97585  1.0000
  C   C1564     1.0  0.82779  0.42721  0.58002  1.0000
  C   C1565     1.0  0.94365  0.30249  0.77562  1.0000
  C   C1566     1.0  0.78507  0.31865  0.64629  1.0000
  C   C1567     1.0  0.81806  0.44003  0.67638  1.0000
  C   C1568     1.0  0.83501  0.40334  0.82558  1.0000
  C   C1569     1.0  0.82103  0.37530  0.87041  1.0000
  C   C1570     1.0  0.80603  0.31448  0.60196  1.0000
  H   H1247     1.0  0.67867  0.17898  0.53348  1.0000
  C   C1571     1.0  0.77035  0.26700  0.53004  1.0000
  S   S214      1.0  0.70512  0.33541  0.49627  1.0000
  H   H1248     1.0  0.70960  0.38437  0.58308  1.0000
  H   H1249     1.0  0.80735  0.31153  0.57897  1.0000
  H   H1250     1.0  0.76624  0.10205  0.96378  1.0000
  H   H1251     1.0  0.82320  0.31435  0.92425  1.0000
  C   C1572     1.0  0.78542  0.36582  0.91141  1.0000
  S   S215      1.0  0.73536  0.04586  0.97140  1.0000
  H   H1252     1.0  0.76415  0.45690  0.64524  1.0000
  H   H1253     1.0  0.77442  0.27203  0.63425  1.0000
  H   H1254     1.0  0.79195  0.45062  0.53318  1.0000
  C   C1573     1.0  0.72294  0.19214  0.52698  1.0000
  C   C1574     1.0  0.90739  0.48600  0.80464  1.0000
  H   H1255     1.0  0.68703  0.02313  0.71634  1.0000
  C   C1575     1.0  0.97768  0.40391  0.77353  1.0000
  C   C1576     1.0  0.80535  0.44084  0.54103  1.0000
  Fe  Fe108     1.0  0.84845  0.24903  0.97928  1.0000
  H   H1256     1.0  0.98364  0.35677  0.88328  1.0000
  C   C1577     1.0  0.83732  0.34970  0.97973  1.0000
  C   C1578     1.0  0.76469  0.17555  0.97973  1.0000
  C   C1579     1.0  0.97600  0.35423  0.86262  1.0000
  C   C1580     1.0  0.74629  0.36297  0.91156  1.0000
  C   C1581     1.0  0.76501  0.27537  0.55724  1.0000
  H   H1257     1.0  0.75506  0.48194  0.53050  1.0000
  C   C1582     1.0  0.76658  0.35612  0.90144  1.0000
  H   H1258     1.0  0.75901  0.26454  0.57402  1.0000
  C   C1583     1.0  0.66949  0.19345  0.53831  1.0000
  C   C1584     1.0  0.74032  0.17799  0.53170  1.0000
  H   H1259     1.0  0.98196  0.34679  0.74236  1.0000
  H   H1260     1.0  0.81952  0.48197  0.55347  1.0000
  C   C1585     1.0  0.81677  0.31207  0.90286  1.0000
  S   S216      1.0  0.83963  0.28462  0.97387  1.0000
  C   C1586     1.0  0.78082  0.30253  0.51307  1.0000
  H   H1261     1.0  0.95906  0.44487  0.68716  1.0000
  C   C1587     1.0  0.95975  0.41548  0.76339  1.0000
  H   H1262     1.0  0.80650  0.27118  0.85689  1.0000
  H   H1263     1.0  0.70071  0.24829  0.53407  1.0000
  C   C1588     1.0  0.71205  0.00060  0.83577  1.0000
  H   H1264     1.0  0.98052  0.29087  0.93445  1.0000
  C   C1589     1.0  0.88093  0.47681  0.64465  1.0000
  H   H1265     1.0  0.81940  0.48972  0.62459  1.0000
  C   C1590     1.0  0.76330  0.38930  0.94167  1.0000
  H   H1266     1.0  0.72891  0.38475  0.93956  1.0000
  C   C1591     1.0  0.82837  0.47689  0.66617  1.0000
  C   C1592     1.0  0.85925  0.35357  0.97489  1.0000
  S   S217      1.0  0.89044  0.29552  0.98558  1.0000
  P   P54       1.0  0.65860  0.01403  0.90912  1.0000
  C   C1593     1.0  0.93989  0.46854  0.66460  1.0000
  H   H1267     1.0  0.76188  0.48989  0.60606  1.0000
  H   H1268     1.0  0.70467  0.00072  0.91083  1.0000
  C   C1594     1.0  0.69378  0.99893  0.81843  1.0000
  C   C1595     1.0  0.74386  0.46758  0.49125  1.0000
  C   C1596     1.0  0.79383  0.08375  0.97868  1.0000
  C   C1597     1.0  0.74950  0.16672  0.50853  1.0000
  C   C1598     1.0  0.70509  0.23953  0.48903  1.0000
  H   H1269     1.0  0.78264  0.27411  0.48700  1.0000
  C   C1599     1.0  0.68525  0.31538  0.48724  1.0000
  Fe  Fe109     1.0  0.88042  0.56629  0.22287  1.0000
  S   S218      1.0  0.88024  0.57182  0.27088  1.0000
  S   S219      1.0  0.89046  0.53424  0.20392  1.0000
  Fe  Fe110     1.0  0.87415  0.61417  0.20681  1.0000
  S   S220      1.0  0.87308  0.62322  0.25412  1.0000
  S   S221      1.0  0.87637  0.64233  0.17370  1.0000
  Fe  Fe111     1.0  0.90113  0.60028  0.25963  1.0000
  S   S222      1.0  0.92858  0.60914  0.28895  1.0000
  Fe  Fe112     1.0  0.85220  0.59418  0.26211  1.0000
  S   S223      1.0  0.82108  0.59467  0.28993  1.0000
  S   S224      1.0  0.90364  0.59308  0.21250  1.0000
  S   S225      1.0  0.85089  0.58671  0.21400  1.0000
  Fe  Fe113     1.0  0.77824  0.60081  0.45784  1.0000
  S   S226      1.0  0.74334  0.59830  0.44571  1.0000
  S   S227      1.0  0.80780  0.60411  0.42745  1.0000
  Fe  Fe114     1.0  0.85710  0.68851  0.01168  1.0000
  S   S228      1.0  0.86366  0.72207  0.02620  1.0000
  S   S229      1.0  0.84751  0.66064  0.04251  1.0000
  Fe  Fe115     1.0  0.68398  0.87498  0.01350  1.0000
  S   S230      1.0  0.71630  0.88685  0.02775  1.0000
  C   C1600     1.0  0.87387  0.78002  0.01314  1.0000
  H   H1270     1.0  0.67072  0.83959  0.32760  1.0000
  C   C1601     1.0  0.69858  0.65863  0.41255  1.0000
  H   H1271     1.0  0.80605  0.84156  0.04718  1.0000
  H   H1272     1.0  0.72515  0.49657  0.43313  1.0000
  C   C1602     1.0  0.93319  0.52973  0.26449  1.0000
  H   H1273     1.0  0.98618  0.60037  0.16292  1.0000
  H   H1274     1.0  0.93263  0.54792  0.15495  1.0000
  C   C1603     1.0  0.89403  0.77267  0.02257  1.0000
  C   C1604     1.0  0.86562  0.49844  0.28484  1.0000
  C   C1605     1.0  0.69485  0.89175  0.31616  1.0000
  H   H1275     1.0  0.89760  0.69320  0.30226  1.0000
  H   H1276     1.0  0.79778  0.55507  0.40891  1.0000
  H   H1277     1.0  0.95617  0.59786  0.23811  1.0000
  C   C1606     1.0  0.80599  0.51179  0.36530  1.0000
  C   C1607     1.0  0.79036  0.67378  0.32829  1.0000
  H   H1278     1.0  0.87161  0.78465  0.99062  1.0000
  H   H1279     1.0  0.78423  0.49757  0.26569  1.0000
  C   C1608     1.0  0.67267  0.55416  0.47088  1.0000
  H   H1280     1.0  0.65878  0.90714  0.12962  1.0000
  C   C1609     1.0  0.81783  0.59609  0.32839  1.0000
  C   C1610     1.0  0.83535  0.59535  0.34727  1.0000
  C   C1611     1.0  0.83193  0.59750  0.37748  1.0000
  C   C1612     1.0  0.81100  0.60012  0.38934  1.0000
  C   C1613     1.0  0.79347  0.60042  0.37052  1.0000
  C   C1614     1.0  0.79690  0.59850  0.34029  1.0000
  H   H1281     1.0  0.85156  0.59353  0.33856  1.0000
  H   H1282     1.0  0.84566  0.59734  0.39175  1.0000
  H   H1283     1.0  0.77733  0.60270  0.37923  1.0000
  H   H1284     1.0  0.78329  0.59927  0.32588  1.0000
  C   C1615     1.0  0.86866  0.64654  0.13692  1.0000
  C   C1616     1.0  0.87594  0.66513  0.12199  1.0000
  C   C1617     1.0  0.86998  0.66950  0.09301  1.0000
  C   C1618     1.0  0.85643  0.65542  0.07861  1.0000
  C   C1619     1.0  0.84918  0.63680  0.09355  1.0000
  C   C1620     1.0  0.85530  0.63232  0.12246  1.0000
  H   H1285     1.0  0.88630  0.67624  0.13290  1.0000
  H   H1286     1.0  0.87561  0.68392  0.08190  1.0000
  H   H1287     1.0  0.83865  0.62580  0.08268  1.0000
  H   H1288     1.0  0.84943  0.61805  0.13365  1.0000
  C   C1621     1.0  0.95570  0.61434  0.27896  1.0000
  C   C1622     1.0  0.96794  0.62610  0.29833  1.0000
  H   H1289     1.0  0.96920  0.70891  0.03163  1.0000
  H   H1290     1.0  0.96059  0.63171  0.31829  1.0000
  H   H1291     1.0  0.95841  0.57754  0.14778  1.0000
  H   H1292     1.0  0.69422  0.79665  0.01528  1.0000
  C   C1623     1.0  0.87491  0.51062  0.20730  1.0000
  C   C1624     1.0  0.85324  0.51106  0.21624  1.0000
  H   H1293     1.0  0.77508  0.68005  0.33637  1.0000
  H   H1294     1.0  0.84552  0.52625  0.22143  1.0000
  H   H1295     1.0  0.94432  0.74351  0.08767  1.0000
  C   C1625     1.0  0.82181  0.65091  0.33480  1.0000
  C   C1626     1.0  0.80225  0.65921  0.34531  1.0000
  H   H1296     1.0  0.69526  0.88153  0.29736  1.0000
  C   C1627     1.0  0.79811  0.68015  0.30083  1.0000
  C   C1628     1.0  0.81786  0.67193  0.29021  1.0000
  C   C1629     1.0  0.82938  0.65684  0.30716  1.0000
  P   P55       1.0  0.82787  0.67967  0.25454  1.0000
  C   C1630     1.0  0.85692  0.68269  0.25543  1.0000
  C   C1631     1.0  0.82068  0.65960  0.22842  1.0000
  C   C1632     1.0  0.81403  0.63902  0.23767  1.0000
  C   C1633     1.0  0.80881  0.62345  0.21743  1.0000
  C   C1634     1.0  0.81030  0.62823  0.18776  1.0000
  C   C1635     1.0  0.81664  0.64875  0.17832  1.0000
  C   C1636     1.0  0.82168  0.66442  0.19853  1.0000
  C   C1637     1.0  0.86721  0.68817  0.28126  1.0000
  C   C1638     1.0  0.88973  0.68960  0.28209  1.0000
  C   C1639     1.0  0.71378  0.97646  0.99576  1.0000
  C   C1640     1.0  0.81597  0.70528  0.24406  1.0000
  C   C1641     1.0  0.79619  0.70600  0.22948  1.0000
  C   C1642     1.0  0.78667  0.72582  0.22195  1.0000
  C   C1643     1.0  0.79670  0.74505  0.22916  1.0000
  C   C1644     1.0  0.81630  0.74446  0.24388  1.0000
  C   C1645     1.0  0.82591  0.72466  0.25133  1.0000
  H   H1297     1.0  0.83095  0.63956  0.34795  1.0000
  C   C1646     1.0  0.67551  0.89529  0.33169  1.0000
  H   H1298     1.0  0.68981  0.97109  0.19261  1.0000
  C   C1647     1.0  0.71398  0.90131  0.32502  1.0000
  H   H1299     1.0  0.84417  0.64951  0.29901  1.0000
  H   H1300     1.0  0.81305  0.63475  0.26045  1.0000
  H   H1301     1.0  0.80412  0.60748  0.22489  1.0000
  H   H1302     1.0  0.80683  0.61594  0.17210  1.0000
  H   H1303     1.0  0.81813  0.65233  0.15530  1.0000
  H   H1304     1.0  0.82677  0.68015  0.19077  1.0000
  H   H1305     1.0  0.85793  0.69107  0.30088  1.0000
  H   H1306     1.0  0.65877  0.81518  0.02063  1.0000
  C   C1648     1.0  0.66199  0.58179  0.35138  1.0000
  H   H1307     1.0  0.78799  0.69126  0.22417  1.0000
  H   H1308     1.0  0.77141  0.72625  0.21070  1.0000
  H   H1309     1.0  0.78918  0.76038  0.22354  1.0000
  H   H1310     1.0  0.82398  0.75936  0.24974  1.0000
  H   H1311     1.0  0.84097  0.72453  0.26296  1.0000
  H   H1312     1.0  0.88109  0.76017  0.09262  1.0000
  H   H1313     1.0  0.72885  0.92146  0.35658  1.0000
  H   H1314     1.0  0.91958  0.68663  0.25786  1.0000
  H   H1315     1.0  0.95904  0.50192  0.31845  1.0000
  C   C1649     1.0  0.98734  0.61192  0.24688  1.0000
  H   H1316     1.0  0.67166  0.55236  0.42452  1.0000
  H   H1317     1.0  0.93391  0.56425  0.25862  1.0000
  H   H1318     1.0  0.85499  0.51239  0.28312  1.0000
  C   C1650     1.0  0.93966  0.51192  0.28160  1.0000
  C   C1651     1.0  0.95336  0.51527  0.30516  1.0000
  C   C1652     1.0  0.95979  0.53614  0.31194  1.0000
  C   C1653     1.0  0.95259  0.55378  0.29537  1.0000
  C   C1654     1.0  0.93948  0.55054  0.27149  1.0000
  C   C1655     1.0  0.89197  0.68122  0.23112  1.0000
  C   C1656     1.0  0.68550  0.80185  0.99616  1.0000
  H   H1319     1.0  0.66531  0.80987  0.36328  1.0000
  H   H1320     1.0  0.90566  0.61992  0.12320  1.0000
  C   C1657     1.0  0.73208  0.49344  0.45418  1.0000
  C   C1658     1.0  0.77835  0.78465  0.99023  1.0000
  C   C1659     1.0  0.67580  0.90761  0.35694  1.0000
  H   H1321     1.0  0.95702  0.57001  0.30106  1.0000
  H   H1322     1.0  0.71051  0.55764  0.41148  1.0000
  Fe  Fe116     1.0  0.70977  0.91576  0.99811  1.0000
  H   H1323     1.0  0.82464  0.49219  0.22444  1.0000
  H   H1324     1.0  0.78013  0.50006  0.31888  1.0000
  C   C1660     1.0  0.80749  0.53287  0.37552  1.0000
  C   C1661     1.0  0.92706  0.67690  0.08879  1.0000
  C   C1662     1.0  0.92231  0.66902  0.06144  1.0000
  C   C1663     1.0  0.92660  0.64744  0.05517  1.0000
  C   C1664     1.0  0.93598  0.63383  0.07608  1.0000
  C   C1665     1.0  0.94111  0.64172  0.10352  1.0000
  C   C1666     1.0  0.93629  0.66329  0.10987  1.0000
  P   P56       1.0  0.95241  0.62364  0.13067  1.0000
  C   C1667     1.0  0.95337  0.63659  0.16552  1.0000
  C   C1668     1.0  0.93420  0.60104  0.13430  1.0000
  C   C1669     1.0  0.91201  0.60419  0.12934  1.0000
  C   C1670     1.0  0.89758  0.58719  0.13316  1.0000
  C   C1671     1.0  0.90508  0.56690  0.14212  1.0000
  C   C1672     1.0  0.92704  0.56359  0.14728  1.0000
  H   H1325     1.0  0.66301  0.89271  0.21595  1.0000
  C   C1673     1.0  0.93526  0.63635  0.18408  1.0000
  C   C1674     1.0  0.93640  0.64471  0.21197  1.0000
  C   C1675     1.0  0.95555  0.65383  0.22135  1.0000
  H   H1326     1.0  0.81499  0.68366  0.08043  1.0000
  S   S231      1.0  0.92679  0.72419  0.01689  1.0000
  H   H1327     1.0  0.93925  0.66950  0.13116  1.0000
  C   C1676     1.0  0.66096  0.63570  0.40193  1.0000
  H   H1328     1.0  0.94249  0.70577  0.16666  1.0000
  H   H1329     1.0  0.78858  0.69134  0.28799  1.0000
  H   H1330     1.0  0.86217  0.67574  0.21001  1.0000
  H   H1331     1.0  0.72882  0.89870  0.31281  1.0000
  H   H1332     1.0  0.97013  0.53877  0.33022  1.0000
  H   H1333     1.0  0.91485  0.67956  0.04533  1.0000
  H   H1334     1.0  0.92223  0.64122  0.03425  1.0000
  H   H1335     1.0  0.93889  0.61704  0.07109  1.0000
  C   C1677     1.0  0.79665  0.53872  0.40103  1.0000
  C   C1678     1.0  0.66551  0.81226  0.99919  1.0000
  H   H1336     1.0  0.66631  0.63982  0.48310  1.0000
  C   C1679     1.0  0.67991  0.58446  0.43819  1.0000
  H   H1337     1.0  0.71303  0.66738  0.41782  1.0000
  H   H1338     1.0  0.80104  0.70946  0.04340  1.0000
  H   H1339     1.0  0.92034  0.62923  0.17734  1.0000
  H   H1340     1.0  0.92263  0.64338  0.22665  1.0000
  H   H1341     1.0  0.95671  0.65948  0.24339  1.0000
  H   H1342     1.0  0.95658  0.50637  0.22669  1.0000
  H   H1343     1.0  0.67734  0.58403  0.34036  1.0000
  C   C1680     1.0  0.79318  0.49655  0.38020  1.0000
  C   C1681     1.0  0.89661  0.76585  0.05136  1.0000
  P   P57       1.0  0.68202  0.59555  0.40176  1.0000
  H   H1344     1.0  0.84068  0.78549  0.02451  1.0000
  C   C1682     1.0  0.90212  0.68596  0.25708  1.0000
  C   C1683     1.0  0.73679  0.51090  0.47210  1.0000
  H   H1345     1.0  0.98666  0.64684  0.16103  1.0000
  C   C1684     1.0  0.74554  0.57249  0.35806  1.0000
  C   C1685     1.0  0.73642  0.56043  0.38082  1.0000
  C   C1686     1.0  0.71717  0.56734  0.39399  1.0000
  C   C1687     1.0  0.65962  0.58583  0.38114  1.0000
  C   C1688     1.0  0.94159  0.58055  0.14333  1.0000
  H   H1346     1.0  0.74434  0.54582  0.38860  1.0000
  H   H1347     1.0  0.79628  0.65410  0.36652  1.0000
  C   C1689     1.0  0.70704  0.58661  0.38491  1.0000
  H   H1348     1.0  0.97813  0.69048  0.15502  1.0000
  H   H1349     1.0  0.76055  0.56714  0.34800  1.0000
  C   C1690     1.0  0.97091  0.71835  0.01191  1.0000
  C   C1691     1.0  0.71634  0.59865  0.36197  1.0000
  H   H1350     1.0  0.68845  0.61401  0.45950  1.0000
  H   H1351     1.0  0.97063  0.65911  0.03078  1.0000
  H   H1352     1.0  0.70876  0.61346  0.35436  1.0000
  C   C1692     1.0  0.80235  0.82571  0.05604  1.0000
  Fe  Fe117     1.0  0.74318  0.56947  0.47661  1.0000
  H   H1353     1.0  0.90752  0.77158  0.00740  1.0000
  C   C1693     1.0  0.73549  0.59158  0.34860  1.0000
  C   C1694     1.0  0.78303  0.50237  0.40643  1.0000
  C   C1695     1.0  0.68086  0.62466  0.40339  1.0000
  C   C1696     1.0  0.78456  0.52342  0.41659  1.0000
  H   H1354     1.0  0.92530  0.73239  0.13319  1.0000
  C   C1697     1.0  0.78084  0.81935  0.05864  1.0000
  C   C1698     1.0  0.67873  0.66946  0.41120  1.0000
  S   S232      1.0  0.72995  0.53759  0.46023  1.0000
  Fe  Fe118     1.0  0.73007  0.86949  0.98831  1.0000
  H   H1355     1.0  0.88048  0.58989  0.12981  1.0000
  H   H1356     1.0  0.66920  0.53720  0.47419  1.0000
  H   H1357     1.0  0.89380  0.55383  0.14570  1.0000
  C   C1699     1.0  0.94130  0.72607  0.12836  1.0000
  C   C1700     1.0  0.95100  0.71112  0.14719  1.0000
  C   C1701     1.0  0.95202  0.73242  0.10285  1.0000
  C   C1702     1.0  0.69495  0.91714  0.36575  1.0000
  C   C1703     1.0  0.98275  0.70951  0.11553  1.0000
  C   C1704     1.0  0.97146  0.70261  0.14061  1.0000
  S   S233      1.0  0.70684  0.95118  0.01235  1.0000
  H   H1358     1.0  0.90144  0.67822  0.21164  1.0000
  H   H1359     1.0  0.92309  0.52755  0.24579  1.0000
  H   H1360     1.0  0.67780  0.68662  0.41520  1.0000
  C   C1705     1.0  0.97962  0.61510  0.12091  1.0000
  C   C1706     1.0  0.69967  0.63633  0.40874  1.0000
  H   H1361     1.0  0.92314  0.69349  0.09367  1.0000
  C   C1707     1.0  0.97262  0.72425  0.09650  1.0000
  C   C1708     1.0  0.97244  0.64626  0.17488  1.0000
  C   C1709     1.0  0.88776  0.50075  0.27954  1.0000
  C   C1710     1.0  0.96548  0.60699  0.25323  1.0000
  C   C1711     1.0  0.66785  0.65710  0.48399  1.0000
  C   C1712     1.0  0.71401  0.91409  0.34971  1.0000
  H   H1362     1.0  0.69502  0.92680  0.38512  1.0000
  C   C1713     1.0  0.86951  0.67968  0.23029  1.0000
  H   H1363     1.0  0.89360  0.51661  0.27400  1.0000
  H   H1364     1.0  0.71508  0.62815  0.41104  1.0000
  C   C1714     1.0  0.77591  0.79882  0.06954  1.0000
  H   H1365     1.0  0.69834  0.98613  0.07924  1.0000
  H   H1366     1.0  0.96433  0.49681  0.17617  1.0000
  C   C1715     1.0  0.81897  0.81148  0.06405  1.0000
  C   C1716     1.0  0.81419  0.79057  0.07421  1.0000
  C   C1717     1.0  0.79249  0.78456  0.07767  1.0000
  P   P58       1.0  0.83574  0.77269  0.08579  1.0000
  C   C1718     1.0  0.84257  0.78108  0.12172  1.0000
  C   C1719     1.0  0.82789  0.74474  0.08554  1.0000
  C   C1720     1.0  0.81513  0.73717  0.06303  1.0000
  C   C1721     1.0  0.81034  0.71526  0.06139  1.0000
  C   C1722     1.0  0.81825  0.70073  0.08222  1.0000
  C   C1723     1.0  0.83108  0.70809  0.10463  1.0000
  C   C1724     1.0  0.83616  0.72996  0.10609  1.0000
  C   C1725     1.0  0.85943  0.79563  0.12579  1.0000
  C   C1726     1.0  0.86430  0.80252  0.15366  1.0000
  C   C1727     1.0  0.85219  0.79516  0.17756  1.0000
  C   C1728     1.0  0.83506  0.78105  0.17356  1.0000
  C   C1729     1.0  0.83014  0.77416  0.14571  1.0000
  C   C1730     1.0  0.85879  0.77394  0.06148  1.0000
  C   C1731     1.0  0.87903  0.76632  0.07073  1.0000
  H   H1367     1.0  0.91208  0.75945  0.05821  1.0000
  H   H1368     1.0  0.77630  0.52790  0.43653  1.0000
  C   C1732     1.0  0.97352  0.65469  0.20278  1.0000
  C   C1733     1.0  0.85632  0.78057  0.03249  1.0000
  H   H1369     1.0  0.75921  0.79392  0.07134  1.0000
  H   H1370     1.0  0.76994  0.76958  0.99320  1.0000
  H   H1371     1.0  0.76803  0.83025  0.05168  1.0000
  H   H1372     1.0  0.83554  0.81672  0.06193  1.0000
  H   H1373     1.0  0.78829  0.76885  0.08640  1.0000
  H   H1374     1.0  0.80933  0.74809  0.04627  1.0000
  C   C1734     1.0  0.98208  0.49705  0.38858  1.0000
  H   H1375     1.0  0.67151  0.89564  0.08086  1.0000
  H   H1376     1.0  0.83765  0.69665  0.12026  1.0000
  H   H1377     1.0  0.84694  0.73516  0.12279  1.0000
  H   H1378     1.0  0.86866  0.80187  0.10744  1.0000
  H   H1379     1.0  0.87735  0.81374  0.15667  1.0000
  H   H1380     1.0  0.85592  0.80062  0.19911  1.0000
  H   H1381     1.0  0.82547  0.77561  0.19199  1.0000
  H   H1382     1.0  0.81657  0.76355  0.14283  1.0000
  H   H1383     1.0  0.97282  0.67867  0.07662  1.0000
  H   H1384     1.0  0.74268  0.60098  0.33105  1.0000
  H   H1385     1.0  0.81707  0.54474  0.36371  1.0000
  C   C1735     1.0  0.68360  0.59741  0.46226  1.0000
  C   C1736     1.0  0.98867  0.62043  0.09366  1.0000
  H   H1386     1.0  0.74901  0.80420  0.99301  1.0000
  C   C1737     1.0  0.95229  0.72715  0.99891  1.0000
  H   H1387     1.0  0.98033  0.72928  0.07642  1.0000
  H   H1388     1.0  0.68153  0.97472  0.14055  1.0000
  C   C1738     1.0  0.98619  0.66425  0.03842  1.0000
  H   H1389     1.0  0.81481  0.50749  0.34577  1.0000
  S   S234      1.0  0.81580  0.75874  0.98771  1.0000
  H   H1390     1.0  0.97944  0.62918  0.07759  1.0000
  C   C1739     1.0  0.65899  0.88766  0.26218  1.0000
  C   C1740     1.0  0.65994  0.65801  0.40582  1.0000
  C   C1741     1.0  0.67428  0.56277  0.44274  1.0000
  H   H1391     1.0  0.96931  0.50366  0.40218  1.0000
  Fe  Fe119     1.0  0.89328  0.71983  0.99691  1.0000
  C   C1742     1.0  0.65842  0.88148  0.23316  1.0000
  H   H1392     1.0  0.98857  0.66108  0.21052  1.0000
  H   H1393     1.0  0.66121  0.90983  0.36982  1.0000
  C   C1743     1.0  0.76636  0.80438  0.99010  1.0000
  C   C1744     1.0  0.65846  0.88715  0.09173  1.0000
  H   H1394     1.0  0.66405  0.90381  0.26723  1.0000
  Fe  Fe120     1.0  0.73522  0.61894  0.48476  1.0000
  C   C1745     1.0  0.98747  0.67545  0.06442  1.0000
  C   C1746     1.0  0.68848  0.66621  0.48560  1.0000
  C   C1747     1.0  0.98934  0.63143  0.29171  1.0000
  C   C1748     1.0  0.94928  0.49212  0.21817  1.0000
  S   S235      1.0  0.76288  0.85011  0.98766  1.0000
  S   S236      1.0  0.71321  0.65012  0.48619  1.0000
  H   H1395     1.0  0.98177  0.57436  0.44771  1.0000
  C   C1749     1.0  0.65913  0.84158  0.34516  1.0000
  C   C1750     1.0  0.68275  0.98595  0.18429  1.0000
  C   C1751     1.0  0.67790  0.98802  0.15481  1.0000
  H   H1396     1.0  0.98798  0.61011  0.42437  1.0000
  C   C1752     1.0  0.84146  0.49174  0.21798  1.0000
  H   H1397     1.0  0.90120  0.49063  0.19263  1.0000
  H   H1398     1.0  0.77378  0.49070  0.41903  1.0000
  C   C1753     1.0  0.88466  0.49088  0.20027  1.0000
  C   C1754     1.0  0.67061  0.70212  0.48681  1.0000
  Fe  Fe121     1.0  0.76799  0.59339  0.52328  1.0000
  S   S237      1.0  0.73238  0.58968  0.51457  1.0000
  S   S238      1.0  0.77865  0.58587  0.57005  1.0000
  H   H1399     1.0  0.79686  0.67847  0.49849  1.0000
  H   H1400     1.0  0.69082  0.63650  0.54279  1.0000
  C   C1755     1.0  0.83529  0.55631  0.56776  1.0000
  H   H1401     1.0  0.81370  0.51823  0.53231  1.0000
  C   C1756     1.0  0.98465  0.58399  0.70708  1.0000
  H   H1402     1.0  0.83760  0.56060  0.49411  1.0000
  Fe  Fe122     1.0  0.86975  0.60674  0.76661  1.0000
  S   S239      1.0  0.87785  0.63244  0.73347  1.0000
  S   S240      1.0  0.85908  0.61210  0.81397  1.0000
  Fe  Fe123     1.0  0.88480  0.57029  0.72610  1.0000
  S   S241      1.0  0.89489  0.59395  0.69122  1.0000
  S   S242      1.0  0.89430  0.53592  0.71421  1.0000
  Fe  Fe124     1.0  0.90859  0.61344  0.72675  1.0000
  S   S243      1.0  0.94063  0.63077  0.72731  1.0000
  Fe  Fe125     1.0  0.86316  0.61059  0.70012  1.0000
  S   S244      1.0  0.84539  0.62471  0.66036  1.0000
  S   S245      1.0  0.90112  0.58869  0.76101  1.0000
  S   S246      1.0  0.85233  0.58607  0.73392  1.0000
  Fe  Fe126     1.0  0.86774  0.69989  0.94739  1.0000
  S   S247      1.0  0.87542  0.73443  0.95873  1.0000
  S   S248      1.0  0.87439  0.69138  0.89947  1.0000
  C   C1757     1.0  0.95548  0.56439  0.77827  1.0000
  H   H1403     1.0  0.96099  0.62466  0.78742  1.0000
  C   C1758     1.0  0.93729  0.61748  0.86525  1.0000
  C   C1759     1.0  0.78504  0.52468  0.55763  1.0000
  C   C1760     1.0  0.70611  0.60807  0.60206  1.0000
  H   H1404     1.0  0.68427  0.59909  0.50877  1.0000
  Fe  Fe127     1.0  0.69299  0.88752  0.94912  1.0000
  S   S249      1.0  0.72614  0.89972  0.96008  1.0000
  C   C1761     1.0  0.68276  0.81989  0.85454  1.0000
  C   C1762     1.0  0.85867  0.54054  0.52029  1.0000
  H   H1405     1.0  0.94063  0.74688  0.96366  1.0000
  H   H1406     1.0  0.82658  0.56323  0.58583  1.0000
  C   C1763     1.0  0.67930  0.64733  0.55308  1.0000
  Fe  Fe128     1.0  0.84499  0.73407  0.98681  1.0000
  C   C1764     1.0  0.80709  0.53802  0.67950  1.0000
  C   C1765     1.0  0.81749  0.53276  0.62928  1.0000
  P   P59       1.0  0.74800  0.66914  0.60355  1.0000
  H   H1407     1.0  0.70460  0.65901  0.62741  1.0000
  H   H1408     1.0  0.66110  0.93785  0.94269  1.0000
  H   H1409     1.0  0.86818  0.49771  0.83516  1.0000
  C   C1766     1.0  0.72452  0.77385  0.88379  1.0000
  H   H1410     1.0  0.79448  0.67633  0.59138  1.0000
  H   H1411     1.0  0.70518  0.69640  0.48830  1.0000
  H   H1412     1.0  0.81308  0.52831  0.60759  1.0000
  H   H1413     1.0  0.94723  0.67126  0.84602  1.0000
  C   C1767     1.0  0.77053  0.51665  0.57847  1.0000
  H   H1414     1.0  0.80835  0.65956  0.69515  1.0000
  C   C1768     1.0  0.86397  0.63418  0.83752  1.0000
  C   C1769     1.0  0.85660  0.63295  0.86655  1.0000
  C   C1770     1.0  0.85980  0.65007  0.88592  1.0000
  C   C1771     1.0  0.87038  0.66880  0.87648  1.0000
  C   C1772     1.0  0.87808  0.66987  0.84758  1.0000
  C   C1773     1.0  0.87498  0.65272  0.82826  1.0000
  H   H1415     1.0  0.84808  0.61874  0.87408  1.0000
  H   H1416     1.0  0.85374  0.64892  0.90799  1.0000
  H   H1417     1.0  0.88624  0.68426  0.83997  1.0000
  H   H1418     1.0  0.88082  0.65400  0.80610  1.0000
  C   C1774     1.0  0.98405  0.71141  0.86929  1.0000
  C   C1775     1.0  0.96489  0.61654  0.72012  1.0000
  C   C1776     1.0  0.96493  0.59491  0.71203  1.0000
  S   S250      1.0  0.77074  0.62320  0.49510  1.0000
  H   H1419     1.0  0.94978  0.58664  0.70962  1.0000
  C   C1777     1.0  0.88309  0.51162  0.72783  1.0000
  H   H1420     1.0  0.96339  0.67887  0.97386  1.0000
  C   C1778     1.0  0.86436  0.51114  0.74507  1.0000
  H   H1421     1.0  0.97712  0.75404  0.94294  1.0000
  H   H1422     1.0  0.85625  0.52606  0.75059  1.0000
  H   H1423     1.0  0.83630  0.49148  0.67274  1.0000
  C   C1779     1.0  0.79951  0.82379  0.98295  1.0000
  C   C1780     1.0  0.68245  0.97945  0.81759  1.0000
  C   C1781     1.0  0.70504  0.96783  0.92502  1.0000
  H   H1424     1.0  0.89041  0.60598  0.62220  1.0000
  H   H1425     1.0  0.91904  0.68166  0.88526  1.0000
  C   C1782     1.0  0.79718  0.59739  0.59463  1.0000
  C   C1783     1.0  0.80027  0.58712  0.62172  1.0000
  C   C1784     1.0  0.81549  0.59472  0.64155  1.0000
  C   C1785     1.0  0.82733  0.61330  0.63504  1.0000
  C   C1786     1.0  0.82380  0.62397  0.60824  1.0000
  C   C1787     1.0  0.80903  0.61596  0.58800  1.0000
  H   H1426     1.0  0.79089  0.57305  0.62729  1.0000
  H   H1427     1.0  0.81766  0.58656  0.66221  1.0000
  H   H1428     1.0  0.83264  0.63851  0.60307  1.0000
  H   H1429     1.0  0.80679  0.62419  0.56738  1.0000
  C   C1788     1.0  0.73101  0.64568  0.60179  1.0000
  C   C1789     1.0  0.79627  0.66146  0.67845  1.0000
  H   H1430     1.0  0.95721  0.49411  0.76145  1.0000
  H   H1431     1.0  0.75687  0.52650  0.58521  1.0000
  C   C1790     1.0  0.69840  0.62645  0.61606  1.0000
  C   C1791     1.0  0.79010  0.68200  0.66862  1.0000
  H   H1432     1.0  0.66743  0.91226  0.84750  1.0000
  C   C1792     1.0  0.77506  0.68432  0.64637  1.0000
  H   H1433     1.0  0.92565  0.79449  0.91273  1.0000
  H   H1434     1.0  0.79731  0.69610  0.67793  1.0000
  H   H1435     1.0  0.78509  0.52912  0.64603  1.0000
  H   H1436     1.0  0.67523  0.56044  0.51647  1.0000
  C   C1793     1.0  0.84999  0.55329  0.80399  1.0000
  C   C1794     1.0  0.83495  0.53690  0.80843  1.0000
  C   C1795     1.0  0.84164  0.51686  0.81951  1.0000
  C   C1796     1.0  0.86339  0.51315  0.82591  1.0000
  C   C1797     1.0  0.87870  0.52935  0.82064  1.0000
  C   C1798     1.0  0.87175  0.54959  0.81020  1.0000
  P   P60       1.0  0.90608  0.52562  0.83267  1.0000
  C   C1799     1.0  0.68367  0.80629  0.94375  1.0000
  C   C1800     1.0  0.92441  0.54218  0.81165  1.0000
  C   C1801     1.0  0.92372  0.61745  0.84128  1.0000
  C   C1802     1.0  0.68899  0.96214  0.83549  1.0000
  C   C1803     1.0  0.80162  0.53293  0.65114  1.0000
  C   C1804     1.0  0.96039  0.49910  0.69831  1.0000
  C   C1805     1.0  0.92494  0.54036  0.78138  1.0000
  H   H1437     1.0  0.67149  0.83300  0.81375  1.0000
  H   H1438     1.0  0.70078  0.93498  0.93933  1.0000
  P   P61       1.0  0.65848  0.97707  0.79612  1.0000
  C   C1806     1.0  0.93243  0.62005  0.81338  1.0000
  C   C1807     1.0  0.91616  0.49863  0.82650  1.0000
  C   C1808     1.0  0.90513  0.53335  0.87021  1.0000
  C   C1809     1.0  0.90627  0.51784  0.89267  1.0000
  C   C1810     1.0  0.90444  0.52411  0.92163  1.0000
  C   C1811     1.0  0.90103  0.54579  0.92831  1.0000
  C   C1812     1.0  0.89930  0.56123  0.90603  1.0000
  C   C1813     1.0  0.90120  0.55504  0.87709  1.0000
  H   H1439     1.0  0.84472  0.56906  0.79628  1.0000
  H   H1440     1.0  0.81810  0.53986  0.80364  1.0000
  H   H1441     1.0  0.70222  0.71873  0.66134  1.0000
  H   H1442     1.0  0.94232  0.50104  0.85692  1.0000
  H   H1443     1.0  0.88297  0.56274  0.80763  1.0000
  C   C1814     1.0  0.66777  0.82271  0.83234  1.0000
  C   C1815     1.0  0.93981  0.55499  0.82513  1.0000
  H   H1444     1.0  0.92193  0.62020  0.79478  1.0000
  S   S251      1.0  0.88716  0.68573  0.98410  1.0000
  H   H1445     1.0  0.91345  0.53026  0.77063  1.0000
  C   C1816     1.0  0.97671  0.50957  0.79300  1.0000
  H   H1446     1.0  0.90644  0.61542  0.84423  1.0000
  H   H1447     1.0  0.92351  0.49562  0.64468  1.0000
  S   S252      1.0  0.83676  0.70002  0.97379  1.0000
  C   C1817     1.0  0.67081  0.68226  0.57318  1.0000
  H   H1448     1.0  0.66485  0.68077  0.63356  1.0000
  H   H1449     1.0  0.90530  0.51210  0.93892  1.0000
  H   H1450     1.0  0.89933  0.55059  0.95073  1.0000
  H   H1451     1.0  0.89610  0.57798  0.91114  1.0000
  H   H1452     1.0  0.89930  0.56715  0.86005  1.0000
  H   H1453     1.0  0.74670  0.75083  0.86500  1.0000
  C   C1818     1.0  0.71899  0.98295  0.85253  1.0000
  H   H1454     1.0  0.73064  0.78715  0.87068  1.0000
  H   H1455     1.0  0.91239  0.73024  0.78903  1.0000
  H   H1456     1.0  0.94033  0.55615  0.84847  1.0000
  C   C1819     1.0  0.73355  0.75327  0.88038  1.0000
  H   H1457     1.0  0.88063  0.51016  0.65638  1.0000
  H   H1458     1.0  0.73308  0.98428  0.86605  1.0000
  C   C1820     1.0  0.71745  0.82385  0.90830  1.0000
  C   C1821     1.0  0.71255  0.84550  0.90165  1.0000
  C   C1822     1.0  0.72866  0.86110  0.90234  1.0000
  C   C1823     1.0  0.74961  0.85533  0.91041  1.0000
  C   C1824     1.0  0.75451  0.83391  0.91766  1.0000
  C   C1825     1.0  0.73846  0.81826  0.91700  1.0000
  H   H1459     1.0  0.68279  0.62619  0.62692  1.0000
  C   C1826     1.0  0.87698  0.49879  0.63952  1.0000
  H   H1460     1.0  0.69307  0.74262  0.61949  1.0000
  S   S253      1.0  0.67677  0.90437  0.98628  1.0000
  H   H1461     1.0  0.67602  0.69822  0.57877  1.0000
  H   H1462     1.0  0.98226  0.69514  0.82825  1.0000
  H   H1463     1.0  0.94047  0.55017  0.74131  1.0000
  H   H1464     1.0  0.82876  0.80439  0.97970  1.0000
  H   H1465     1.0  0.70183  0.67325  0.55554  1.0000
  C   C1827     1.0  0.95461  0.62296  0.80935  1.0000
  C   C1828     1.0  0.68954  0.68891  0.48706  1.0000
  C   C1829     1.0  0.81144  0.80411  0.98282  1.0000
  H   H1466     1.0  0.98229  0.65783  0.87324  1.0000
  H   H1467     1.0  0.69071  0.94307  0.78228  1.0000
  H   H1468     1.0  0.90310  0.76223  0.92164  1.0000
  H   H1469     1.0  0.90797  0.49233  0.70779  1.0000
  H   H1470     1.0  0.69621  0.85047  0.89647  1.0000
  H   H1471     1.0  0.72473  0.87780  0.89735  1.0000
  H   H1472     1.0  0.97239  0.66314  0.80006  1.0000
  H   H1473     1.0  0.77059  0.82962  0.92490  1.0000
  H   H1474     1.0  0.74247  0.80199  0.92401  1.0000
  C   C1830     1.0  0.80575  0.49142  0.56065  1.0000
  H   H1475     1.0  0.70858  0.73517  0.57082  1.0000
  H   H1476     1.0  0.93049  0.61538  0.88687  1.0000
  C   C1831     1.0  0.98463  0.62717  0.72284  1.0000
  H   H1477     1.0  0.85396  0.49537  0.57304  1.0000
  C   C1832     1.0  0.97549  0.74367  0.96190  1.0000
  H   H1478     1.0  0.98463  0.64396  0.72853  1.0000
  H   H1479     1.0  0.90807  0.50089  0.88795  1.0000
  H   H1480     1.0  0.86794  0.53473  0.50187  1.0000
  P   P62       1.0  0.69645  0.80388  0.90852  1.0000
  C   C1833     1.0  0.95470  0.73963  0.97358  1.0000
  H   H1481     1.0  0.67985  0.94736  0.83637  1.0000
  H   H1482     1.0  0.69662  0.59349  0.60220  1.0000
  C   C1834     1.0  0.94519  0.50572  0.67777  1.0000
  C   C1835     1.0  0.69286  0.95004  0.93376  1.0000
  C   C1836     1.0  0.66371  0.81701  0.94700  1.0000
  H   H1483     1.0  0.71051  0.79160  0.96666  1.0000
  H   H1484     1.0  0.96736  0.57310  0.76539  1.0000
  C   C1837     1.0  0.78728  0.64323  0.66622  1.0000
  C   C1838     1.0  0.80261  0.51205  0.54870  1.0000
  H   H1485     1.0  0.96983  0.61988  0.88010  1.0000
  H   H1486     1.0  0.74927  0.51979  0.51347  1.0000
  C   C1839     1.0  0.91907  0.69618  0.79213  1.0000
  H   H1487     1.0  0.71234  0.95019  0.86610  1.0000
  H   H1488     1.0  0.73264  0.70401  0.56353  1.0000
  C   C1840     1.0  0.66014  0.97124  0.92890  1.0000
  H   H1489     1.0  0.92774  0.66322  0.80100  1.0000
  H   H1490     1.0  0.68718  0.90764  0.75951  1.0000
  H   H1491     1.0  0.89395  0.49187  0.79191  1.0000
  H   H1492     1.0  0.81725  0.57490  0.53631  1.0000
  H   H1493     1.0  0.79483  0.53815  0.69647  1.0000
  P   P63       1.0  0.86004  0.53394  0.60886  1.0000
  C   C1841     1.0  0.85195  0.54119  0.57240  1.0000
  C   C1842     1.0  0.83894  0.53771  0.63564  1.0000
  C   C1843     1.0  0.84430  0.54283  0.66418  1.0000
  C   C1844     1.0  0.82844  0.54290  0.68601  1.0000
  H   H1494     1.0  0.93174  0.73882  0.83355  1.0000
  C   C1845     1.0  0.67318  0.91810  0.76173  1.0000
  H   H1495     1.0  0.72250  0.96658  0.92438  1.0000
  C   C1846     1.0  0.83010  0.56315  0.53964  1.0000
  C   C1847     1.0  0.89339  0.49211  0.72075  1.0000
  C   C1848     1.0  0.70873  0.73903  0.91667  1.0000
  H   H1496     1.0  0.73292  0.72000  0.89448  1.0000
  C   C1849     1.0  0.86402  0.53383  0.54846  1.0000
  C   C1850     1.0  0.88182  0.55209  0.61567  1.0000
  C   C1851     1.0  0.87736  0.57428  0.61715  1.0000
  C   C1852     1.0  0.89410  0.58889  0.62058  1.0000
  C   C1853     1.0  0.91538  0.58144  0.62307  1.0000
  C   C1854     1.0  0.91995  0.55936  0.62164  1.0000
  C   C1855     1.0  0.90326  0.54471  0.61763  1.0000
  H   H1497     1.0  0.77088  0.70036  0.63852  1.0000
  H   H1498     1.0  0.76640  0.63100  0.63398  1.0000
  H   H1499     1.0  0.97431  0.70228  0.93324  1.0000
  C   C1856     1.0  0.70736  0.96376  0.85251  1.0000
  H   H1500     1.0  0.86083  0.54633  0.66982  1.0000
  H   H1501     1.0  0.83279  0.54658  0.70805  1.0000
  C   C1857     1.0  0.68559  0.66806  0.56039  1.0000
  C   C1858     1.0  0.96827  0.62379  0.83336  1.0000
  H   H1502     1.0  0.93062  0.65634  0.97047  1.0000
  H   H1503     1.0  0.96306  0.51719  0.80358  1.0000
  H   H1504     1.0  0.82997  0.50419  0.82320  1.0000
  C   C1859     1.0  0.69464  0.79899  0.96857  1.0000
  H   H1505     1.0  0.91039  0.69242  0.77260  1.0000
  H   H1506     1.0  0.87780  0.52319  0.55158  1.0000
  H   H1507     1.0  0.86092  0.58035  0.61567  1.0000
  H   H1508     1.0  0.92824  0.59279  0.62656  1.0000
  H   H1509     1.0  0.93645  0.55364  0.62372  1.0000
  H   H1510     1.0  0.90717  0.52776  0.61594  1.0000
  C   C1860     1.0  0.72626  0.60837  0.58817  1.0000
  C   C1861     1.0  0.73863  0.62710  0.58785  1.0000
  C   C1862     1.0  0.76374  0.67156  0.57033  1.0000
  C   C1863     1.0  0.78606  0.67540  0.57104  1.0000
  C   C1864     1.0  0.79794  0.67782  0.54521  1.0000
  C   C1865     1.0  0.78764  0.67671  0.51852  1.0000
  C   C1866     1.0  0.76549  0.67282  0.51763  1.0000
  C   C1867     1.0  0.75370  0.66971  0.54336  1.0000
  C   C1868     1.0  0.73119  0.69295  0.60847  1.0000
  C   C1869     1.0  0.72616  0.70679  0.58501  1.0000
  C   C1870     1.0  0.71247  0.72461  0.58905  1.0000
  C   C1871     1.0  0.70371  0.72881  0.61647  1.0000
  C   C1872     1.0  0.70883  0.71531  0.64000  1.0000
  C   C1873     1.0  0.72258  0.69753  0.63607  1.0000
  H   H1511     1.0  0.73253  0.59395  0.57800  1.0000
  H   H1512     1.0  0.75437  0.62687  0.57728  1.0000
  H   H1513     1.0  0.81520  0.68047  0.54591  1.0000
  C   C1874     1.0  0.74566  0.50659  0.49936  1.0000
  H   H1514     1.0  0.75750  0.67156  0.49694  1.0000
  H   H1515     1.0  0.73676  0.66592  0.54205  1.0000
  H   H1516     1.0  0.91592  0.72637  0.90639  1.0000
  H   H1517     1.0  0.96697  0.57603  0.81888  1.0000
  H   H1518     1.0  0.97383  0.75545  0.87078  1.0000
  H   H1519     1.0  0.72639  0.68722  0.65456  1.0000
  C   C1875     1.0  0.92352  0.66698  0.92694  1.0000
  C   C1876     1.0  0.93586  0.66611  0.95206  1.0000
  C   C1877     1.0  0.95431  0.67873  0.95394  1.0000
  C   C1878     1.0  0.96051  0.69208  0.93063  1.0000
  C   C1879     1.0  0.94843  0.69281  0.90504  1.0000
  C   C1880     1.0  0.92964  0.68039  0.90368  1.0000
  P   P64       1.0  0.95515  0.71188  0.87622  1.0000
  C   C1881     1.0  0.91866  0.76061  0.91088  1.0000
  C   C1882     1.0  0.94097  0.70567  0.84330  1.0000
  C   C1883     1.0  0.86779  0.50591  0.61330  1.0000
  H   H1520     1.0  0.79242  0.62734  0.67361  1.0000
  C   C1884     1.0  0.92890  0.67966  0.80823  1.0000
  C   C1885     1.0  0.93984  0.68432  0.83371  1.0000
  H   H1521     1.0  0.78260  0.54069  0.54831  1.0000
  H   H1522     1.0  0.67200  0.71945  0.48783  1.0000
  H   H1523     1.0  0.69832  0.82752  0.85223  1.0000
  H   H1524     1.0  0.96104  0.79091  0.88731  1.0000
  H   H1525     1.0  0.70257  0.72552  0.92934  1.0000
  C   C1886     1.0  0.94619  0.73808  0.88823  1.0000
  C   C1887     1.0  0.95856  0.75655  0.88235  1.0000
  C   C1888     1.0  0.95125  0.77678  0.89140  1.0000
  C   C1889     1.0  0.93133  0.77881  0.90573  1.0000
  H   H1526     1.0  0.76189  0.86755  0.91199  1.0000
  C   C1890     1.0  0.95519  0.56612  0.80843  1.0000
  H   H1527     1.0  0.90857  0.65808  0.92590  1.0000
  H   H1528     1.0  0.94113  0.52269  0.67517  1.0000
  H   H1529     1.0  0.96858  0.51122  0.71059  1.0000
  C   C1891     1.0  0.71086  0.64513  0.61617  1.0000
  C   C1892     1.0  0.94043  0.55142  0.76474  1.0000
  C   C1893     1.0  0.67746  0.80755  0.87940  1.0000
  H   H1530     1.0  0.80797  0.83885  0.98017  1.0000
  C   C1894     1.0  0.76607  0.66604  0.63381  1.0000
  C   C1895     1.0  0.72576  0.73590  0.89696  1.0000
  C   C1896     1.0  0.77241  0.64544  0.64380  1.0000
  C   C1897     1.0  0.95954  0.62035  0.86132  1.0000
  C   C1898     1.0  0.92604  0.74030  0.90225  1.0000
  S   S254      1.0  0.68191  0.89682  0.90299  1.0000
  C   C1899     1.0  0.86214  0.49059  0.59269  1.0000
  C   C1900     1.0  0.69478  0.98725  0.91750  1.0000
  C   C1901     1.0  0.67043  0.95173  0.93576  1.0000
  C   C1902     1.0  0.70795  0.77726  0.90432  1.0000
  C   C1903     1.0  0.84166  0.55516  0.51588  1.0000
  C   C1904     1.0  0.93115  0.72222  0.82681  1.0000
  C   C1905     1.0  0.67504  0.93814  0.77492  1.0000
  C   C1906     1.0  0.92020  0.71744  0.80140  1.0000
  S   S255      1.0  0.69773  0.85660  0.97506  1.0000
  C   C1907     1.0  0.97349  0.49662  0.76894  1.0000
  H   H1531     1.0  0.68637  0.76168  0.93534  1.0000
  C   C1908     1.0  0.77345  0.49588  0.59022  1.0000
  C   C1909     1.0  0.69969  0.75960  0.92018  1.0000
  C   C1910     1.0  0.67216  0.98902  0.91887  1.0000
  C   C1911     1.0  0.73445  0.98043  0.98436  1.0000
  C   C1912     1.0  0.85615  0.49122  0.75517  1.0000
  H   H1532     1.0  0.98460  0.56726  0.70083  1.0000
  H   H1533     1.0  0.66739  0.68000  0.68685  1.0000
  C   C1913     1.0  0.66197  0.88693  0.87915  1.0000
  C   C1914     1.0  0.67616  0.56723  0.49471  1.0000
  H   H1534     1.0  0.84165  0.49087  0.76847  1.0000
  C   C1915     1.0  0.80107  0.78423  0.98673  1.0000
  H   H1535     1.0  0.74605  0.96733  0.98294  1.0000
  C   C1916     1.0  0.77685  0.82426  0.98675  1.0000
  H   H1536     1.0  0.98166  0.68894  0.76086  1.0000
  C   C1917     1.0  0.98796  0.66186  0.78947  1.0000
  C   C1918     1.0  0.93460  0.49111  0.84107  1.0000
  C   C1919     1.0  0.68136  0.58892  0.49038  1.0000
  S   S256      1.0  0.77823  0.57137  0.48711  1.0000
  C   C1920     1.0  0.65833  0.89793  0.85265  1.0000
