data_image0
_chemical_formula_structural       CHC3HCHSH4SCFeSHFeS5CHCHS2C2FeCHC6H5C2HC3HCFeCHCHC3H2C2H2C2FeCHSCHCHC3PC9FeHC2HC5SCH8C5HC2HCH4CPH3CHCH3CH2CHCH4C2SHC2PC5HCHC2H2C3H2CHSCH2CH2CSC2HCH2FeSHCFeS2FeSFeHCHFeS2C6H5CHC2HCH2CH2CHC2HC6H2CHC2HSC4PC3SH2C7H2SCHCHSH3C3H2CH5C3H3C2HCHCHSHSHCHCHC4H2C3HC2SH3CHCHC3HCSPH2FeC3H2C2H2C4SC2H3CHCHSCFeS2FeS2FeSFeS3CSCFeSHC2HCHCHFeHC7H4C6H7C6H10CHC2HCH2CH2C2H3C2PHCHCH3C2HC3H4C2HCH2CHC4H2SCHCSCHC2HC2H2CH2CHC6HCHC3H2C2HC3H2CH3C2H2C7HCH4C2H5CH2C2H2C3HCHC3H3C3HC4PC9H2FeCHCH4SCH3PCPHC5H8C3H2C3H2CH3CH2SC2SFeHSFeSFeSH2C3HSFeS2FeS2FeSFeS3HC7H4C6H4C2SCHCHC7H4C5H2CH2CH4CPC5HCHC3HC2HC2HC2HCHCHCHCSC3HC2HC2HC3H2C2H2C7H5C2H5C2H4CHCH3CHC3PC2H3CHC7PCHC4H5FeC2H5CHC3H3CHC2H2C3H2C5H2CHCH2CPH3C5HCH3CHPC2HC4PCHC6HC2HC3HCHC2HC5H2CH2CFeC3HCHSH4FeCH2C2H2CH2C2H3C5H2SCH2CSC6FeCFeSHC3FeSCFeS2FeS2CH2C2SC7H4C4HC2H3CHC4H2C2H2CH4C2HCHCHC3H3SHPH2CH2C3HC9H3C3H3FeH3PHCH2C4HCSCH2C2SHCHCSC2HC3PHFeC3SC2SCHSCHCFeH4C2HFeH2CH2C3H3FeH2C2H2PC2HC4HCHCHC2HSH2CSC3H2C3SCH2C2H7C2HCHCHSCSCSCHCHC4H3FeS2HFeCH3FeS2C6H4CH2CH2C2FeSC5HC2FeCH2CH6C7PC14HC2H6CH6CPCHCHCH2CHC2HCHC2SC3H3FeCHFeCFeC2SCPFeH4CH3C2H5C5SHSH2CH2C7PC4H2C14H4CPCHSH2CHCH2CHCHC6HCH4C2HSCH2C2H3C3H2SH2C2HC2HCHCSCFeHSH2SFeSC2SHSC2S2H2C6H6CHCFeCHC5H2CHCHSH4C2PC2PH2C2SHC2HCHCHCH2C3H3C2H2FeCHCPCHC4HC5H2C7H7C3HC3HCH2C2HCHC2HCSHC3H3CFeCHC3HC2HC2HC2HFeCH2SHC2HC2HC2SCH2CHC2H3CHCHFeH3PCFeHC2HCSFeHSH2CSC2HCHCFeS2C6H4CH5C2HCHCFeC3HCH2SCHCH6C2H2PHC4HSCH3CHC2HC2HSCH2C5HCHC6PHCH2C3SC2H2FeH2C2H8C3H2C2HC2HC2HC3HC2H2C4HC5HC2H2C2HFeH2CPHC3H2CHS2HC2H2CH2C3H5C2HCH3C3H2CHCHC4H2C3H2SH2FeS2FeS2FeSFeS3CS2FeSHC5H2C6H4C6H5CHC3SHC7H3CH5SC5HSCHCH4CPHCH2CH3CHC5HCH3C2HCH4CPCHC2HSC2FeHC3HCHC5HC2H4SHC3H2C2FeC2HC2HC5SCH6C2H4C4HC2H3C8HC4PC5HCH2CHCHCHCHCHCSC2HC3HC3HCHC3HC2PH2FeC6HCH3CH3FeC4H3C4H3PC4HCH4C3HC2HSHCHCFeS2FeS2CHSFeS2FeS2FeSFeS3CHFeSC2FeSC6H4C6H5CFeH3C2H2PCSC3H2C6H4CH2CHCFeCH2SHCPC2HC6H7SC2HFeHC4HCPCHC2H3CH2C5H2C3HC7H2CPHC2SC3HCH4C2H2CH4CH2CHCH4CH2C2H5C5HCHC2HC2HCHC3HC2H2C7PC16H16CSC2FeCH4CH2C2H2CH2SH2C10H2CH4C6HC2H3FeCS2CFeS3PHCHFeSCFeS2H4C7H4C2HCHC6HSC3HFeHC2HCFeHC4HCHCHSH4CHCHC2SCH4CHCSH2C2PC3HCH2C9HCHC2H2CSCH3CH5C2HC4HCHCSC3FeCH4C2H2CH2CH2CHC2H2C3HCHCHC4HC4PSH2C8H4C2H2SHCH2SHCHC2Fe2HCHCHC2H2CSCHC2HCPH5C2HSCH2SCHCFeS2C6H6C2HC2H2C5H3SCH2C4Fe2SCHC4H3C2H3FeH3CHCHSCH2SCHCHPCH2C2HC2H2CH2PC4HCH2CHCH3SC2HCHC2HC3SC4H3C3HCHPHCHSCH2C4HCHCHC3HC2HCHFeS2CHC4HCHSC2H2C3H
_chemical_formula_sum              "C1440 H1152 S192 Fe96 P48"
_cell_length_a       55.9589
_cell_length_b       55.9469
_cell_length_c       34.2468
_cell_angle_alpha    91.3336
_cell_angle_beta     87.3242
_cell_angle_gamma    88.7617

_space_group_name_H-M_alt    "P 1"
_space_group_IT_number       1

loop_
  _space_group_symop_operation_xyz
  'x, y, z'

loop_
  _atom_site_type_symbol
  _atom_site_label
  _atom_site_symmetry_multiplicity
  _atom_site_fract_x
  _atom_site_fract_y
  _atom_site_fract_z
  _atom_site_occupancy
  C   C1        1.0  0.12524  0.02414  0.33755  1.0000
  H   H1        1.0  0.46808  0.08726  0.42784  1.0000
  C   C2        1.0  0.20041  0.06307  0.40450  1.0000
  C   C3        1.0  0.45810  0.16909  0.43710  1.0000
  C   C4        1.0  0.48406  0.00495  0.35690  1.0000
  H   H2        1.0  0.33895  0.02882  0.03030  1.0000
  C   C5        1.0  0.04705  0.04369  0.39578  1.0000
  H   H3        1.0  0.47450  0.10354  0.36449  1.0000
  S   S1        1.0  0.00350  0.17301  0.46829  1.0000
  H   H4        1.0  0.27221  0.04966  0.24365  1.0000
  H   H5        1.0  0.48527  0.06195  0.14263  1.0000
  H   H6        1.0  0.47362  0.05507  0.24455  1.0000
  H   H7        1.0  0.31097  0.02682  0.43255  1.0000
  S   S2        1.0  0.01327  0.30288  0.16252  1.0000
  C   C6        1.0  0.47545  0.05487  0.11864  1.0000
  Fe  Fe1       1.0  0.47386  0.17612  0.20329  1.0000
  S   S3        1.0  0.46250  0.14304  0.17155  1.0000
  H   H8        1.0  0.48039  0.24438  0.42563  1.0000
  Fe  Fe2       1.0  0.44268  0.13406  0.22748  1.0000
  S   S4        1.0  0.40476  0.12069  0.23035  1.0000
  S   S5        1.0  0.45150  0.16848  0.25844  1.0000
  S   S6        1.0  0.18346  0.00335  0.44685  1.0000
  S   S7        1.0  0.12653  0.04596  0.43667  1.0000
  S   S8        1.0  0.27242  0.99396  0.23163  1.0000
  C   C7        1.0  0.24115  0.08474  0.37254  1.0000
  H   H9        1.0  0.00208  0.21906  0.38220  1.0000
  C   C8        1.0  0.42451  0.08916  0.31777  1.0000
  H   H10       1.0  0.48979  0.01930  0.12388  1.0000
  S   S9        1.0  0.38828  0.01619  0.16276  1.0000
  S   S10       1.0  0.31562  0.01037  0.14792  1.0000
  C   C9        1.0  0.49093  0.99887  0.21301  1.0000
  C   C10       1.0  0.46443  0.02122  0.07835  1.0000
  Fe  Fe3       1.0  0.00329  0.13340  0.48196  1.0000
  C   C11       1.0  0.46588  0.16452  0.39771  1.0000
  H   H11       1.0  0.45713  0.17349  0.37444  1.0000
  C   C12       1.0  0.39999  0.09201  0.21019  1.0000
  C   C13       1.0  0.41857  0.07900  0.19029  1.0000
  C   C14       1.0  0.41442  0.05603  0.17497  1.0000
  C   C15       1.0  0.39184  0.04579  0.17986  1.0000
  C   C16       1.0  0.37312  0.05895  0.19904  1.0000
  C   C17       1.0  0.37721  0.08204  0.21418  1.0000
  H   H12       1.0  0.43613  0.08661  0.18680  1.0000
  H   H13       1.0  0.42890  0.04592  0.15994  1.0000
  H   H14       1.0  0.35565  0.05122  0.20254  1.0000
  H   H15       1.0  0.36273  0.09213  0.22928  1.0000
  H   H16       1.0  0.41521  0.11850  0.99131  1.0000
  C   C18       1.0  0.35545  0.03845  0.03274  1.0000
  C   C19       1.0  0.28641  0.04969  0.33947  1.0000
  H   H17       1.0  0.09896  0.08373  0.40313  1.0000
  C   C20       1.0  0.30563  0.09462  0.45834  1.0000
  C   C21       1.0  0.10039  0.06256  0.45485  1.0000
  C   C22       1.0  0.14799  0.01330  0.33575  1.0000
  H   H18       1.0  0.18448  0.05460  0.41647  1.0000
  C   C23       1.0  0.27236  0.04992  0.30660  1.0000
  Fe  Fe4       1.0  0.35282  0.99734  0.15902  1.0000
  C   C24       1.0  0.30899  0.04570  0.44000  1.0000
  H   H19       1.0  0.23573  0.01622  0.28194  1.0000
  C   C25       1.0  0.05642  0.01847  0.44975  1.0000
  H   H20       1.0  0.05247  0.05202  0.36864  1.0000
  C   C26       1.0  0.24335  0.06202  0.38886  1.0000
  C   C27       1.0  0.32457  0.05588  0.46614  1.0000
  C   C28       1.0  0.26134  0.00867  0.43595  1.0000
  H   H21       1.0  0.40905  0.09762  0.30543  1.0000
  H   H22       1.0  0.31622  0.05024  0.23454  1.0000
  C   C29       1.0  0.46919  0.24682  0.11855  1.0000
  C   C30       1.0  0.47301  0.25558  0.08040  1.0000
  H   H23       1.0  0.46118  0.25851  0.14136  1.0000
  H   H24       1.0  0.46785  0.27376  0.07411  1.0000
  C   C31       1.0  0.19852  0.08582  0.38889  1.0000
  C   C32       1.0  0.48358  0.24079  0.05059  1.0000
  Fe  Fe5       1.0  0.14337  0.00981  0.45313  1.0000
  C   C33       1.0  0.32220  0.05034  0.29635  1.0000
  H   H25       1.0  0.25308  0.04924  0.30990  1.0000
  S   S11       1.0  0.47154  0.21358  0.17688  1.0000
  C   C34       1.0  0.46155  0.09236  0.35100  1.0000
  H   H26       1.0  0.46161  0.05576  0.98905  1.0000
  C   C35       1.0  0.06983  0.09386  0.44430  1.0000
  H   H27       1.0  0.28002  0.00199  0.33985  1.0000
  C   C36       1.0  0.44865  0.03603  0.05891  1.0000
  C   C37       1.0  0.44637  0.06050  0.06894  1.0000
  C   C38       1.0  0.46004  0.06986  0.09887  1.0000
  P   P1        1.0  0.42572  0.07942  0.04390  1.0000
  C   C39       1.0  0.39811  0.06354  0.03933  1.0000
  C   C40       1.0  0.41974  0.10648  0.07298  1.0000
  C   C41       1.0  0.43399  0.12663  0.06721  1.0000
  C   C42       1.0  0.42965  0.14744  0.09009  1.0000
  C   C43       1.0  0.41146  0.14813  0.11949  1.0000
  C   C44       1.0  0.39759  0.12803  0.12600  1.0000
  C   C45       1.0  0.40168  0.10727  0.10292  1.0000
  C   C46       1.0  0.38994  0.04863  0.06933  1.0000
  C   C47       1.0  0.36868  0.03624  0.06607  1.0000
  Fe  Fe6       1.0  0.48349  0.14811  0.27901  1.0000
  H   H28       1.0  0.08895  0.02186  0.32007  1.0000
  C   C48       1.0  0.36341  0.05319  0.00267  1.0000
  C   C49       1.0  0.48575  0.14947  0.38874  1.0000
  H   H29       1.0  0.45028  0.03430  0.32736  1.0000
  C   C50       1.0  0.44969  0.02647  0.23213  1.0000
  C   C51       1.0  0.21887  0.09661  0.37276  1.0000
  C   C52       1.0  0.47780  0.03066  0.10825  1.0000
  C   C53       1.0  0.47163  0.07124  0.48326  1.0000
  C   C54       1.0  0.32290  0.08033  0.47531  1.0000
  S   S12       1.0  0.47315  0.11311  0.25110  1.0000
  C   C55       1.0  0.46958  0.15821  0.46808  1.0000
  H   H30       1.0  0.43796  0.02835  0.03641  1.0000
  H   H31       1.0  0.45849  0.08853  0.10790  1.0000
  H   H32       1.0  0.44865  0.12622  0.04545  1.0000
  H   H33       1.0  0.44076  0.16292  0.08587  1.0000
  H   H34       1.0  0.40856  0.16400  0.13806  1.0000
  H   H35       1.0  0.38402  0.12834  0.14970  1.0000
  H   H36       1.0  0.39098  0.09183  0.10923  1.0000
  H   H37       1.0  0.39987  0.04671  0.09548  1.0000
  C   C56       1.0  0.47575  0.22318  0.12757  1.0000
  C   C57       1.0  0.49013  0.21713  0.05958  1.0000
  C   C58       1.0  0.22266  0.05114  0.40433  1.0000
  C   C59       1.0  0.44134  0.10315  0.33588  1.0000
  C   C60       1.0  0.28990  0.08446  0.43238  1.0000
  H   H38       1.0  0.22338  0.03336  0.41580  1.0000
  C   C61       1.0  0.42782  0.06435  0.31505  1.0000
  C   C62       1.0  0.23647  0.99761  0.28941  1.0000
  H   H39       1.0  0.46596  0.00233  0.07072  1.0000
  C   C63       1.0  0.48616  0.20833  0.09768  1.0000
  H   H40       1.0  0.25738  0.02212  0.45860  1.0000
  H   H41       1.0  0.16233  0.02138  0.35130  1.0000
  H   H42       1.0  0.18120  0.09491  0.38894  1.0000
  H   H43       1.0  0.21730  0.11410  0.36004  1.0000
  C   C64       1.0  0.09058  0.08039  0.43151  1.0000
  P   P2        1.0  0.27230  0.04666  0.38759  1.0000
  H   H44       1.0  0.32280  0.04905  0.35877  1.0000
  H   H45       1.0  0.43368  0.03712  0.23958  1.0000
  H   H46       1.0  0.01410  0.25452  0.34400  1.0000
  C   C65       1.0  0.29139  0.05987  0.42307  1.0000
  H   H47       1.0  0.12204  0.04076  0.35409  1.0000
  C   C66       1.0  0.31147  0.04976  0.33408  1.0000
  H   H48       1.0  0.41471  0.05364  0.30082  1.0000
  H   H49       1.0  0.43004  0.99557  0.21581  1.0000
  H   H50       1.0  0.44326  0.18148  0.44364  1.0000
  C   C67       1.0  0.99914  0.31636  0.01341  1.0000
  H   H51       1.0  0.43902  0.12246  0.33750  1.0000
  H   H52       1.0  0.36234  0.02501  0.08958  1.0000
  C   C68       1.0  0.28313  0.05035  0.26899  1.0000
  H   H53       1.0  0.27684  0.09595  0.41954  1.0000
  C   C69       1.0  0.06280  0.02807  0.41353  1.0000
  H   H54       1.0  0.06253  0.10736  0.42587  1.0000
  H   H55       1.0  0.08048  0.02427  0.40024  1.0000
  H   H56       1.0  0.34152  0.05023  0.29210  1.0000
  H   H57       1.0  0.01261  0.06174  0.40045  1.0000
  C   C70       1.0  0.26904  0.01536  0.39821  1.0000
  C   C71       1.0  0.44806  0.05349  0.33024  1.0000
  S   S13       1.0  0.00088  0.27301  0.27001  1.0000
  H   H58       1.0  0.25662  0.09318  0.35912  1.0000
  C   C72       1.0  0.44772  0.00285  0.21865  1.0000
  C   C73       1.0  0.30801  0.05049  0.26383  1.0000
  P   P3        1.0  0.49129  0.05388  0.36898  1.0000
  C   C74       1.0  0.02465  0.04923  0.41380  1.0000
  C   C75       1.0  0.38460  0.06577  0.00594  1.0000
  C   C76       1.0  0.05888  0.09013  0.48120  1.0000
  C   C77       1.0  0.47441  0.07160  0.44248  1.0000
  C   C78       1.0  0.01800  0.03922  0.44962  1.0000
  H   H59       1.0  0.46930  0.00703  0.37843  1.0000
  C   C79       1.0  0.46514  0.06746  0.34844  1.0000
  H   H60       1.0  0.00046  0.04360  0.46278  1.0000
  C   C80       1.0  0.43764  0.08666  0.99564  1.0000
  C   C81       1.0  0.47217  0.03655  0.23498  1.0000
  H   H61       1.0  0.20843  0.00164  0.33503  1.0000
  H   H62       1.0  0.30451  0.11364  0.46518  1.0000
  C   C82       1.0  0.48873  0.14218  0.45896  1.0000
  C   C83       1.0  0.10659  0.01344  0.31840  1.0000
  C   C84       1.0  0.00087  0.24267  0.33285  1.0000
  H   H63       1.0  0.01279  0.31681  0.32958  1.0000
  H   H64       1.0  0.06928  0.00708  0.46339  1.0000
  C   C85       1.0  0.48581  0.05233  0.42143  1.0000
  H   H65       1.0  0.33818  0.04486  0.47885  1.0000
  S   S14       1.0  0.30197  0.99478  0.04020  1.0000
  C   C86       1.0  0.03408  0.02419  0.46842  1.0000
  H   H66       1.0  0.49149  0.19019  0.10408  1.0000
  H   H67       1.0  0.00893  0.32300  0.03773  1.0000
  C   C87       1.0  0.27411  0.99752  0.36931  1.0000
  H   H68       1.0  0.48398  0.31585  0.09054  1.0000
  H   H69       1.0  0.44185  0.99460  0.14097  1.0000
  C   C88       1.0  0.99411  0.22249  0.35466  1.0000
  S   S15       1.0  0.48949  0.25090  0.00197  1.0000
  C   C89       1.0  0.49194  0.03264  0.48296  1.0000
  C   C90       1.0  0.99499  0.32414  0.33701  1.0000
  H   H70       1.0  0.21709  0.07787  0.48540  1.0000
  C   C91       1.0  0.11070  0.99198  0.29712  1.0000
  H   H71       1.0  0.20695  0.99420  0.19925  1.0000
  H   H72       1.0  0.16630  0.99244  0.23042  1.0000
  Fe  Fe7       1.0  0.46467  0.29676  0.88756  1.0000
  S   S16       1.0  0.03306  0.10704  0.49998  1.0000
  H   H73       1.0  0.09661  0.04521  0.51014  1.0000
  C   C92       1.0  0.31230  0.00102  0.59325  1.0000
  Fe  Fe8       1.0  0.44533  0.11640  0.63468  1.0000
  S   S17       1.0  0.43852  0.15574  0.62568  1.0000
  S   S18       1.0  0.41940  0.08589  0.62897  1.0000
  Fe  Fe9       1.0  0.46781  0.15172  0.57779  1.0000
  S   S19       1.0  0.45999  0.16634  0.51727  1.0000
  Fe  Fe10      1.0  0.46793  0.16213  0.66804  1.0000
  H   H74       1.0  0.47618  0.21265  0.53226  1.0000
  C   C93       1.0  0.05619  0.02242  0.57260  1.0000
  H   H75       1.0  0.06095  0.06972  0.53355  1.0000
  Fe  Fe11      1.0  0.32885  0.01534  0.75564  1.0000
  S   S20       1.0  0.34345  0.05281  0.75924  1.0000
  S   S21       1.0  0.29545  0.00496  0.79013  1.0000
  C   C94       1.0  0.36437  0.06201  0.72273  1.0000
  C   C95       1.0  0.36996  0.04773  0.68939  1.0000
  C   C96       1.0  0.38683  0.05537  0.66090  1.0000
  C   C97       1.0  0.39843  0.07717  0.66570  1.0000
  C   C98       1.0  0.39280  0.09152  0.69891  1.0000
  C   C99       1.0  0.37571  0.08401  0.72726  1.0000
  H   H76       1.0  0.36123  0.03086  0.68561  1.0000
  H   H77       1.0  0.39100  0.04431  0.63508  1.0000
  H   H78       1.0  0.40131  0.10856  0.70229  1.0000
  H   H79       1.0  0.37128  0.09523  0.75285  1.0000
  H   H80       1.0  0.42845  0.26260  0.76203  1.0000
  C   C100      1.0  0.06894  0.07255  0.50476  1.0000
  H   H81       1.0  0.43645  0.22647  0.71944  1.0000
  C   C101      1.0  0.99879  0.30297  0.56868  1.0000
  C   C102      1.0  0.43694  0.11190  0.93870  1.0000
  H   H82       1.0  0.42989  0.12743  0.92432  1.0000
  C   C103      1.0  0.06975  0.32161  0.57703  1.0000
  H   H83       1.0  0.02884  0.29118  0.66645  1.0000
  H   H84       1.0  0.45671  0.22241  0.65402  1.0000
  C   C104      1.0  0.00939  0.28061  0.57512  1.0000
  H   H85       1.0  0.47531  0.06451  0.92157  1.0000
  H   H86       1.0  0.43139  0.04072  0.70832  1.0000
  C   C105      1.0  0.01082  0.31715  0.63201  1.0000
  H   H87       1.0  0.39023  0.07715  0.98234  1.0000
  C   C106      1.0  0.44762  0.22997  0.74374  1.0000
  C   C107      1.0  0.42879  0.10686  0.97681  1.0000
  H   H88       1.0  0.40993  0.05559  0.76850  1.0000
  C   C108      1.0  0.42949  0.00330  0.72339  1.0000
  C   C109      1.0  0.07612  0.01910  0.59519  1.0000
  C   C110      1.0  0.99397  0.31367  0.94244  1.0000
  C   C111      1.0  0.45468  0.07155  0.97557  1.0000
  C   C112      1.0  0.44305  0.25048  0.76815  1.0000
  C   C113      1.0  0.45703  0.25540  0.80045  1.0000
  H   H89       1.0  0.42941  0.15932  0.77623  1.0000
  H   H90       1.0  0.04485  0.03809  0.57855  1.0000
  C   C114      1.0  0.46650  0.21406  0.75094  1.0000
  H   H91       1.0  0.22871  0.03695  0.68459  1.0000
  C   C115      1.0  0.30117  0.99673  0.95988  1.0000
  C   C116      1.0  0.02096  0.29464  0.63871  1.0000
  H   H92       1.0  0.29183  0.01800  0.50581  1.0000
  S   S22       1.0  0.48615  0.32447  0.98552  1.0000
  C   C117      1.0  0.29954  0.00692  0.52760  1.0000
  C   C118      1.0  0.25047  0.04064  0.53928  1.0000
  C   C119      1.0  0.26905  0.05599  0.54861  1.0000
  C   C120      1.0  0.26861  0.07940  0.53469  1.0000
  P   P4        1.0  0.29214  0.04583  0.58020  1.0000
  C   C121      1.0  0.31806  0.06472  0.57894  1.0000
  C   C122      1.0  0.28030  0.04612  0.63040  1.0000
  C   C123      1.0  0.25611  0.04135  0.63917  1.0000
  S   S23       1.0  0.01438  0.30222  0.78123  1.0000
  H   H93       1.0  0.29182  0.01369  0.96539  1.0000
  H   H94       1.0  0.47426  0.16032  0.87843  1.0000
  C   C124      1.0  0.29538  0.05076  0.66136  1.0000
  C   C125      1.0  0.34077  0.05555  0.56612  1.0000
  C   C126      1.0  0.36107  0.06949  0.56947  1.0000
  C   C127      1.0  0.35893  0.09262  0.58563  1.0000
  C   C128      1.0  0.33646  0.10191  0.59837  1.0000
  C   C129      1.0  0.31613  0.08802  0.59522  1.0000
  C   C130      1.0  0.30170  0.01567  0.56601  1.0000
  H   H95       1.0  0.33513  0.08827  0.49532  1.0000
  H   H96       1.0  0.01694  0.06219  0.52174  1.0000
  S   S24       1.0  0.31864  0.99683  0.70031  1.0000
  C   C131      1.0  0.48928  0.17201  0.87412  1.0000
  H   H97       1.0  0.36016  0.99330  0.63395  1.0000
  C   C132      1.0  0.46374  0.14929  0.79731  1.0000
  H   H98       1.0  0.46884  0.16774  0.80106  1.0000
  S   S25       1.0  0.44433  0.29247  0.94551  1.0000
  H   H99       1.0  0.25016  0.02256  0.54985  1.0000
  H   H100      1.0  0.28249  0.09174  0.54134  1.0000
  H   H101      1.0  0.24407  0.03696  0.61650  1.0000
  C   C133      1.0  0.47580  0.23940  0.80789  1.0000
  C   C134      1.0  0.40523  0.02069  0.79228  1.0000
  C   C135      1.0  0.47966  0.13044  0.80512  1.0000
  H   H102      1.0  0.31428  0.05386  0.65602  1.0000
  H   H103      1.0  0.34308  0.03746  0.55457  1.0000
  C   C136      1.0  0.23184  0.04851  0.51665  1.0000
  H   H104      1.0  0.37482  0.10311  0.58926  1.0000
  H   H105      1.0  0.33498  0.11963  0.61186  1.0000
  H   H106      1.0  0.29901  0.09511  0.60688  1.0000
  H   H107      1.0  0.37869  0.06221  0.56078  1.0000
  H   H108      1.0  0.47835  0.05171  0.53517  1.0000
  C   C137      1.0  0.41362  0.03660  0.76428  1.0000
  C   C138      1.0  0.46391  0.21812  0.59186  1.0000
  C   C139      1.0  0.25001  0.08719  0.51175  1.0000
  H   H109      1.0  0.25544  0.04552  0.73852  1.0000
  H   H110      1.0  0.44556  0.08392  0.77629  1.0000
  H   H111      1.0  0.31455  0.00768  0.62260  1.0000
  C   C140      1.0  0.26226  0.04616  0.70843  1.0000
  C   C141      1.0  0.24718  0.04143  0.67799  1.0000
  H   H112      1.0  0.47393  0.19937  0.91388  1.0000
  C   C142      1.0  0.23163  0.07176  0.50277  1.0000
  H   H113      1.0  0.35300  0.05487  0.97692  1.0000
  C   C143      1.0  0.08932  0.05868  0.49161  1.0000
  H   H114      1.0  0.10674  0.99654  0.60577  1.0000
  S   S26       1.0  0.45045  0.28197  0.82971  1.0000
  H   H115      1.0  0.07988  0.03209  0.61793  1.0000
  S   S27       1.0  0.47344  0.18800  0.72064  1.0000
  H   H116      1.0  0.44534  0.21548  0.58550  1.0000
  C   C144      1.0  0.05134  0.00589  0.54256  1.0000
  H   H117      1.0  0.47165  0.06454  0.61311  1.0000
  C   C145      1.0  0.45048  0.10214  0.78294  1.0000
  H   H118      1.0  0.02749  0.25872  0.61602  1.0000
  C   C146      1.0  0.45375  0.09667  0.91886  1.0000
  C   C147      1.0  0.47030  0.22195  0.63041  1.0000
  C   C148      1.0  0.47299  0.10680  0.79718  1.0000
  C   C149      1.0  0.48032  0.05176  0.50350  1.0000
  H   H119      1.0  0.24972  0.10529  0.50120  1.0000
  H   H120      1.0  0.00818  0.26609  0.55376  1.0000
  C   C150      1.0  0.45953  0.03294  0.64159  1.0000
  C   C151      1.0  0.02032  0.27639  0.61026  1.0000
  C   C152      1.0  0.00438  0.05355  0.54140  1.0000
  H   H121      1.0  0.48790  0.31528  0.78486  1.0000
  C   C153      1.0  0.28629  0.05098  0.70010  1.0000
  C   C154      1.0  0.48902  0.19405  0.89432  1.0000
  S   S28       1.0  0.47319  0.11254  0.58534  1.0000
  H   H122      1.0  0.08420  0.31607  0.51808  1.0000
  H   H123      1.0  0.41724  0.11742  0.76479  1.0000
  H   H124      1.0  0.44090  0.03733  0.63725  1.0000
  C   C155      1.0  0.40909  0.99611  0.78615  1.0000
  H   H125      1.0  0.06397  0.30333  0.57994  1.0000
  C   C156      1.0  0.43457  0.12101  0.77615  1.0000
  H   H126      1.0  0.45974  0.10039  0.88908  1.0000
  C   C157      1.0  0.99960  0.32150  0.59698  1.0000
  C   C158      1.0  0.42574  0.02801  0.72999  1.0000
  C   C159      1.0  0.46256  0.07648  0.93726  1.0000
  H   H127      1.0  0.48523  0.09194  0.80107  1.0000
  C   C160      1.0  0.44130  0.14458  0.78300  1.0000
  S   S29       1.0  0.47222  0.12263  0.68053  1.0000
  P   P5        1.0  0.02526  0.01019  0.51381  1.0000
  H   H128      1.0  0.29802  0.05442  0.72381  1.0000
  H   H129      1.0  0.39507  0.02737  0.81813  1.0000
  Fe  Fe12      1.0  0.48065  0.28554  0.96968  1.0000
  C   C161      1.0  0.00398  0.02854  0.54307  1.0000
  C   C162      1.0  0.09126  0.99915  0.58833  1.0000
  C   C163      1.0  0.37891  0.99279  0.62460  1.0000
  H   H130      1.0  0.39836  0.29948  0.86665  1.0000
  H   H131      1.0  0.48681  0.24288  0.83240  1.0000
  C   C164      1.0  0.49042  0.00738  0.66683  1.0000
  C   C165      1.0  0.46606  0.01216  0.66111  1.0000
  H   H132      1.0  0.08614  0.31769  0.96778  1.0000
  H   H133      1.0  0.35571  0.30656  0.85227  1.0000
  C   C166      1.0  0.47697  0.04845  0.62763  1.0000
  C   C167      1.0  0.39619  0.99233  0.65278  1.0000
  C   C168      1.0  0.36882  0.31990  0.84493  1.0000
  C   C169      1.0  0.39278  0.31592  0.85313  1.0000
  S   S30       1.0  0.00393  0.32193  0.89428  1.0000
  C   C170      1.0  0.48050  0.21897  0.78326  1.0000
  C   C171      1.0  0.48155  0.21656  0.56158  1.0000
  H   H134      1.0  0.29949  0.99865  0.89691  1.0000
  H   H135      1.0  0.46304  0.08634  0.49923  1.0000
  H   H136      1.0  0.21748  0.03649  0.51016  1.0000
  C   C172      1.0  0.00602  0.32260  0.97478  1.0000
  H   H137      1.0  0.37233  0.99278  0.56321  1.0000
  C   C173      1.0  0.38581  0.99239  0.58488  1.0000
  H   H138      1.0  0.39031  0.99249  0.68339  1.0000
  S   S31       1.0  0.25116  0.45631  0.05986  1.0000
  C   C174      1.0  0.01423  0.41030  0.35701  1.0000
  Fe  Fe13      1.0  0.15246  0.48613  0.24969  1.0000
  S   S32       1.0  0.11417  0.47778  0.23619  1.0000
  S   S33       1.0  0.18315  0.49568  0.20519  1.0000
  Fe  Fe14      1.0  0.14089  0.48642  0.34018  1.0000
  S   S34       1.0  0.10253  0.47819  0.33215  1.0000
  S   S35       1.0  0.15873  0.48960  0.39914  1.0000
  Fe  Fe15      1.0  0.11591  0.45183  0.28542  1.0000
  S   S36       1.0  0.10038  0.41494  0.29198  1.0000
  Fe  Fe16      1.0  0.10368  0.50493  0.28399  1.0000
  S   S37       1.0  0.07069  0.52949  0.28657  1.0000
  S   S38       1.0  0.15463  0.45827  0.29625  1.0000
  S   S39       1.0  0.14150  0.51514  0.29493  1.0000
  C   C175      1.0  0.02240  0.51797  0.13898  1.0000
  S   S40       1.0  0.03294  0.37071  0.16623  1.0000
  C   C176      1.0  0.01850  0.54191  0.15033  1.0000
  Fe  Fe17      1.0  0.01233  0.62563  0.15730  1.0000
  S   S41       1.0  0.04895  0.60730  0.15907  1.0000
  H   H139      1.0  0.25604  0.40859  0.26984  1.0000
  C   C177      1.0  0.14690  0.48590  0.44781  1.0000
  C   C178      1.0  0.12251  0.48275  0.45638  1.0000
  H   H140      1.0  0.01867  0.52040  0.23514  1.0000
  C   C179      1.0  0.48722  0.33424  0.08308  1.0000
  H   H141      1.0  0.31842  0.47309  0.10960  1.0000
  C   C180      1.0  0.36636  0.62861  0.02045  1.0000
  H   H142      1.0  0.11023  0.48264  0.43292  1.0000
  Fe  Fe18      1.0  0.27717  0.47057  0.01187  1.0000
  H   H143      1.0  0.20445  0.48703  0.36003  1.0000
  C   C181      1.0  0.99544  0.49861  0.42101  1.0000
  C   C182      1.0  0.08103  0.40334  0.25736  1.0000
  C   C183      1.0  0.08147  0.41156  0.21915  1.0000
  C   C184      1.0  0.06641  0.40153  0.19175  1.0000
  C   C185      1.0  0.05088  0.38312  0.20224  1.0000
  C   C186      1.0  0.05015  0.37508  0.24064  1.0000
  C   C187      1.0  0.06530  0.38509  0.26805  1.0000
  H   H144      1.0  0.09382  0.42529  0.21050  1.0000
  H   H145      1.0  0.06710  0.40778  0.16207  1.0000
  H   H146      1.0  0.03833  0.36081  0.24891  1.0000
  H   H147      1.0  0.06506  0.37848  0.29748  1.0000
  C   C188      1.0  0.06511  0.55087  0.25054  1.0000
  C   C189      1.0  0.08181  0.55535  0.22009  1.0000
  C   C190      1.0  0.07676  0.57285  0.19248  1.0000
  C   C191      1.0  0.05491  0.58581  0.19481  1.0000
  C   C192      1.0  0.03804  0.58096  0.22484  1.0000
  C   C193      1.0  0.04322  0.56371  0.25273  1.0000
  H   H148      1.0  0.09875  0.54559  0.21809  1.0000
  H   H149      1.0  0.08986  0.57640  0.16922  1.0000
  H   H150      1.0  0.02108  0.59061  0.22657  1.0000
  H   H151      1.0  0.03024  0.56026  0.27614  1.0000
  H   H152      1.0  0.31661  0.46993  0.29480  1.0000
  H   H153      1.0  0.24174  0.48005  0.24709  1.0000
  H   H154      1.0  0.29962  0.54596  0.02893  1.0000
  C   C194      1.0  0.23134  0.46860  0.09814  1.0000
  C   C195      1.0  0.23446  0.49116  0.11550  1.0000
  C   C196      1.0  0.21944  0.49916  0.14783  1.0000
  C   C197      1.0  0.20087  0.48494  0.16312  1.0000
  C   C198      1.0  0.19734  0.46269  0.14498  1.0000
  C   C199      1.0  0.21256  0.45455  0.11304  1.0000
  H   H155      1.0  0.24868  0.50227  0.10442  1.0000
  H   H156      1.0  0.22223  0.51655  0.16107  1.0000
  H   H157      1.0  0.18280  0.45181  0.15539  1.0000
  H   H158      1.0  0.20979  0.43715  0.09979  1.0000
  H   H159      1.0  0.04054  0.53488  0.99622  1.0000
  H   H160      1.0  0.19322  0.52825  0.34615  1.0000
  H   H161      1.0  0.27473  0.47712  0.31902  1.0000
  H   H162      1.0  0.45182  0.60052  0.14204  1.0000
  H   H163      1.0  0.17094  0.38581  0.23322  1.0000
  H   H164      1.0  0.17932  0.45265  0.03781  1.0000
  C   C200      1.0  0.06117  0.42421  0.36785  1.0000
  H   H165      1.0  0.05482  0.37532  0.03890  1.0000
  C   C201      1.0  0.06217  0.51731  0.48328  1.0000
  C   C202      1.0  0.21265  0.42899  0.28735  1.0000
  H   H166      1.0  0.01763  0.60537  0.29829  1.0000
  C   C203      1.0  0.06032  0.50593  0.44670  1.0000
  H   H167      1.0  0.07141  0.33406  0.03260  1.0000
  H   H168      1.0  0.46147  0.43417  0.01260  1.0000
  C   C204      1.0  0.33674  0.46919  0.09971  1.0000
  H   H169      1.0  0.07978  0.44305  0.44775  1.0000
  H   H170      1.0  0.29486  0.42474  0.05380  1.0000
  C   C205      1.0  0.38281  0.45984  0.06691  1.0000
  C   C206      1.0  0.12689  0.40468  0.45727  1.0000
  H   H171      1.0  0.99526  0.45886  0.20244  1.0000
  H   H172      1.0  0.21548  0.40059  0.32904  1.0000
  H   H173      1.0  0.17977  0.42544  0.20618  1.0000
  C   C207      1.0  0.36933  0.44117  0.08220  1.0000
  C   C208      1.0  0.27958  0.46059  0.30316  1.0000
  P   P6        1.0  0.23150  0.44911  0.31343  1.0000
  H   H174      1.0  0.01835  0.46943  0.40068  1.0000
  C   C209      1.0  0.19301  0.39071  0.28259  1.0000
  H   H175      1.0  0.29432  0.51685  0.08092  1.0000
  C   C210      1.0  0.22741  0.44362  0.36515  1.0000
  H   H176      1.0  0.03957  0.51227  0.12561  1.0000
  H   H177      1.0  0.39934  0.40247  0.01699  1.0000
  H   H178      1.0  0.35463  0.37879  0.08048  1.0000
  C   C211      1.0  0.29038  0.53563  0.08732  1.0000
  C   C212      1.0  0.01593  0.46747  0.28272  1.0000
  H   H179      1.0  0.05213  0.49871  0.19938  1.0000
  C   C213      1.0  0.24702  0.44220  0.38921  1.0000
  C   C214      1.0  0.20413  0.44212  0.38206  1.0000
  C   C215      1.0  0.26883  0.62195  0.03518  1.0000
  H   H180      1.0  0.21077  0.63189  0.06763  1.0000
  H   H181      1.0  0.27959  0.40261  0.11457  1.0000
  H   H182      1.0  0.03254  0.55474  0.14566  1.0000
  H   H183      1.0  0.24177  0.41605  0.14817  1.0000
  C   C216      1.0  0.29274  0.41820  0.26201  1.0000
  C   C217      1.0  0.34625  0.44572  0.09902  1.0000
  H   H184      1.0  0.99622  0.40448  0.35263  1.0000
  C   C218      1.0  0.25818  0.42502  0.15437  1.0000
  H   H185      1.0  0.29277  0.64998  0.01681  1.0000
  H   H186      1.0  0.37667  0.42309  0.08001  1.0000
  C   C219      1.0  0.20433  0.51788  0.32487  1.0000
  H   H187      1.0  0.34284  0.50586  0.08451  1.0000
  C   C220      1.0  0.18296  0.39761  0.24792  1.0000
  C   C221      1.0  0.28776  0.57653  0.06504  1.0000
  C   C222      1.0  0.25760  0.44458  0.18047  1.0000
  C   C223      1.0  0.21185  0.52795  0.28959  1.0000
  H   H188      1.0  0.31659  0.45778  0.17616  1.0000
  H   H189      1.0  0.27832  0.47135  0.20875  1.0000
  S   S42       1.0  0.31744  0.46617  0.00999  1.0000
  C   C224      1.0  0.18803  0.41994  0.23256  1.0000
  H   H190      1.0  0.14275  0.39780  0.44103  1.0000
  C   C225      1.0  0.26900  0.42213  0.27576  1.0000
  S   S43       1.0  0.46143  0.63020  0.02629  1.0000
  C   C226      1.0  0.27970  0.41767  0.13493  1.0000
  H   H191      1.0  0.36935  0.43196  0.16471  1.0000
  C   C227      1.0  0.28234  0.54326  0.12488  1.0000
  C   C228      1.0  0.24332  0.43939  0.42955  1.0000
  H   H192      1.0  0.01856  0.56652  0.03643  1.0000
  C   C229      1.0  0.23170  0.49050  0.26934  1.0000
  C   C230      1.0  0.22872  0.63575  0.05664  1.0000
  H   H193      1.0  0.20642  0.54610  0.28324  1.0000
  H   H194      1.0  0.23095  0.52193  0.23419  1.0000
  C   C231      1.0  0.20289  0.43557  0.25203  1.0000
  H   H195      1.0  0.07963  0.42928  0.37036  1.0000
  H   H196      1.0  0.00783  0.48306  0.13593  1.0000
  C   C232      1.0  0.26222  0.44340  0.29640  1.0000
  H   H197      1.0  0.40034  0.45614  0.05308  1.0000
  C   C233      1.0  0.03046  0.39456  0.37356  1.0000
  C   C234      1.0  0.39728  0.57900  0.00054  1.0000
  C   C235      1.0  0.99867  0.60899  0.30414  1.0000
  C   C236      1.0  0.07097  0.34516  0.00706  1.0000
  C   C237      1.0  0.04148  0.48970  0.22157  1.0000
  C   C238      1.0  0.27500  0.64570  0.02799  1.0000
  H   H198      1.0  0.01121  0.41797  0.18672  1.0000
  C   C239      1.0  0.99287  0.37558  0.05074  1.0000
  H   H199      1.0  0.25847  0.43849  0.44808  1.0000
  C   C240      1.0  0.01002  0.49101  0.27252  1.0000
  C   C241      1.0  0.03426  0.45492  0.26085  1.0000
  C   C242      1.0  0.46782  0.34896  0.07394  1.0000
  H   H200      1.0  0.40840  0.58797  0.02104  1.0000
  H   H201      1.0  0.27989  0.53033  0.14772  1.0000
  C   C243      1.0  0.22395  0.48010  0.30448  1.0000
  C   C244      1.0  0.02272  0.50199  0.24203  1.0000
  H   H202      1.0  0.00487  0.36561  0.06869  1.0000
  C   C245      1.0  0.07472  0.55340  0.45121  1.0000
  C   C246      1.0  0.11151  0.42080  0.43987  1.0000
  C   C247      1.0  0.20268  0.47380  0.00181  1.0000
  H   H203      1.0  0.06164  0.45671  0.21466  1.0000
  H   H204      1.0  0.03115  0.40167  0.46716  1.0000
  C   C248      1.0  0.99638  0.54937  0.16737  1.0000
  H   H205      1.0  0.18868  0.44385  0.36426  1.0000
  H   H206      1.0  0.05537  0.48737  0.44489  1.0000
  H   H207      1.0  0.48581  0.58714  0.18089  1.0000
  C   C249      1.0  0.01831  0.56662  0.00477  1.0000
  C   C250      1.0  0.02150  0.43307  0.34542  1.0000
  H   H208      1.0  0.11567  0.42661  0.41035  1.0000
  H   H209      1.0  0.27134  0.57349  0.16204  1.0000
  C   C251      1.0  0.46698  0.61196  0.14557  1.0000
  C   C252      1.0  0.07274  0.54201  0.41472  1.0000
  C   C253      1.0  0.06552  0.51831  0.41244  1.0000
  C   C254      1.0  0.22007  0.43822  0.44615  1.0000
  C   C255      1.0  0.35042  0.48786  0.08494  1.0000
  C   C256      1.0  0.31930  0.37681  0.00267  1.0000
  C   C257      1.0  0.00431  0.50142  0.14533  1.0000
  H   H210      1.0  0.02506  0.37673  0.38129  1.0000
  C   C258      1.0  0.21051  0.49417  0.33244  1.0000
  H   H211      1.0  0.38112  0.55606  0.04380  1.0000
  H   H212      1.0  0.24032  0.59889  0.05493  1.0000
  H   H213      1.0  0.07721  0.55138  0.38803  1.0000
  H   H214      1.0  0.06439  0.50954  0.38399  1.0000
  C   C259      1.0  0.38175  0.56084  0.01337  1.0000
  C   C260      1.0  0.04700  0.46609  0.23056  1.0000
  H   H215      1.0  0.32691  0.60347  0.08479  1.0000
  H   H216      1.0  0.36737  0.62022  0.08131  1.0000
  H   H217      1.0  0.39021  0.40848  0.21335  1.0000
  H   H218      1.0  0.26513  0.44346  0.37712  1.0000
  H   H219      1.0  0.29779  0.40189  0.24571  1.0000
  C   C261      1.0  0.20050  0.43959  0.42239  1.0000
  H   H220      1.0  0.05121  0.45725  0.34188  1.0000
  H   H221      1.0  0.18898  0.37341  0.29454  1.0000
  C   C262      1.0  0.27744  0.56754  0.13286  1.0000
  C   C263      1.0  0.16258  0.48618  0.47884  1.0000
  H   H222      1.0  0.00512  0.50166  0.44729  1.0000
  H   H223      1.0  0.38343  0.49763  0.05543  1.0000
  C   C264      1.0  0.04507  0.43994  0.35117  1.0000
  C   C265      1.0  0.30989  0.43539  0.26888  1.0000
  C   C266      1.0  0.22579  0.51434  0.26205  1.0000
  H   H224      1.0  0.32197  0.37326  0.14643  1.0000
  C   C267      1.0  0.20789  0.40626  0.30217  1.0000
  H   H225      1.0  0.99668  0.59889  0.00420  1.0000
  C   C268      1.0  0.32042  0.60925  0.02378  1.0000
  C   C269      1.0  0.06149  0.36845  0.01050  1.0000
  C   C270      1.0  0.37336  0.48319  0.06834  1.0000
  H   H226      1.0  0.32825  0.43232  0.25809  1.0000
  H   H227      1.0  0.20585  0.45306  0.24019  1.0000
  H   H228      1.0  0.99338  0.56790  0.17655  1.0000
  C   C271      1.0  0.09124  0.42999  0.46095  1.0000
  C   C272      1.0  0.30332  0.45658  0.28947  1.0000
  C   C273      1.0  0.30394  0.39626  0.01247  1.0000
  H   H229      1.0  0.24069  0.45079  0.19407  1.0000
  C   C274      1.0  0.33731  0.37043  0.02761  1.0000
  C   C275      1.0  0.33990  0.38343  0.06249  1.0000
  C   C276      1.0  0.32414  0.40265  0.07302  1.0000
  C   C277      1.0  0.30646  0.40926  0.04732  1.0000
  P   P7        1.0  0.32870  0.42097  0.11601  1.0000
  C   C278      1.0  0.30082  0.43000  0.14135  1.0000
  C   C279      1.0  0.34445  0.40409  0.15133  1.0000
  C   C280      1.0  0.33689  0.38109  0.16080  1.0000
  C   C281      1.0  0.34872  0.36793  0.18859  1.0000
  C   C282      1.0  0.36797  0.37777  0.20744  1.0000
  C   C283      1.0  0.37529  0.40086  0.19870  1.0000
  C   C284      1.0  0.36352  0.41406  0.17087  1.0000
  C   C285      1.0  0.30033  0.44872  0.16941  1.0000
  C   C286      1.0  0.27871  0.45630  0.18830  1.0000
  H   H230      1.0  0.18242  0.43941  0.43525  1.0000
  H   H231      1.0  0.03920  0.43671  0.26763  1.0000
  Fe  Fe19      1.0  0.00595  0.34172  0.17816  1.0000
  C   C287      1.0  0.35681  0.61985  0.05560  1.0000
  H   H232      1.0  0.04459  0.36013  0.47987  1.0000
  C   C288      1.0  0.46744  0.63423  0.12802  1.0000
  H   H233      1.0  0.20600  0.48658  0.02514  1.0000
  H   H234      1.0  0.27654  0.60291  0.10990  1.0000
  H   H235      1.0  0.38437  0.63546  0.01873  1.0000
  H   H236      1.0  0.06689  0.38905  0.39019  1.0000
  S   S44       1.0  0.34644  0.52739  0.00599  1.0000
  C   C289      1.0  0.05397  0.40148  0.37881  1.0000
  H   H237      1.0  0.18148  0.48870  0.47261  1.0000
  H   H238      1.0  0.00378  0.64481  0.32607  1.0000
  H   H239      1.0  0.34992  0.35605  0.01902  1.0000
  P   P8        1.0  0.29044  0.59774  0.02607  1.0000
  C   C290      1.0  0.29319  0.55221  0.05764  1.0000
  P   P9        1.0  0.00081  0.45368  0.32408  1.0000
  H   H240      1.0  0.45254  0.64025  0.11135  1.0000
  C   C291      1.0  0.18765  0.45462  0.00889  1.0000
  C   C292      1.0  0.28027  0.58416  0.10314  1.0000
  C   C293      1.0  0.24553  0.61711  0.04948  1.0000
  C   C294      1.0  0.33390  0.61025  0.05735  1.0000
  C   C295      1.0  0.99653  0.42524  0.17080  1.0000
  H   H241      1.0  0.34307  0.35001  0.19532  1.0000
  H   H242      1.0  0.47962  0.47393  0.00579  1.0000
  H   H243      1.0  0.37724  0.36747  0.22875  1.0000
  H   H244      1.0  0.08095  0.57160  0.45231  1.0000
  H   H245      1.0  0.21718  0.43660  0.47749  1.0000
  H   H246      1.0  0.29064  0.40183  0.99235  1.0000
  H   H247      1.0  0.01891  0.40170  0.03446  1.0000
  H   H248      1.0  0.45664  0.38315  0.05282  1.0000
  C   C296      1.0  0.00287  0.48028  0.39438  1.0000
  C   C297      1.0  0.39113  0.39637  0.99073  1.0000
  C   C298      1.0  0.48714  0.64888  0.13178  1.0000
  H   H249      1.0  0.36385  0.42464  0.99357  1.0000
  H   H250      1.0  0.00319  0.35941  0.31739  1.0000
  C   C299      1.0  0.00084  0.39575  0.03117  1.0000
  C   C300      1.0  0.06917  0.54123  0.48582  1.0000
  C   C301      1.0  0.47166  0.37220  0.06134  1.0000
  H   H251      1.0  0.99329  0.39337  0.13519  1.0000
  H   H252      1.0  0.99752  0.42012  0.25782  1.0000
  C   C302      1.0  0.48612  0.60447  0.16745  1.0000
  H   H253      1.0  0.99614  0.50136  0.28839  1.0000
  H   H254      1.0  0.11820  0.54169  0.48817  1.0000
  H   H255      1.0  0.44988  0.34196  0.07472  1.0000
  C   C303      1.0  0.47605  0.43661  0.99123  1.0000
  H   H256      1.0  0.08611  0.50307  0.79362  1.0000
  H   H257      1.0  0.03414  0.63447  0.77576  1.0000
  S   S45       1.0  0.41507  0.61054  0.94417  1.0000
  C   C304      1.0  0.47392  0.37997  0.82401  1.0000
  C   C305      1.0  0.00758  0.37940  0.64086  1.0000
  S   S46       1.0  0.31829  0.48582  0.91935  1.0000
  Fe  Fe20      1.0  0.44424  0.63435  0.96891  1.0000
  H   H258      1.0  0.99740  0.42042  0.50754  1.0000
  S   S47       1.0  0.27481  0.45196  0.95309  1.0000
  Fe  Fe21      1.0  0.31521  0.45042  0.94961  1.0000
  S   S48       1.0  0.33470  0.41638  0.92519  1.0000
  Fe  Fe22      1.0  0.27781  0.48818  0.92697  1.0000
  S   S49       1.0  0.25035  0.50354  0.88565  1.0000
  H   H259      1.0  0.14297  0.40791  0.92665  1.0000
  H   H260      1.0  0.07554  0.65314  0.69451  1.0000
  C   C306      1.0  0.99252  0.38649  0.90421  1.0000
  C   C307      1.0  0.07533  0.62905  0.53948  1.0000
  C   C308      1.0  0.38987  0.36833  0.93625  1.0000
  H   H261      1.0  0.21369  0.41099  0.82327  1.0000
  S   S50       1.0  0.04293  0.35092  0.71717  1.0000
  Fe  Fe23      1.0  0.12572  0.52175  0.69857  1.0000
  S   S51       1.0  0.15714  0.50781  0.66024  1.0000
  S   S52       1.0  0.11548  0.56100  0.70721  1.0000
  Fe  Fe24      1.0  0.10932  0.47174  0.71900  1.0000
  S   S53       1.0  0.13871  0.45397  0.68172  1.0000
  S   S54       1.0  0.08077  0.45435  0.75720  1.0000
  Fe  Fe25      1.0  0.16241  0.48154  0.70896  1.0000
  S   S55       1.0  0.19705  0.46699  0.73394  1.0000
  Fe  Fe26      1.0  0.13111  0.48154  0.63616  1.0000
  S   S56       1.0  0.11785  0.47443  0.57446  1.0000
  S   S57       1.0  0.13303  0.49780  0.74845  1.0000
  S   S58       1.0  0.09980  0.49707  0.67233  1.0000
  H   H262      1.0  0.12291  0.37297  0.95502  1.0000
  C   C309      1.0  0.05124  0.63781  0.62999  1.0000
  C   C310      1.0  0.08441  0.56713  0.71279  1.0000
  C   C311      1.0  0.06837  0.54850  0.71728  1.0000
  C   C312      1.0  0.04367  0.55325  0.71907  1.0000
  C   C313      1.0  0.03471  0.57672  0.71725  1.0000
  C   C314      1.0  0.05065  0.59561  0.71459  1.0000
  C   C315      1.0  0.07551  0.59079  0.71210  1.0000
  H   H263      1.0  0.07491  0.53039  0.71969  1.0000
  H   H264      1.0  0.03144  0.53861  0.72181  1.0000
  H   H265      1.0  0.04382  0.61376  0.71294  1.0000
  H   H266      1.0  0.08784  0.60531  0.70897  1.0000
  C   C316      1.0  0.07123  0.42512  0.74686  1.0000
  C   C317      1.0  0.05019  0.41719  0.76581  1.0000
  C   C318      1.0  0.04177  0.39418  0.75796  1.0000
  C   C319      1.0  0.05433  0.37892  0.73097  1.0000
  C   C320      1.0  0.07574  0.38661  0.71279  1.0000
  C   C321      1.0  0.08413  0.40969  0.72054  1.0000
  H   H267      1.0  0.04009  0.42908  0.78606  1.0000
  H   H268      1.0  0.02527  0.38849  0.77210  1.0000
  H   H269      1.0  0.08583  0.37469  0.69266  1.0000
  H   H270      1.0  0.10054  0.41552  0.70617  1.0000
  C   C322      1.0  0.04516  0.63879  0.87221  1.0000
  C   C323      1.0  0.36023  0.40138  0.94340  1.0000
  S   S59       1.0  0.46841  0.33664  0.89792  1.0000
  C   C324      1.0  0.43122  0.39984  0.88645  1.0000
  H   H271      1.0  0.46567  0.49507  0.94719  1.0000
  C   C325      1.0  0.36971  0.38087  0.92314  1.0000
  H   H272      1.0  0.27379  0.54855  0.88246  1.0000
  C   C326      1.0  0.08917  0.35227  0.53888  1.0000
  C   C327      1.0  0.23526  0.49232  0.84439  1.0000
  C   C328      1.0  0.24131  0.47030  0.82585  1.0000
  C   C329      1.0  0.22939  0.46281  0.79229  1.0000
  C   C330      1.0  0.21103  0.47698  0.77712  1.0000
  C   C331      1.0  0.20466  0.49874  0.79619  1.0000
  C   C332      1.0  0.21675  0.50635  0.82944  1.0000
  H   H273      1.0  0.25548  0.45927  0.83688  1.0000
  H   H274      1.0  0.23458  0.44603  0.77770  1.0000
  H   H275      1.0  0.19073  0.50996  0.78488  1.0000
  H   H276      1.0  0.21189  0.52342  0.84342  1.0000
  C   C333      1.0  0.39766  0.58615  0.96160  1.0000
  C   C334      1.0  0.38299  0.57417  0.93552  1.0000
  C   C335      1.0  0.08653  0.42339  0.49971  1.0000
  C   C336      1.0  0.08116  0.32883  0.54222  1.0000
  C   C337      1.0  0.49012  0.55938  0.95112  1.0000
  H   H277      1.0  0.16946  0.54328  0.57726  1.0000
  H   H278      1.0  0.38314  0.57942  0.90530  1.0000
  C   C338      1.0  0.40774  0.38199  0.69990  1.0000
  H   H279      1.0  0.31998  0.61805  0.96246  1.0000
  H   H280      1.0  0.04115  0.53590  0.92434  1.0000
  C   C339      1.0  0.15529  0.35154  0.95591  1.0000
  H   H281      1.0  0.37305  0.37488  0.80539  1.0000
  H   H282      1.0  0.23774  0.40842  0.94125  1.0000
  H   H283      1.0  0.44404  0.38567  0.89185  1.0000
  H   H284      1.0  0.09833  0.35725  0.51193  1.0000
  C   C340      1.0  0.42237  0.42051  0.72026  1.0000
  P   P10       1.0  0.02039  0.57016  0.86985  1.0000
  C   C341      1.0  0.40301  0.35432  0.82588  1.0000
  C   C342      1.0  0.25100  0.40353  0.82914  1.0000
  C   C343      1.0  0.18001  0.35065  0.94764  1.0000
  C   C344      1.0  0.05441  0.54274  0.57074  1.0000
  C   C345      1.0  0.39559  0.43473  0.87681  1.0000
  H   H285      1.0  0.00486  0.55489  0.63073  1.0000
  C   C346      1.0  0.40082  0.37605  0.97004  1.0000
  H   H286      1.0  0.07053  0.63697  0.62615  1.0000
  C   C347      1.0  0.12464  0.40034  0.59243  1.0000
  C   C348      1.0  0.02041  0.54523  0.61777  1.0000
  C   C349      1.0  0.41947  0.38839  0.76670  1.0000
  H   H287      1.0  0.42798  0.32981  0.85159  1.0000
  C   C350      1.0  0.08018  0.43286  0.62458  1.0000
  C   C351      1.0  0.07429  0.41793  0.59312  1.0000
  H   H288      1.0  0.22019  0.46090  0.90731  1.0000
  C   C352      1.0  0.15406  0.48318  0.51789  1.0000
  C   C353      1.0  0.12886  0.38602  0.62469  1.0000
  H   H289      1.0  0.07056  0.37370  0.62954  1.0000
  C   C354      1.0  0.10384  0.55173  0.54643  1.0000
  C   C355      1.0  0.01365  0.61714  0.63205  1.0000
  H   H290      1.0  0.05654  0.33047  0.79265  1.0000
  C   C356      1.0  0.41893  0.40006  0.85163  1.0000
  H   H291      1.0  0.47043  0.39807  0.83487  1.0000
  C   C357      1.0  0.12206  0.54505  0.51845  1.0000
  H   H292      1.0  0.18312  0.40694  0.64875  1.0000
  C   C358      1.0  0.02603  0.41778  0.87238  1.0000
  H   H293      1.0  0.25491  0.40283  0.79784  1.0000
  C   C359      1.0  0.46069  0.34275  0.79563  1.0000
  S   S60       1.0  0.47937  0.63654  0.93348  1.0000
  C   C360      1.0  0.00610  0.58554  0.94583  1.0000
  C   C361      1.0  0.26950  0.40056  0.85476  1.0000
  C   C362      1.0  0.04208  0.54875  0.84793  1.0000
  H   H294      1.0  0.04822  0.59961  0.62381  1.0000
  C   C363      1.0  0.19151  0.37043  0.93178  1.0000
  C   C364      1.0  0.03843  0.61593  0.88341  1.0000
  H   H295      1.0  0.42693  0.43874  0.71359  1.0000
  C   C365      1.0  0.04806  0.51146  0.61800  1.0000
  C   C366      1.0  0.01687  0.38263  0.90960  1.0000
  H   H296      1.0  0.14045  0.40618  0.79242  1.0000
  C   C367      1.0  0.22755  0.40814  0.84379  1.0000
  C   C368      1.0  0.27690  0.55808  0.90963  1.0000
  C   C369      1.0  0.16296  0.41910  0.60068  1.0000
  H   H297      1.0  0.09133  0.41688  0.95931  1.0000
  H   H298      1.0  0.99704  0.60034  0.93236  1.0000
  C   C370      1.0  0.42628  0.41744  0.91554  1.0000
  C   C371      1.0  0.03872  0.61868  0.50895  1.0000
  H   H299      1.0  0.12560  0.36198  0.79594  1.0000
  H   H300      1.0  0.36144  0.37469  0.89699  1.0000
  C   C372      1.0  0.15343  0.39196  0.93233  1.0000
  C   C373      1.0  0.07365  0.36139  0.60486  1.0000
  C   C374      1.0  0.03246  0.42996  0.60441  1.0000
  C   C375      1.0  0.03845  0.44454  0.63598  1.0000
  C   C376      1.0  0.06225  0.44580  0.64623  1.0000
  C   C377      1.0  0.48413  0.33351  0.79517  1.0000
  C   C378      1.0  0.36788  0.55566  0.94813  1.0000
  H   H301      1.0  0.01391  0.42864  0.59706  1.0000
  H   H302      1.0  0.02464  0.45458  0.65300  1.0000
  H   H303      1.0  0.06682  0.45665  0.67132  1.0000
  H   H304      1.0  0.09851  0.43437  0.63291  1.0000
  H   H305      1.0  0.40398  0.44791  0.93397  1.0000
  C   C379      1.0  0.10960  0.55545  0.58560  1.0000
  C   C380      1.0  0.13322  0.55258  0.59652  1.0000
  H   H306      1.0  0.45329  0.57104  0.94827  1.0000
  H   H307      1.0  0.08450  0.34229  0.90946  1.0000
  H   H308      1.0  0.24040  0.57051  0.91822  1.0000
  H   H309      1.0  0.02076  0.59477  0.79543  1.0000
  H   H310      1.0  0.01764  0.51663  0.65854  1.0000
  C   C381      1.0  0.14201  0.37221  0.94830  1.0000
  C   C382      1.0  0.30359  0.56958  0.95998  1.0000
  H   H311      1.0  0.09589  0.56049  0.60789  1.0000
  H   H312      1.0  0.13748  0.55536  0.62685  1.0000
  H   H313      1.0  0.31796  0.36739  0.97488  1.0000
  H   H314      1.0  0.16433  0.39217  0.84671  1.0000
  C   C383      1.0  0.02892  0.59995  0.85617  1.0000
  H   H315      1.0  0.09778  0.59989  0.55597  1.0000
  C   C384      1.0  0.25809  0.57055  0.92982  1.0000
  H   H316      1.0  0.15871  0.47859  0.81882  1.0000
  H   H317      1.0  0.13770  0.44909  0.77830  1.0000
  H   H318      1.0  0.02586  0.40236  0.68034  1.0000
  C   C385      1.0  0.12211  0.39785  0.49583  1.0000
  H   H319      1.0  0.05153  0.65135  0.89369  1.0000
  C   C386      1.0  0.09940  0.37491  0.84009  1.0000
  C   C387      1.0  0.07557  0.37373  0.85475  1.0000
  C   C388      1.0  0.06027  0.35728  0.83786  1.0000
  P   P11       1.0  0.06550  0.39127  0.89750  1.0000
  C   C389      1.0  0.08244  0.41854  0.89837  1.0000
  C   C390      1.0  0.03392  0.39813  0.89356  1.0000
  H   H320      1.0  0.14645  0.33623  0.96835  1.0000
  H   H321      1.0  0.01935  0.51833  0.85681  1.0000
  H   H322      1.0  0.17584  0.43240  0.59199  1.0000
  C   C391      1.0  0.40071  0.41737  0.84740  1.0000
  H   H323      1.0  0.28776  0.39754  0.84347  1.0000
  C   C392      1.0  0.09306  0.42662  0.93253  1.0000
  C   C393      1.0  0.10657  0.44740  0.93223  1.0000
  C   C394      1.0  0.10958  0.46028  0.89794  1.0000
  C   C395      1.0  0.09921  0.45233  0.86385  1.0000
  C   C396      1.0  0.08600  0.43143  0.86388  1.0000
  C   C397      1.0  0.06889  0.37359  0.94062  1.0000
  C   C398      1.0  0.18397  0.43770  0.97913  1.0000
  P   P12       1.0  0.09674  0.39878  0.56788  1.0000
  C   C399      1.0  0.07406  0.51571  0.80935  1.0000
  H   H324      1.0  0.09518  0.47718  0.50170  1.0000
  C   C400      1.0  0.46558  0.55579  0.94911  1.0000
  C   C401      1.0  0.42572  0.41186  0.75767  1.0000
  C   C402      1.0  0.26455  0.40201  0.89508  1.0000
  C   C403      1.0  0.07837  0.35009  0.93746  1.0000
  H   H325      1.0  0.11181  0.38678  0.85352  1.0000
  H   H326      1.0  0.04204  0.35535  0.84926  1.0000
  H   H327      1.0  0.02232  0.36691  0.92499  1.0000
  H   H328      1.0  0.43536  0.41675  0.94272  1.0000
  H   H329      1.0  0.11583  0.37337  0.63495  1.0000
  Fe  Fe27      1.0  0.45092  0.33171  0.95729  1.0000
  C   C404      1.0  0.21403  0.47613  0.96498  1.0000
  C   C405      1.0  0.10739  0.36072  0.80772  1.0000
  H   H330      1.0  0.24716  0.59214  0.98009  1.0000
  H   H331      1.0  0.12012  0.47633  0.89763  1.0000
  H   H332      1.0  0.10161  0.46220  0.83710  1.0000
  H   H333      1.0  0.07874  0.42525  0.83671  1.0000
  H   H334      1.0  0.40102  0.37032  0.67742  1.0000
  C   C406      1.0  0.02749  0.60684  0.81721  1.0000
  H   H335      1.0  0.44678  0.33155  0.78476  1.0000
  C   C407      1.0  0.16281  0.41115  0.84159  1.0000
  C   C408      1.0  0.05025  0.41638  0.58350  1.0000
  C   C409      1.0  0.06590  0.58723  0.52902  1.0000
  H   H336      1.0  0.16636  0.48330  0.54134  1.0000
  H   H337      1.0  0.09666  0.54580  0.79886  1.0000
  H   H338      1.0  0.31405  0.54738  0.90954  1.0000
  C   C410      1.0  0.37105  0.40905  0.97744  1.0000
  H   H339      1.0  0.41071  0.41232  0.66246  1.0000
  C   C411      1.0  0.06148  0.52098  0.58689  1.0000
  C   C412      1.0  0.29961  0.55749  0.92481  1.0000
  H   H340      1.0  0.13889  0.42860  0.55653  1.0000
  H   H341      1.0  0.39000  0.41714  0.82190  1.0000
  C   C413      1.0  0.04473  0.59439  0.51164  1.0000
  C   C414      1.0  0.16702  0.40479  0.63270  1.0000
  C   C415      1.0  0.15124  0.54587  0.56857  1.0000
  H   H342      1.0  0.34318  0.34444  0.82188  1.0000
  H   H343      1.0  0.07774  0.51161  0.57611  1.0000
  C   C416      1.0  0.08123  0.60478  0.54278  1.0000
  C   C417      1.0  0.41328  0.40561  0.69144  1.0000
  C   C418      1.0  0.14998  0.38825  0.64467  1.0000
  C   C419      1.0  0.14189  0.41691  0.58066  1.0000
  C   C420      1.0  0.09186  0.34482  0.79050  1.0000
  H   H344      1.0  0.38099  0.44755  0.87400  1.0000
  H   H345      1.0  0.02104  0.33416  0.96998  1.0000
  C   C421      1.0  0.14937  0.41891  0.81070  1.0000
  H   H346      1.0  0.05396  0.49498  0.63073  1.0000
  C   C422      1.0  0.11402  0.47973  0.49540  1.0000
  H   H347      1.0  0.32119  0.56869  0.97163  1.0000
  H   H348      1.0  0.35676  0.54676  0.92759  1.0000
  C   C423      1.0  0.03503  0.62941  0.80588  1.0000
  P   P13       1.0  0.42463  0.37695  0.81440  1.0000
  H   H349      1.0  0.43316  0.42348  0.77952  1.0000
  H   H350      1.0  0.02375  0.37480  0.62355  1.0000
  H   H351      1.0  0.08726  0.64247  0.55006  1.0000
  C   C424      1.0  0.03362  0.55472  0.58631  1.0000
  C   C425      1.0  0.01868  0.56792  0.92266  1.0000
  C   C426      1.0  0.28492  0.58242  0.98032  1.0000
  C   C427      1.0  0.33005  0.61841  0.98869  1.0000
  C   C428      1.0  0.45522  0.36569  0.81159  1.0000
  H   H352      1.0  0.02779  0.57164  0.57517  1.0000
  C   C429      1.0  0.22244  0.40984  0.88434  1.0000
  H   H353      1.0  0.18238  0.46532  0.87320  1.0000
  H   H354      1.0  0.39695  0.35268  0.92022  1.0000
  H   H355      1.0  0.01157  0.33089  0.65461  1.0000
  C   C430      1.0  0.03861  0.61657  0.62778  1.0000
  H   H356      1.0  0.00383  0.60068  0.63152  1.0000
  P   P14       1.0  0.07325  0.55573  0.53279  1.0000
  C   C431      1.0  0.06848  0.34289  0.80594  1.0000
  C   C432      1.0  0.17460  0.42773  0.86499  1.0000
  H   H357      1.0  0.02222  0.62412  0.49597  1.0000
  C   C433      1.0  0.17826  0.39122  0.92389  1.0000
  C   C434      1.0  0.17295  0.45214  0.85665  1.0000
  C   C435      1.0  0.15949  0.45980  0.82569  1.0000
  C   C436      1.0  0.14779  0.44320  0.80267  1.0000
  P   P15       1.0  0.19255  0.41723  0.90396  1.0000
  C   C437      1.0  0.03093  0.54949  0.94120  1.0000
  H   H358      1.0  0.04772  0.48936  0.82260  1.0000
  C   C438      1.0  0.03637  0.52444  0.84499  1.0000
  C   C439      1.0  0.45692  0.53254  0.94782  1.0000
  C   C440      1.0  0.06413  0.55627  0.83172  1.0000
  C   C441      1.0  0.08000  0.53978  0.81244  1.0000
  C   C442      1.0  0.05232  0.50801  0.82573  1.0000
  C   C443      1.0  0.21061  0.45915  0.93529  1.0000
  H   H359      1.0  0.13444  0.38560  0.50908  1.0000
  C   C444      1.0  0.12968  0.47989  0.52638  1.0000
  C   C445      1.0  0.14567  0.54224  0.52954  1.0000
  H   H360      1.0  0.06897  0.57489  0.83307  1.0000
  C   C446      1.0  0.36182  0.34116  0.82763  1.0000
  C   C447      1.0  0.10189  0.40715  0.51743  1.0000
  C   C448      1.0  0.00886  0.39499  0.67313  1.0000
  H   H361      1.0  0.04530  0.40437  0.56022  1.0000
  C   C449      1.0  0.24115  0.40672  0.90988  1.0000
  H   H362      1.0  0.27906  0.40015  0.91482  1.0000
  C   C450      1.0  0.01810  0.35523  0.52654  1.0000
  C   C451      1.0  0.19543  0.43985  0.94198  1.0000
  H   H363      1.0  0.07143  0.43168  0.51595  1.0000
  C   C452      1.0  0.02762  0.52363  0.63360  1.0000
  C   C453      1.0  0.08547  0.36877  0.57027  1.0000
  C   C454      1.0  0.00131  0.63899  0.63785  1.0000
  C   C455      1.0  0.48483  0.41714  0.96810  1.0000
  C   C456      1.0  0.37882  0.35835  0.81823  1.0000
  H   H364      1.0  0.03854  0.42993  0.85917  1.0000
  H   H365      1.0  0.22595  0.49084  0.95963  1.0000
  C   C457      1.0  0.99877  0.36557  0.54912  1.0000
  H   H366      1.0  0.40706  0.35483  0.74320  1.0000
  H   H367      1.0  0.15298  0.37742  0.66987  1.0000
  C   C458      1.0  0.41102  0.37331  0.73730  1.0000
  Fe  Fe28      1.0  0.31886  0.50191  0.98032  1.0000
  C   C459      1.0  0.40851  0.43490  0.91072  1.0000
  C   C460      1.0  0.02958  0.36819  0.49693  1.0000
  C   C461      1.0  0.05398  0.63602  0.52294  1.0000
  H   H368      1.0  0.04075  0.61102  0.91333  1.0000
  C   C462      1.0  0.35302  0.62782  0.98703  1.0000
  H   H369      1.0  0.15961  0.53679  0.50792  1.0000
  S   S61       1.0  0.00358  0.58110  0.71520  1.0000
  H   H370      1.0  0.43787  0.52991  0.94574  1.0000
  H   H371      1.0  0.11482  0.45353  0.95858  1.0000
  H   H372      1.0  0.11632  0.64701  0.71694  1.0000
  H   H373      1.0  0.03277  0.58116  0.50051  1.0000
  Fe  Fe29      1.0  0.01027  0.33705  0.75081  1.0000
  C   C463      1.0  0.26204  0.58273  0.96503  1.0000
  H   H374      1.0  0.21064  0.36934  0.92569  1.0000
  H   H375      1.0  0.36081  0.63403  0.95960  1.0000
  C   C464      1.0  0.04341  0.64555  0.83347  1.0000
  C   C465      1.0  0.47275  0.51285  0.94912  1.0000
  H   H376      1.0  0.19030  0.33463  0.95364  1.0000
  H   H377      1.0  0.09781  0.33399  0.76511  1.0000
  C   C466      1.0  0.40973  0.33315  0.84406  1.0000
  H   H378      1.0  0.00733  0.55267  0.79239  1.0000
  H   H379      1.0  0.05790  0.33227  0.63586  1.0000
  C   C467      1.0  0.00305  0.40214  0.51252  1.0000
  C   C468      1.0  0.06615  0.33789  0.60839  1.0000
  H   H380      1.0  0.02471  0.33738  0.53206  1.0000
  H   H381      1.0  0.05859  0.50725  0.50940  1.0000
  H   H382      1.0  0.04925  0.65484  0.52092  1.0000
  C   C469      1.0  0.00160  0.42158  0.86696  1.0000
  C   C470      1.0  0.07937  0.33599  0.97057  1.0000
  C   C471      1.0  0.00598  0.58489  0.98662  1.0000
  C   C472      1.0  0.03068  0.54886  0.98209  1.0000
  C   C473      1.0  0.06018  0.38254  0.97736  1.0000
  H   H383      1.0  0.17267  0.42279  0.98573  1.0000
  H   H384      1.0  0.99570  0.43638  0.84970  1.0000
  S   S62       1.0  0.27850  0.50712  0.98614  1.0000
  C   C474      1.0  0.36677  0.54916  0.98739  1.0000
  H   H385      1.0  0.47708  0.39962  0.97145  1.0000
  H   H386      1.0  0.05207  0.40027  0.98018  1.0000
  C   C475      1.0  0.48622  0.45913  0.98705  1.0000
  S   S63       1.0  0.42660  0.36112  0.98752  1.0000
  C   C476      1.0  0.02203  0.39160  0.48982  1.0000
  C   C477      1.0  0.01268  0.96018  0.24936  1.0000
  C   C478      1.0  0.46416  0.78967  0.47921  1.0000
  C   C479      1.0  0.00488  0.89285  0.39330  1.0000
  C   C480      1.0  0.04573  0.86035  0.33093  1.0000
  C   C481      1.0  0.38167  0.86643  0.45971  1.0000
  Fe  Fe30      1.0  0.13376  0.95744  0.47143  1.0000
  C   C482      1.0  0.37791  0.85907  0.08174  1.0000
  Fe  Fe31      1.0  0.00687  0.82373  0.45015  1.0000
  S   S64       1.0  0.04111  0.84389  0.43144  1.0000
  H   H387      1.0  0.35988  0.86147  0.09454  1.0000
  C   C483      1.0  0.46171  0.82319  0.10774  1.0000
  C   C484      1.0  0.39166  0.83886  0.09027  1.0000
  C   C485      1.0  0.10645  0.95320  0.16211  1.0000
  Fe  Fe32      1.0  0.47115  0.81034  0.33751  1.0000
  S   S65       1.0  0.46293  0.84904  0.32828  1.0000
  C   C486      1.0  0.43628  0.97693  0.13246  1.0000
  Fe  Fe33      1.0  0.44018  0.83690  0.27989  1.0000
  S   S66       1.0  0.40338  0.85460  0.28161  1.0000
  S   S67       1.0  0.44629  0.79778  0.29114  1.0000
  Fe  Fe34      1.0  0.33942  0.94524  0.14960  1.0000
  S   S68       1.0  0.36053  0.91022  0.14035  1.0000
  S   S69       1.0  0.30069  0.95398  0.13777  1.0000
  C   C487      1.0  0.45449  0.94174  0.23087  1.0000
  H   H388      1.0  0.22198  0.67377  0.05507  1.0000
  H   H389      1.0  0.09598  0.98419  0.28249  1.0000
  C   C488      1.0  0.43739  0.91387  0.29289  1.0000
  C   C489      1.0  0.17748  0.97638  0.22828  1.0000
  S   S70       1.0  0.44698  0.69190  0.08794  1.0000
  C   C490      1.0  0.22042  0.96496  0.32770  1.0000
  C   C491      1.0  0.39284  0.87122  0.24247  1.0000
  C   C492      1.0  0.40461  0.87046  0.20552  1.0000
  C   C493      1.0  0.39476  0.88277  0.17447  1.0000
  C   C494      1.0  0.37359  0.89664  0.18050  1.0000
  C   C495      1.0  0.36239  0.89816  0.21784  1.0000
  C   C496      1.0  0.37176  0.88516  0.24851  1.0000
  H   H390      1.0  0.42096  0.85999  0.20073  1.0000
  H   H391      1.0  0.40349  0.88140  0.14571  1.0000
  H   H392      1.0  0.34599  0.90862  0.22270  1.0000
  H   H393      1.0  0.36256  0.88582  0.27702  1.0000
  C   C497      1.0  0.46227  0.84665  0.12331  1.0000
  C   C498      1.0  0.39446  0.85089  0.39522  1.0000
  C   C499      1.0  0.39372  0.77555  0.19224  1.0000
  C   C500      1.0  0.43868  0.79766  0.01031  1.0000
  H   H394      1.0  0.40237  0.92133  0.27206  1.0000
  C   C501      1.0  0.44883  0.76732  0.05642  1.0000
  C   C502      1.0  0.08431  0.90962  0.47127  1.0000
  H   H395      1.0  0.43080  0.90227  0.31574  1.0000
  H   H396      1.0  0.23640  0.93037  0.31257  1.0000
  H   H397      1.0  0.08441  0.86504  0.40129  1.0000
  C   C503      1.0  0.47288  0.80325  0.44763  1.0000
  H   H398      1.0  0.36047  0.86854  0.40873  1.0000
  C   C504      1.0  0.45954  0.71491  0.11743  1.0000
  C   C505      1.0  0.44527  0.72590  0.14810  1.0000
  C   C506      1.0  0.45423  0.74429  0.17206  1.0000
  C   C507      1.0  0.30871  0.98346  0.99171  1.0000
  H   H399      1.0  0.42708  0.72020  0.15332  1.0000
  H   H400      1.0  0.44300  0.75240  0.19551  1.0000
  C   C508      1.0  0.04791  0.88189  0.31102  1.0000
  C   C509      1.0  0.38774  0.87690  0.05854  1.0000
  H   H401      1.0  0.02178  0.89402  0.40735  1.0000
  H   H402      1.0  0.41892  0.88837  0.02559  1.0000
  C   C510      1.0  0.16926  0.95481  0.24369  1.0000
  H   H403      1.0  0.43242  0.81541  0.00362  1.0000
  H   H404      1.0  0.47426  0.90973  0.30708  1.0000
  H   H405      1.0  0.48391  0.68152  0.19105  1.0000
  H   H406      1.0  0.48950  0.93459  0.25318  1.0000
  C   C511      1.0  0.11775  0.95030  0.22957  1.0000
  C   C512      1.0  0.15215  0.99183  0.31456  1.0000
  H   H407      1.0  0.44636  0.85806  0.12496  1.0000
  C   C513      1.0  0.42077  0.80568  0.16839  1.0000
  H   H408      1.0  0.48331  0.87315  0.15140  1.0000
  C   C514      1.0  0.47776  0.75187  0.16605  1.0000
  H   H409      1.0  0.45066  0.76150  0.08609  1.0000
  C   C515      1.0  0.37728  0.86263  0.42014  1.0000
  C   C516      1.0  0.26241  0.96702  0.41513  1.0000
  C   C517      1.0  0.43623  0.93398  0.14012  1.0000
  H   H410      1.0  0.41698  0.94611  0.21809  1.0000
  H   H411      1.0  0.44360  0.85284  0.04081  1.0000
  H   H412      1.0  0.02478  0.95909  0.30767  1.0000
  S   S71       1.0  0.00369  0.66015  0.12722  1.0000
  H   H413      1.0  0.16984  0.98355  0.31379  1.0000
  P   P16       1.0  0.02961  0.90782  0.32609  1.0000
  H   H414      1.0  0.39883  0.95063  0.06964  1.0000
  H   H415      1.0  0.14132  0.96110  0.18131  1.0000
  C   C518      1.0  0.09444  0.94318  0.24010  1.0000
  H   H416      1.0  0.41287  0.91463  0.10308  1.0000
  H   H417      1.0  0.38128  0.75099  0.14870  1.0000
  C   C519      1.0  0.07831  0.86286  0.26686  1.0000
  C   C520      1.0  0.06441  0.88302  0.27894  1.0000
  C   C521      1.0  0.49205  0.74085  0.13540  1.0000
  H   H418      1.0  0.08695  0.82592  0.27803  1.0000
  C   C522      1.0  0.07831  0.87572  0.42670  1.0000
  C   C523      1.0  0.44434  0.95656  0.15155  1.0000
  C   C524      1.0  0.13360  0.98104  0.29482  1.0000
  C   C525      1.0  0.04625  0.92745  0.35685  1.0000
  C   C526      1.0  0.03395  0.94435  0.38179  1.0000
  C   C527      1.0  0.04657  0.95958  0.40587  1.0000
  C   C528      1.0  0.07149  0.95805  0.40536  1.0000
  C   C529      1.0  0.08384  0.94143  0.38053  1.0000
  C   C530      1.0  0.07136  0.92609  0.35640  1.0000
  H   H419      1.0  0.05820  0.82394  0.33532  1.0000
  H   H420      1.0  0.38395  0.76740  0.21634  1.0000
  H   H421      1.0  0.40885  0.80267  0.22874  1.0000
  C   C531      1.0  0.05991  0.84036  0.31925  1.0000
  C   C532      1.0  0.25292  0.98203  0.26873  1.0000
  C   C533      1.0  0.42981  0.93834  0.23719  1.0000
  H   H422      1.0  0.07010  0.94436  0.15084  1.0000
  H   H423      1.0  0.09083  0.86373  0.24187  1.0000
  H   H424      1.0  0.06648  0.89941  0.26321  1.0000
  Fe  Fe35      1.0  0.47754  0.80003  0.24732  1.0000
  H   H425      1.0  0.25073  0.97967  0.47291  1.0000
  H   H426      1.0  0.08949  0.93949  0.27030  1.0000
  H   H427      1.0  0.38375  0.82569  0.10928  1.0000
  P   P17       1.0  0.13952  0.95360  0.26660  1.0000
  H   H428      1.0  0.43168  0.82086  0.17463  1.0000
  C   C534      1.0  0.48304  0.72259  0.11122  1.0000
  H   H429      1.0  0.10309  0.93988  0.38130  1.0000
  H   H430      1.0  0.08138  0.91291  0.33837  1.0000
  C   C535      1.0  0.20036  0.97744  0.21023  1.0000
  C   C536      1.0  0.23652  0.94925  0.30649  1.0000
  C   C537      1.0  0.02006  0.94845  0.28253  1.0000
  C   C538      1.0  0.41552  0.83641  0.07577  1.0000
  H   H431      1.0  0.43765  0.84109  0.45974  1.0000
  C   C539      1.0  0.42136  0.92439  0.26799  1.0000
  S   S72       1.0  0.35360  0.97203  0.10729  1.0000
  C   C540      1.0  0.27102  0.97344  0.37796  1.0000
  H   H432      1.0  0.00182  0.91174  0.19147  1.0000
  H   H433      1.0  0.37717  0.89291  0.05330  1.0000
  C   C541      1.0  0.41129  0.87440  0.04328  1.0000
  C   C542      1.0  0.40468  0.77702  0.12304  1.0000
  S   S73       1.0  0.13590  0.97752  0.41528  1.0000
  H   H434      1.0  0.12629  0.90329  0.25424  1.0000
  C   C543      1.0  0.48230  0.80846  0.10867  1.0000
  H   H435      1.0  0.39096  0.84764  0.36466  1.0000
  C   C544      1.0  0.18431  0.93436  0.24074  1.0000
  S   S74       1.0  0.19979  0.95303  0.36310  1.0000
  C   C545      1.0  0.42515  0.85424  0.05186  1.0000
  C   C546      1.0  0.42075  0.84728  0.44902  1.0000
  H   H436      1.0  0.32648  0.95102  0.00818  1.0000
  C   C547      1.0  0.39217  0.76637  0.15415  1.0000
  C   C548      1.0  0.09181  0.89554  0.43844  1.0000
  C   C549      1.0  0.13820  0.92821  0.29830  1.0000
  P   P18       1.0  0.43426  0.81157  0.08980  1.0000
  H   H437      1.0  0.40285  0.76993  0.09368  1.0000
  Fe  Fe36      1.0  0.17582  0.96973  0.41344  1.0000
  C   C550      1.0  0.48323  0.85532  0.13859  1.0000
  C   C551      1.0  0.05722  0.86937  0.44780  1.0000
  C   C552      1.0  0.41197  0.95224  0.09176  1.0000
  S   S75       1.0  0.34061  0.96997  0.20222  1.0000
  C   C553      1.0  0.13714  0.88879  0.34767  1.0000
  C   C554      1.0  0.41998  0.93190  0.11053  1.0000
  S   S76       1.0  0.46955  0.83867  0.23333  1.0000
  C   C555      1.0  0.25297  0.95775  0.27770  1.0000
  H   H438      1.0  0.44196  0.91803  0.15479  1.0000
  S   S77       1.0  0.00755  0.78386  0.46018  1.0000
  C   C556      1.0  0.13102  0.90578  0.28432  1.0000
  H   H439      1.0  0.15146  0.94732  0.34801  1.0000
  C   C557      1.0  0.04960  0.88355  0.48048  1.0000
  Fe  Fe37      1.0  0.31560  0.98268  0.09889  1.0000
  H   H440      1.0  0.03312  0.85877  0.35551  1.0000
  H   H441      1.0  0.42921  0.83348  0.39069  1.0000
  H   H442      1.0  0.26532  0.94545  0.26193  1.0000
  H   H443      1.0  0.43887  0.89281  0.47466  1.0000
  C   C558      1.0  0.44093  0.79074  0.04921  1.0000
  C   C559      1.0  0.41927  0.79665  0.12999  1.0000
  H   H444      1.0  0.47812  0.96734  0.34687  1.0000
  Fe  Fe38      1.0  0.46061  0.67066  0.03221  1.0000
  H   H445      1.0  0.05941  0.93561  0.21998  1.0000
  H   H446      1.0  0.15058  0.91288  0.39113  1.0000
  C   C560      1.0  0.14530  0.93047  0.33686  1.0000
  H   H447      1.0  0.13671  0.87364  0.36687  1.0000
  H   H448      1.0  0.01179  0.97956  0.24924  1.0000
  C   C561      1.0  0.21512  0.95698  0.20712  1.0000
  C   C562      1.0  0.48901  0.98246  0.33916  1.0000
  C   C563      1.0  0.12359  0.95542  0.19035  1.0000
  H   H449      1.0  0.48793  0.92800  0.38852  1.0000
  H   H450      1.0  0.27456  0.95978  0.35537  1.0000
  H   H451      1.0  0.25894  0.94844  0.42112  1.0000
  Fe  Fe39      1.0  0.30284  0.98098  0.18780  1.0000
  H   H452      1.0  0.10810  0.89983  0.42227  1.0000
  H   H453      1.0  0.48218  0.78999  0.09875  1.0000
  C   C564      1.0  0.42010  0.97474  0.10272  1.0000
  C   C565      1.0  0.13036  0.88620  0.30907  1.0000
  H   H454      1.0  0.11111  0.95714  0.13188  1.0000
  H   H455      1.0  0.12496  0.86889  0.29832  1.0000
  P   P19       1.0  0.46540  0.95870  0.18973  1.0000
  C   C566      1.0  0.45442  0.75113  0.02543  1.0000
  C   C567      1.0  0.14482  0.91088  0.36142  1.0000
  H   H456      1.0  0.23307  0.95802  0.19388  1.0000
  C   C568      1.0  0.02113  0.92334  0.28296  1.0000
  C   C569      1.0  0.41611  0.84311  0.40975  1.0000
  C   C570      1.0  0.40788  0.79530  0.19929  1.0000
  C   C571      1.0  0.08335  0.94600  0.17279  1.0000
  H   H457      1.0  0.01460  0.94564  0.38284  1.0000
  C   C572      1.0  0.47042  0.93201  0.25710  1.0000
  H   H458      1.0  0.21892  0.91984  0.22095  1.0000
  C   C573      1.0  0.07614  0.84155  0.28715  1.0000
  H   H459      1.0  0.03708  0.97235  0.42540  1.0000
  C   C574      1.0  0.07735  0.94103  0.21177  1.0000
  C   C575      1.0  0.20713  0.93548  0.22243  1.0000
  H   H460      1.0  0.17870  0.91761  0.25292  1.0000
  S   S78       1.0  0.46675  0.79397  0.39871  1.0000
  H   H461      1.0  0.08129  0.96929  0.42494  1.0000
  H   H462      1.0  0.46032  0.73301  0.03134  1.0000
  C   C576      1.0  0.22068  0.98930  0.31922  1.0000
  S   S79       1.0  0.17309  0.94718  0.46723  1.0000
  C   C577      1.0  0.01448  0.91020  0.24988  1.0000
  C   C578      1.0  0.25815  0.66430  0.03520  1.0000
  C   C579      1.0  0.46186  0.91798  0.28781  1.0000
  H   H463      1.0  0.26302  0.68260  0.02962  1.0000
  H   H464      1.0  0.45368  0.77408  0.47334  1.0000
  C   C580      1.0  0.40348  0.85873  0.47447  1.0000
  C   C581      1.0  0.48639  0.82335  0.45592  1.0000
  C   C582      1.0  0.25773  0.98463  0.44421  1.0000
  S   S80       1.0  0.49051  0.77438  0.19630  1.0000
  C   C583      1.0  0.23503  0.65934  0.04954  1.0000
  H   H465      1.0  0.36800  0.87531  0.47846  1.0000
  H   H466      1.0  0.47908  0.90932  0.48073  1.0000
  C   C584      1.0  0.00324  0.89862  0.35380  1.0000
  C   C585      1.0  0.00618  0.94697  0.21653  1.0000
  H   H467      1.0  0.01473  0.89081  0.24984  1.0000
  H   H468      1.0  0.47317  0.71509  0.23632  1.0000
  H   H469      1.0  0.48734  0.66599  0.11759  1.0000
  H   H470      1.0  0.48816  0.91060  0.18937  1.0000
  H   H471      1.0  0.00025  0.95610  0.19100  1.0000
  H   H472      1.0  0.35990  0.84696  0.99896  1.0000
  H   H473      1.0  0.48162  0.88427  0.39025  1.0000
  C   C586      1.0  0.00709  0.92199  0.21679  1.0000
  C   C587      1.0  0.46833  0.98901  0.20809  1.0000
  H   H474      1.0  0.41304  0.99064  0.08940  1.0000
  C   C588      1.0  0.99431  0.98291  0.47102  1.0000
  H   H475      1.0  0.99423  0.66904  0.00136  1.0000
  C   C589      1.0  0.49185  0.71055  0.22950  1.0000
  H   H476      1.0  0.30487  0.97669  0.48770  1.0000
  S   S81       1.0  0.10063  0.93492  0.48790  1.0000
  C   C590      1.0  0.01646  0.96095  0.51815  1.0000
  S   S82       1.0  0.47234  0.75031  0.73906  1.0000
  C   C591      1.0  0.47138  0.89866  0.50389  1.0000
  S   S83       1.0  0.45787  0.81965  0.74895  1.0000
  C   C592      1.0  0.24736  0.96599  0.82301  1.0000
  H   H477      1.0  0.32270  0.95063  0.53694  1.0000
  C   C593      1.0  0.47487  0.91614  0.69403  1.0000
  H   H478      1.0  0.24138  0.98270  0.81087  1.0000
  C   C594      1.0  0.08667  0.98271  0.55849  1.0000
  C   C595      1.0  0.47181  0.70689  0.83358  1.0000
  C   C596      1.0  0.22280  0.98208  0.58640  1.0000
  C   C597      1.0  0.19642  0.84967  0.79697  1.0000
  H   H479      1.0  0.47405  0.97185  0.73578  1.0000
  H   H480      1.0  0.18083  0.83860  0.80024  1.0000
  H   H481      1.0  0.20547  0.83717  0.73805  1.0000
  Fe  Fe40      1.0  0.43619  0.82805  0.69749  1.0000
  S   S84       1.0  0.39739  0.83856  0.71128  1.0000
  S   S85       1.0  0.44829  0.79482  0.66310  1.0000
  H   H482      1.0  0.48264  0.89847  0.69776  1.0000
  Fe  Fe41      1.0  0.47784  0.81746  0.63788  1.0000
  C   C598      1.0  0.01101  0.98267  0.50040  1.0000
  H   H483      1.0  0.05712  0.91402  0.51767  1.0000
  H   H484      1.0  0.46260  0.78494  0.54200  1.0000
  H   H485      1.0  0.32749  0.96637  0.60462  1.0000
  Fe  Fe42      1.0  0.33809  0.96497  0.72313  1.0000
  S   S86       1.0  0.36395  0.94504  0.68093  1.0000
  S   S87       1.0  0.30584  0.95070  0.75483  1.0000
  C   C599      1.0  0.38879  0.86854  0.70414  1.0000
  C   C600      1.0  0.40237  0.88300  0.67935  1.0000
  C   C601      1.0  0.39467  0.90655  0.67288  1.0000
  C   C602      1.0  0.37368  0.91596  0.69181  1.0000
  C   C603      1.0  0.36034  0.90172  0.71732  1.0000
  C   C604      1.0  0.36766  0.87788  0.72288  1.0000
  H   H486      1.0  0.41843  0.87589  0.66433  1.0000
  H   H487      1.0  0.40493  0.91746  0.65296  1.0000
  H   H488      1.0  0.34419  0.90892  0.73212  1.0000
  H   H489      1.0  0.35702  0.86669  0.74186  1.0000
  C   C605      1.0  0.48318  0.81556  0.52643  1.0000
  H   H490      1.0  0.03369  0.67805  0.71801  1.0000
  H   H491      1.0  0.08862  0.68656  0.57174  1.0000
  C   C606      1.0  0.40735  0.83421  0.55000  1.0000
  H   H492      1.0  0.39996  0.82657  0.79354  1.0000
  H   H493      1.0  0.33362  0.93568  0.93968  1.0000
  C   C607      1.0  0.38763  0.88296  0.54996  1.0000
  C   C608      1.0  0.32470  0.95285  0.94516  1.0000
  Fe  Fe43      1.0  0.47203  0.78797  0.71363  1.0000
  S   S88       1.0  0.32191  0.95392  0.86499  1.0000
  C   C609      1.0  0.45989  0.92034  0.66327  1.0000
  C   C610      1.0  0.45187  0.87042  0.56317  1.0000
  C   C611      1.0  0.30709  0.98353  0.51716  1.0000
  C   C612      1.0  0.41060  0.81244  0.52890  1.0000
  C   C613      1.0  0.21463  0.98407  0.65706  1.0000
  H   H494      1.0  0.39962  0.85018  0.60776  1.0000
  C   C614      1.0  0.47986  0.72147  0.86378  1.0000
  C   C615      1.0  0.08960  0.66464  0.68376  1.0000
  Fe  Fe44      1.0  0.47652  0.67661  0.94579  1.0000
  C   C616      1.0  0.05366  0.70002  0.59285  1.0000
  H   H495      1.0  0.38229  0.93891  0.59188  1.0000
  H   H496      1.0  0.40172  0.77359  0.60296  1.0000
  C   C617      1.0  0.47472  0.74004  0.78775  1.0000
  H   H497      1.0  0.01748  0.71417  0.60277  1.0000
  H   H498      1.0  0.43859  0.94604  0.63421  1.0000
  H   H499      1.0  0.03351  0.87899  0.49712  1.0000
  H   H500      1.0  0.46374  0.70446  0.77252  1.0000
  H   H501      1.0  0.19184  0.86547  0.85488  1.0000
  H   H502      1.0  0.14881  0.67386  0.69523  1.0000
  C   C618      1.0  0.01910  0.73649  0.73746  1.0000
  C   C619      1.0  0.24960  0.92096  0.67277  1.0000
  C   C620      1.0  0.27205  0.91869  0.65325  1.0000
  C   C621      1.0  0.29141  0.90898  0.67232  1.0000
  C   C622      1.0  0.28841  0.90184  0.71107  1.0000
  C   C623      1.0  0.26608  0.90477  0.73137  1.0000
  C   C624      1.0  0.24658  0.91397  0.71161  1.0000
  P   P20       1.0  0.26241  0.89732  0.78248  1.0000
  C   C625      1.0  0.23663  0.87862  0.78833  1.0000
  C   C626      1.0  0.28876  0.88080  0.79615  1.0000
  C   C627      1.0  0.29038  0.85583  0.79088  1.0000
  C   C628      1.0  0.31125  0.84330  0.79995  1.0000
  C   C629      1.0  0.33059  0.85556  0.81439  1.0000
  C   C630      1.0  0.32914  0.88041  0.81959  1.0000
  C   C631      1.0  0.30845  0.89300  0.81015  1.0000
  C   C632      1.0  0.22265  0.87922  0.82350  1.0000
  C   C633      1.0  0.20262  0.86481  0.82773  1.0000
  C   C634      1.0  0.21030  0.84887  0.76194  1.0000
  C   C635      1.0  0.23035  0.86324  0.75762  1.0000
  C   C636      1.0  0.25823  0.92383  0.81378  1.0000
  C   C637      1.0  0.24964  0.94541  0.79905  1.0000
  C   C638      1.0  0.47987  0.93473  0.72008  1.0000
  H   H503      1.0  0.38367  0.89843  0.79649  1.0000
  C   C639      1.0  0.26144  0.94367  0.87731  1.0000
  C   C640      1.0  0.26377  0.92306  0.85339  1.0000
  H   H504      1.0  0.23467  0.92887  0.65817  1.0000
  H   H505      1.0  0.27441  0.92479  0.62354  1.0000
  H   H506      1.0  0.30893  0.90746  0.65752  1.0000
  H   H507      1.0  0.30378  0.89474  0.72531  1.0000
  H   H508      1.0  0.22916  0.91638  0.72651  1.0000
  H   H509      1.0  0.27572  0.84602  0.77938  1.0000
  C   C641      1.0  0.36454  0.87500  0.55988  1.0000
  H   H510      1.0  0.34678  0.84583  0.82107  1.0000
  H   H511      1.0  0.34403  0.89011  0.83070  1.0000
  H   H512      1.0  0.30794  0.91230  0.81374  1.0000
  H   H513      1.0  0.22706  0.89085  0.84767  1.0000
  H   H514      1.0  0.24093  0.86235  0.73028  1.0000
  H   H515      1.0  0.24518  0.94676  0.76891  1.0000
  C   C642      1.0  0.42083  0.98739  0.75161  1.0000
  P   P21       1.0  0.40937  0.86257  0.52571  1.0000
  C   C643      1.0  0.13095  0.67643  0.68481  1.0000
  H   H516      1.0  0.27045  0.90671  0.86569  1.0000
  C   C644      1.0  0.40202  0.83375  0.59051  1.0000
  H   H517      1.0  0.01554  0.73192  0.53781  1.0000
  C   C645      1.0  0.48484  0.74553  0.85585  1.0000
  H   H518      1.0  0.44299  0.78689  0.94940  1.0000
  H   H519      1.0  0.04620  0.73961  0.64692  1.0000
  C   C646      1.0  0.38193  0.86450  0.95553  1.0000
  H   H520      1.0  0.41154  0.91286  0.55423  1.0000
  C   C647      1.0  0.12609  0.69514  0.65980  1.0000
  C   C648      1.0  0.39381  0.90631  0.56093  1.0000
  H   H521      1.0  0.44492  0.85915  0.58610  1.0000
  C   C649      1.0  0.00654  0.93969  0.50490  1.0000
  H   H522      1.0  0.26672  0.94322  0.90736  1.0000
  C   C650      1.0  0.45536  0.96214  0.68393  1.0000
  C   C651      1.0  0.03279  0.71215  0.58233  1.0000
  S   S89       1.0  0.24859  0.98332  0.71318  1.0000
  C   C652      1.0  0.25344  0.96518  0.86205  1.0000
  C   C653      1.0  0.37722  0.92126  0.58197  1.0000
  C   C654      1.0  0.40311  0.79044  0.58812  1.0000
  H   H523      1.0  0.31250  0.82407  0.79549  1.0000
  H   H524      1.0  0.09852  0.96729  0.55311  1.0000
  H   H525      1.0  0.34199  0.92435  0.60986  1.0000
  Fe  Fe45      1.0  0.17989  0.98128  0.50115  1.0000
  C   C655      1.0  0.47003  0.95761  0.71527  1.0000
  H   H526      1.0  0.45965  0.89316  0.77486  1.0000
  Fe  Fe46      1.0  0.31711  0.97262  0.80685  1.0000
  C   C656      1.0  0.46911  0.79584  0.51829  1.0000
  Fe  Fe47      1.0  0.48670  0.84047  0.71837  1.0000
  C   C657      1.0  0.43886  0.87462  0.52988  1.0000
  C   C658      1.0  0.40856  0.79069  0.54794  1.0000
  S   S90       1.0  0.21391  0.98312  0.53695  1.0000
  C   C659      1.0  0.34803  0.88999  0.58097  1.0000
  P   P22       1.0  0.44311  0.99192  0.67757  1.0000
  Fe  Fe48      1.0  0.28677  0.98395  0.73529  1.0000
  H   H527      1.0  0.25237  0.98128  0.88033  1.0000
  H   H528      1.0  0.48759  0.74102  0.63181  1.0000
  H   H529      1.0  0.39549  0.81173  0.64047  1.0000
  H   H530      1.0  0.40827  0.75090  0.77444  1.0000
  C   C660      1.0  0.07272  0.69667  0.56496  1.0000
  H   H531      1.0  0.06458  0.97374  0.51119  1.0000
  H   H532      1.0  0.45687  0.74560  0.96295  1.0000
  H   H533      1.0  0.46801  0.68836  0.83903  1.0000
  C   C661      1.0  0.04058  0.70672  0.67809  1.0000
  C   C662      1.0  0.01389  0.66020  0.64076  1.0000
  H   H534      1.0  0.38549  0.86476  0.84176  1.0000
  H   H535      1.0  0.20179  0.98566  0.68164  1.0000
  H   H536      1.0  0.46213  0.85977  0.82019  1.0000
  H   H537      1.0  0.42051  0.91223  0.76228  1.0000
  H   H538      1.0  0.01119  0.92288  0.51809  1.0000
  C   C663      1.0  0.49170  0.82928  0.49491  1.0000
  C   C664      1.0  0.03198  0.69705  0.71332  1.0000
  C   C665      1.0  0.45021  0.94326  0.65813  1.0000
  C   C666      1.0  0.07133  0.70640  0.52780  1.0000
  C   C667      1.0  0.23923  0.98250  0.66400  1.0000
  S   S91       1.0  0.44036  0.67457  0.97713  1.0000
  H   H539      1.0  0.39370  0.79064  0.75346  1.0000
  S   S92       1.0  0.46387  0.85121  0.66939  1.0000
  H   H540      1.0  0.43564  0.78325  0.87716  1.0000
  H   H541      1.0  0.42851  0.74737  0.83687  1.0000
  C   C668      1.0  0.48217  0.75479  0.81821  1.0000
  H   H542      1.0  0.00398  0.67694  0.64564  1.0000
  H   H543      1.0  0.33048  0.88352  0.58943  1.0000
  C   C669      1.0  0.05080  0.71923  0.51811  1.0000
  C   C670      1.0  0.35443  0.91305  0.59221  1.0000
  C   C671      1.0  0.37215  0.84458  0.97361  1.0000
  C   C672      1.0  0.37823  0.82160  0.95911  1.0000
  C   C673      1.0  0.39386  0.81850  0.92620  1.0000
  C   C674      1.0  0.40353  0.83844  0.90748  1.0000
  C   C675      1.0  0.39781  0.86147  0.92294  1.0000
  P   P23       1.0  0.42513  0.83445  0.86677  1.0000
  C   C676      1.0  0.42401  0.85998  0.83524  1.0000
  C   C677      1.0  0.45452  0.83043  0.88580  1.0000
  C   C678      1.0  0.47262  0.81800  0.86336  1.0000
  C   C679      1.0  0.31716  0.96615  0.91335  1.0000
  H   H544      1.0  0.48467  0.83918  0.96916  1.0000
  H   H545      1.0  0.44561  0.84813  0.94178  1.0000
  C   C680      1.0  0.45914  0.83837  0.92389  1.0000
  C   C681      1.0  0.40191  0.87110  0.82811  1.0000
  C   C682      1.0  0.40075  0.89011  0.80238  1.0000
  C   C683      1.0  0.42155  0.89800  0.78316  1.0000
  C   C684      1.0  0.44360  0.88717  0.79020  1.0000
  C   C685      1.0  0.44489  0.86824  0.81611  1.0000
  C   C686      1.0  0.41828  0.80783  0.83869  1.0000
  C   C687      1.0  0.40602  0.80949  0.80395  1.0000
  C   C688      1.0  0.40232  0.78901  0.78101  1.0000
  C   C689      1.0  0.41048  0.76667  0.79282  1.0000
  C   C690      1.0  0.42201  0.76472  0.82792  1.0000
  C   C691      1.0  0.42602  0.78518  0.85069  1.0000
  C   C692      1.0  0.03150  0.72198  0.54531  1.0000
  C   C693      1.0  0.46948  0.71608  0.79579  1.0000
  H   H546      1.0  0.09943  0.71345  0.62791  1.0000
  H   H547      1.0  0.39833  0.80052  0.91560  1.0000
  H   H548      1.0  0.40561  0.87712  0.90991  1.0000
  H   H549      1.0  0.46950  0.81191  0.83381  1.0000
  C   C694      1.0  0.39970  0.81195  0.60930  1.0000
  P   P24       1.0  0.05490  0.68733  0.64076  1.0000
  C   C695      1.0  0.32070  0.96151  0.98407  1.0000
  H   H550      1.0  0.08619  0.70413  0.50649  1.0000
  S   S93       1.0  0.35088  0.98447  0.77563  1.0000
  H   H551      1.0  0.35949  0.85698  0.55204  1.0000
  H   H552      1.0  0.48472  0.87626  0.59194  1.0000
  C   C696      1.0  0.31981  0.97765  0.58289  1.0000
  H   H553      1.0  0.45576  0.90579  0.64347  1.0000
  C   C697      1.0  0.48129  0.83332  0.93958  1.0000
  H   H554      1.0  0.02835  0.96020  0.54211  1.0000
  H   H555      1.0  0.37721  0.88233  0.96687  1.0000
  C   C698      1.0  0.02105  0.71185  0.74274  1.0000
  H   H556      1.0  0.40204  0.98375  0.80748  1.0000
  C   C699      1.0  0.24740  0.98014  0.59343  1.0000
  H   H557      1.0  0.01041  0.74791  0.76011  1.0000
  C   C700      1.0  0.03898  0.65970  0.63785  1.0000
  C   C701      1.0  0.47446  0.88026  0.56671  1.0000
  C   C702      1.0  0.45238  0.75822  0.98689  1.0000
  C   C703      1.0  0.03913  0.73157  0.67337  1.0000
  C   C704      1.0  0.11267  0.66129  0.69699  1.0000
  C   C705      1.0  0.08481  0.68274  0.65722  1.0000
  H   H558      1.0  0.41148  0.77402  0.53149  1.0000
  C   C706      1.0  0.10304  0.69846  0.64636  1.0000
  H   H559      1.0  0.49155  0.93137  0.74382  1.0000
  H   H560      1.0  0.42241  0.96824  0.74653  1.0000
  H   H561      1.0  0.01396  0.70419  0.76960  1.0000
  H   H562      1.0  0.14015  0.70722  0.65109  1.0000
  C   C707      1.0  0.44452  0.78148  0.97932  1.0000
  C   C708      1.0  0.31712  0.96884  0.54487  1.0000
  H   H563      1.0  0.02680  0.76548  0.69882  1.0000
  S   S94       1.0  0.14022  0.99030  0.50981  1.0000
  C   C709      1.0  0.48427  0.89424  0.53705  1.0000
  H   H564      1.0  0.00186  0.68120  0.93253  1.0000
  H   H565      1.0  0.37077  0.80614  0.97334  1.0000
  C   C710      1.0  0.06718  0.98632  0.53506  1.0000
  C   C711      1.0  0.02832  0.74636  0.70293  1.0000
  H   H566      1.0  0.26025  0.97851  0.56891  1.0000
  H   H567      1.0  0.04833  0.66336  0.82492  1.0000
  H   H568      1.0  0.27445  0.97887  0.63676  1.0000
  C   C712      1.0  0.30549  0.98825  0.92096  1.0000
  C   C713      1.0  0.25556  0.98035  0.63186  1.0000
  C   C714      1.0  0.44867  0.88906  0.50042  1.0000
  H   H569      1.0  0.48622  0.77318  0.81256  1.0000
  H   H570      1.0  0.18750  0.98542  0.61385  1.0000
  S   S95       1.0  0.48562  0.71042  0.91103  1.0000
  H   H571      1.0  0.41493  0.81194  0.49786  1.0000
  H   H572      1.0  0.49110  0.75697  0.87892  1.0000
  C   C715      1.0  0.06305  0.90346  0.49205  1.0000
  C   C716      1.0  0.20644  0.98389  0.61858  1.0000
  H   H573      1.0  0.44622  0.99018  0.59205  1.0000
  C   C717      1.0  0.42745  0.99089  0.60140  1.0000
  C   C718      1.0  0.41010  0.99134  0.57326  1.0000
  H   H574      1.0  0.41551  0.99101  0.54247  1.0000
  C   C719      1.0  0.42059  0.99171  0.64141  1.0000
  H   H575      1.0  0.04975  0.72705  0.48952  1.0000
  C   C720      1.0  0.51796  0.21346  0.48293  1.0000
  S   S96       1.0  0.95642  0.29450  0.18295  1.0000
  C   C721      1.0  0.59226  0.08804  0.13153  1.0000
  Fe  Fe49      1.0  0.97451  0.16458  0.42665  1.0000
  H   H576      1.0  0.67348  0.99380  0.27836  1.0000
  S   S97       1.0  0.96891  0.17999  0.36553  1.0000
  H   H577      1.0  0.53249  0.15376  0.99049  1.0000
  H   H578      1.0  0.85206  0.13243  0.40111  1.0000
  S   S98       1.0  0.97632  0.12446  0.43706  1.0000
  Fe  Fe50      1.0  0.49393  0.12487  0.19779  1.0000
  S   S99       1.0  0.84633  0.03070  0.43149  1.0000
  C   C722      1.0  0.93566  0.00693  0.45394  1.0000
  C   C723      1.0  0.53621  0.29304  0.02213  1.0000
  S   S100      1.0  0.77675  0.00834  0.45890  1.0000
  H   H579      1.0  0.52031  0.08343  0.07415  1.0000
  S   S101      1.0  0.51542  0.09930  0.15704  1.0000
  C   C724      1.0  0.91679  0.32336  0.03313  1.0000
  C   C725      1.0  0.97747  0.20651  0.34036  1.0000
  S   S102      1.0  0.57988  0.01823  0.22795  1.0000
  S   S103      1.0  0.63765  0.00683  0.15589  1.0000
  H   H580      1.0  0.52735  0.03644  0.30863  1.0000
  H   H581      1.0  0.51234  0.12645  0.41310  1.0000
  C   C726      1.0  0.53207  0.07603  0.17743  1.0000
  C   C727      1.0  0.54176  0.05737  0.15311  1.0000
  C   C728      1.0  0.55668  0.03965  0.16817  1.0000
  C   C729      1.0  0.56156  0.04027  0.20785  1.0000
  C   C730      1.0  0.55120  0.05847  0.23241  1.0000
  C   C731      1.0  0.53646  0.07631  0.21722  1.0000
  H   H582      1.0  0.53824  0.05689  0.12235  1.0000
  H   H583      1.0  0.56456  0.02565  0.14906  1.0000
  H   H584      1.0  0.55497  0.05904  0.26310  1.0000
  H   H585      1.0  0.52893  0.09061  0.23597  1.0000
  H   H586      1.0  0.49761  0.13338  0.48221  1.0000
  H   H587      1.0  0.63648  0.05055  0.09330  1.0000
  C   C732      1.0  0.95923  0.28157  0.43341  1.0000
  H   H588      1.0  0.51222  0.24620  0.18713  1.0000
  C   C733      1.0  0.85707  0.12745  0.46230  1.0000
  Fe  Fe51      1.0  0.60384  0.99484  0.18698  1.0000
  C   C734      1.0  0.49483  0.03296  0.44212  1.0000
  H   H589      1.0  0.69199  0.00128  0.34205  1.0000
  C   C735      1.0  0.86625  0.05140  0.45302  1.0000
  C   C736      1.0  0.88244  0.06378  0.42849  1.0000
  C   C737      1.0  0.89842  0.08046  0.44389  1.0000
  C   C738      1.0  0.99100  0.24745  0.29659  1.0000
  C   C739      1.0  0.52670  0.19625  0.45497  1.0000
  H   H590      1.0  0.88254  0.06055  0.39722  1.0000
  H   H591      1.0  0.91049  0.08994  0.42447  1.0000
  C   C740      1.0  0.57705  0.99475  0.32914  1.0000
  H   H592      1.0  0.98930  0.99948  0.45760  1.0000
  C   C741      1.0  0.96747  0.21141  0.30426  1.0000
  H   H593      1.0  0.75329  0.11437  0.40687  1.0000
  S   S104      1.0  0.50691  0.15846  0.22642  1.0000
  H   H594      1.0  0.95468  0.19922  0.29268  1.0000
  H   H595      1.0  0.74081  0.07073  0.43347  1.0000
  H   H596      1.0  0.56816  0.00800  0.38759  1.0000
  H   H597      1.0  0.50602  0.08533  0.30500  1.0000
  C   C742      1.0  0.93811  0.25075  0.39905  1.0000
  C   C743      1.0  0.94805  0.23349  0.42266  1.0000
  P   P25       1.0  0.93049  0.29756  0.37438  1.0000
  C   C744      1.0  0.53368  0.25735  0.13724  1.0000
  C   C745      1.0  0.54797  0.04587  0.02788  1.0000
  P   P26       1.0  0.56391  0.07367  0.02531  1.0000
  H   H598      1.0  0.93451  0.99474  0.42916  1.0000
  H   H599      1.0  0.51621  0.05974  0.00153  1.0000
  C   C746      1.0  0.53962  0.27626  0.11287  1.0000
  C   C747      1.0  0.60562  0.06212  0.06296  1.0000
  S   S105      1.0  0.94435  0.17065  0.47208  1.0000
  H   H600      1.0  0.81681  0.06835  0.40531  1.0000
  C   C748      1.0  0.97411  0.23168  0.28260  1.0000
  C   C749      1.0  0.75044  0.12384  0.43468  1.0000
  H   H601      1.0  0.54164  0.23971  0.13148  1.0000
  C   C750      1.0  0.58386  0.07523  0.06533  1.0000
  H   H602      1.0  0.96382  0.30008  0.43775  1.0000
  C   C751      1.0  0.73115  0.15658  0.47254  1.0000
  H   H603      1.0  0.55277  0.27309  0.08904  1.0000
  C   C752      1.0  0.52496  0.04425  0.01335  1.0000
  H   H604      1.0  0.57667  0.02575  0.05340  1.0000
  H   H605      1.0  0.91978  0.32040  0.00198  1.0000
  C   C753      1.0  0.90985  0.30655  0.09717  1.0000
  C   C754      1.0  0.54592  0.11871  0.00468  1.0000
  C   C755      1.0  0.94349  0.27498  0.40439  1.0000
  H   H606      1.0  0.52497  0.18269  0.39570  1.0000
  H   H607      1.0  0.56099  0.09895  0.10256  1.0000
  H   H608      1.0  0.62446  0.07327  0.15451  1.0000
  C   C756      1.0  0.50175  0.23125  0.47175  1.0000
  C   C757      1.0  0.49344  0.23106  0.43383  1.0000
  H   H609      1.0  0.58678  0.09767  0.15841  1.0000
  H   H610      1.0  0.95043  0.03481  0.41828  1.0000
  Fe  Fe52      1.0  0.99002  0.29501  0.21688  1.0000
  C   C758      1.0  0.62021  0.06150  0.09495  1.0000
  H   H611      1.0  0.90774  0.29109  0.11539  1.0000
  C   C759      1.0  0.52836  0.29882  0.11905  1.0000
  P   P27       1.0  0.78351  0.09170  0.46456  1.0000
  C   C760      1.0  0.54586  0.31350  0.03917  1.0000
  H   H612      1.0  0.53580  0.99697  0.27782  1.0000
  C   C761      1.0  0.77220  0.04030  0.36023  1.0000
  C   C762      1.0  0.79525  0.04755  0.36809  1.0000
  C   C763      1.0  0.54269  0.09866  0.02819  1.0000
  C   C764      1.0  0.54716  0.00353  0.04235  1.0000
  H   H613      1.0  0.49820  0.15324  0.03904  1.0000
  C   C765      1.0  0.51657  0.02158  0.31784  1.0000
  C   C766      1.0  0.77913  0.07269  0.42232  1.0000
  C   C767      1.0  0.90657  0.31399  0.40131  1.0000
  C   C768      1.0  0.96366  0.24014  0.45138  1.0000
  C   C769      1.0  0.51677  0.07278  0.36109  1.0000
  H   H614      1.0  0.76952  0.02735  0.33686  1.0000
  H   H615      1.0  0.81055  0.04014  0.35099  1.0000
  C   C770      1.0  0.73465  0.14360  0.43728  1.0000
  C   C771      1.0  0.88575  0.26128  0.30397  1.0000
  C   C772      1.0  0.89955  0.25797  0.26915  1.0000
  C   C773      1.0  0.92257  0.26707  0.26595  1.0000
  C   C774      1.0  0.93184  0.27967  0.29735  1.0000
  C   C775      1.0  0.91803  0.28326  0.33235  1.0000
  C   C776      1.0  0.89500  0.27372  0.33558  1.0000
  H   H616      1.0  0.86805  0.25387  0.30663  1.0000
  H   H617      1.0  0.89259  0.24807  0.24476  1.0000
  H   H618      1.0  0.93348  0.26397  0.23932  1.0000
  H   H619      1.0  0.94990  0.28615  0.29424  1.0000
  H   H620      1.0  0.88433  0.27548  0.36273  1.0000
  H   H621      1.0  0.94407  0.21478  0.41807  1.0000
  H   H622      1.0  0.92660  0.24485  0.37640  1.0000
  C   C777      1.0  0.53931  0.10027  0.32056  1.0000
  C   C778      1.0  0.55688  0.10134  0.34812  1.0000
  C   C779      1.0  0.55469  0.08789  0.38191  1.0000
  H   H623      1.0  0.49842  0.20555  0.03689  1.0000
  C   C780      1.0  0.98019  0.30087  0.02038  1.0000
  C   C781      1.0  0.51860  0.19632  0.41697  1.0000
  C   C782      1.0  0.61344  0.07429  0.12936  1.0000
  H   H624      1.0  0.87463  0.13534  0.46165  1.0000
  C   C783      1.0  0.53477  0.07357  0.38835  1.0000
  H   H625      1.0  0.53972  0.18270  0.46224  1.0000
  H   H626      1.0  0.53341  0.06337  0.41477  1.0000
  C   C784      1.0  0.55892  0.02529  0.04236  1.0000
  C   C785      1.0  0.51307  0.02250  0.01386  1.0000
  H   H627      1.0  0.58800  0.31616  0.08631  1.0000
  C   C786      1.0  0.50693  0.11796  0.05878  1.0000
  H   H628      1.0  0.95359  0.27979  0.99293  1.0000
  C   C787      1.0  0.52418  0.00212  0.02835  1.0000
  C   C788      1.0  0.81259  0.10511  0.46362  1.0000
  H   H629      1.0  0.73488  0.04265  0.37811  1.0000
  C   C789      1.0  0.79872  0.06367  0.39900  1.0000
  S   S106      1.0  0.97153  0.29124  0.06838  1.0000
  H   H630      1.0  0.91358  0.28570  0.04359  1.0000
  C   C790      1.0  0.88457  0.32467  0.46242  1.0000
  C   C791      1.0  0.50178  0.21351  0.40652  1.0000
  C   C792      1.0  0.75262  0.04900  0.38354  1.0000
  H   H631      1.0  0.54076  0.11112  0.29479  1.0000
  H   H632      1.0  0.57208  0.11276  0.34334  1.0000
  H   H633      1.0  0.56833  0.08876  0.40328  1.0000
  C   C793      1.0  0.75606  0.06492  0.41475  1.0000
  Fe  Fe53      1.0  0.97908  0.30577  0.13001  1.0000
  C   C794      1.0  0.57756  0.08863  0.09960  1.0000
  H   H634      1.0  0.97162  0.22654  0.46906  1.0000
  C   C795      1.0  0.49696  0.13816  0.41963  1.0000
  C   C796      1.0  0.51715  0.26102  0.16874  1.0000
  C   C797      1.0  0.52294  0.09842  0.05506  1.0000
  H   H635      1.0  0.57756  0.01237  0.31652  1.0000
  C   C798      1.0  0.51241  0.30257  0.15163  1.0000
  C   C799      1.0  0.50664  0.28364  0.17609  1.0000
  H   H636      1.0  0.72522  0.14893  0.41183  1.0000
  C   C800      1.0  0.51944  0.08586  0.32674  1.0000
  C   C801      1.0  0.82208  0.11483  0.42893  1.0000
  H   H637      1.0  0.51023  0.03039  0.22825  1.0000
  C   C802      1.0  0.97714  0.30904  0.35105  1.0000
  C   C803      1.0  0.49277  0.02269  0.22558  1.0000
  H   H638      1.0  0.98141  0.26909  0.47917  1.0000
  Fe  Fe54      1.0  0.81661  0.00340  0.44448  1.0000
  C   C804      1.0  0.51032  0.13785  0.03543  1.0000
  H   H639      1.0  0.81238  0.11381  0.40234  1.0000
  H   H640      1.0  0.69119  0.00089  0.44486  1.0000
  S   S107      1.0  0.49876  0.14600  0.34022  1.0000
  H   H641      1.0  0.96657  0.23473  0.25462  1.0000
  C   C805      1.0  0.90377  0.31270  0.44221  1.0000
  C   C806      1.0  0.96923  0.26416  0.45685  1.0000
  H   H642      1.0  0.91595  0.30202  0.45859  1.0000
  C   C807      1.0  0.84441  0.12564  0.42819  1.0000
  C   C808      1.0  0.89851  0.08502  0.48426  1.0000
  H   H643      1.0  0.61098  0.05161  0.03689  1.0000
  C   C809      1.0  0.94571  0.04620  0.47854  1.0000
  C   C810      1.0  0.49788  0.02470  0.34650  1.0000
  S   S108      1.0  0.62083  0.99884  0.04325  1.0000
  C   C811      1.0  0.52973  0.13817  0.00823  1.0000
  H   H644      1.0  0.49508  0.21301  0.37730  1.0000
  H   H645      1.0  0.98158  0.29028  0.35461  1.0000
  C   C812      1.0  0.94481  0.02966  0.44753  1.0000
  H   H646      1.0  0.50462  0.01838  0.42695  1.0000
  C   C813      1.0  0.95359  0.31773  0.35820  1.0000
  C   C814      1.0  0.91303  0.30354  0.05663  1.0000
  H   H647      1.0  0.52295  0.28278  0.03806  1.0000
  H   H648      1.0  0.49240  0.11798  0.08090  1.0000
  H   H649      1.0  0.71893  0.17189  0.47449  1.0000
  C   C815      1.0  0.76258  0.11671  0.46760  1.0000
  H   H650      1.0  0.49527  0.02142  0.00295  1.0000
  C   C816      1.0  0.52146  0.99910  0.30021  1.0000
  H   H651      1.0  0.60403  0.10281  0.99919  1.0000
  Fe  Fe55      1.0  0.94806  0.13141  0.48525  1.0000
  H   H652      1.0  0.95192  0.06417  0.47342  1.0000
  H   H653      1.0  0.50423  0.32002  0.15790  1.0000
  H   H654      1.0  0.49376  0.28633  0.20049  1.0000
  P   P28       1.0  0.53602  0.32342  0.08791  1.0000
  C   C817      1.0  0.57178  0.99224  0.36909  1.0000
  Fe  Fe56      1.0  0.64763  0.99347  0.71531  1.0000
  H   H655      1.0  0.98693  0.20049  0.79119  1.0000
  C   C818      1.0  0.96849  0.25827  0.64608  1.0000
  C   C819      1.0  0.69756  0.99572  0.63568  1.0000
  H   H656      1.0  0.50513  0.13169  0.90827  1.0000
  C   C820      1.0  0.97695  0.24379  0.67546  1.0000
  S   S109      1.0  0.97492  0.13914  0.53091  1.0000
  Fe  Fe57      1.0  0.97331  0.17787  0.51439  1.0000
  H   H657      1.0  0.73012  0.01004  0.55211  1.0000
  S   S110      1.0  0.98015  0.25469  0.72433  1.0000
  H   H658      1.0  0.88232  0.07576  0.54007  1.0000
  H   H659      1.0  0.85402  0.04688  0.51274  1.0000
  C   C821      1.0  0.97209  0.21267  0.79907  1.0000
  S   S111      1.0  0.53556  0.10231  0.62927  1.0000
  C   C822      1.0  0.84591  0.19185  0.77891  1.0000
  C   C823      1.0  0.79704  0.05496  0.51242  1.0000
  H   H660      1.0  0.84754  0.29774  0.75872  1.0000
  C   C824      1.0  0.91438  0.27828  0.74477  1.0000
  H   H661      1.0  0.91844  0.22992  0.61257  1.0000
  C   C825      1.0  0.92029  0.19441  0.63488  1.0000
  Fe  Fe58      1.0  0.49946  0.12169  0.63051  1.0000
  S   S112      1.0  0.56577  0.03249  0.76365  1.0000
  S   S113      1.0  0.63533  0.01501  0.77016  1.0000
  C   C826      1.0  0.54364  0.08317  0.66722  1.0000
  C   C827      1.0  0.56566  0.07058  0.66366  1.0000
  C   C828      1.0  0.57252  0.05482  0.69279  1.0000
  C   C829      1.0  0.55744  0.05160  0.72587  1.0000
  C   C830      1.0  0.53535  0.06408  0.72935  1.0000
  C   C831      1.0  0.52846  0.07982  0.70020  1.0000
  H   H662      1.0  0.57746  0.07296  0.63820  1.0000
  H   H663      1.0  0.58957  0.04529  0.68978  1.0000
  H   H664      1.0  0.52338  0.06134  0.75445  1.0000
  H   H665      1.0  0.51140  0.08924  0.70317  1.0000
  C   C832      1.0  0.52778  0.18092  0.84315  1.0000
  H   H666      1.0  0.84555  0.01646  0.56555  1.0000
  H   H667      1.0  0.95151  0.20084  0.75163  1.0000
  H   H668      1.0  0.51459  0.05545  0.62192  1.0000
  H   H669      1.0  0.89777  0.21569  0.83909  1.0000
  H   H670      1.0  0.96110  0.02391  0.61654  1.0000
  C   C833      1.0  0.54297  0.18598  0.54328  1.0000
  C   C834      1.0  0.97337  0.05708  0.59299  1.0000
  H   H671      1.0  0.86562  0.19303  0.87140  1.0000
  C   C835      1.0  0.58214  0.07366  0.98031  1.0000
  H   H672      1.0  0.74114  0.16014  0.53238  1.0000
  C   C836      1.0  0.93459  0.24535  0.81761  1.0000
  Fe  Fe59      1.0  0.98037  0.29228  0.75270  1.0000
  C   C837      1.0  0.91357  0.23022  0.67546  1.0000
  C   C838      1.0  0.97192  0.22453  0.59853  1.0000
  C   C839      1.0  0.50111  0.04341  0.63293  1.0000
  H   H673      1.0  0.50771  0.22667  0.90457  1.0000
  C   C840      1.0  0.84644  0.18763  0.81893  1.0000
  H   H674      1.0  0.56376  0.29465  0.93153  1.0000
  H   H675      1.0  0.56095  0.11956  0.98381  1.0000
  S   S114      1.0  0.95739  0.30597  0.80550  1.0000
  C   C841      1.0  0.50784  0.02305  0.65291  1.0000
  H   H676      1.0  0.95920  0.26001  0.58565  1.0000
  C   C842      1.0  0.88344  0.20921  0.82186  1.0000
  H   H677      1.0  0.52660  0.01957  0.65791  1.0000
  H   H678      1.0  0.91194  0.24949  0.67741  1.0000
  H   H679      1.0  0.83138  0.18509  0.76228  1.0000
  H   H680      1.0  0.98479  0.19144  0.62142  1.0000
  H   H681      1.0  0.76935  0.02622  0.58786  1.0000
  H   H682      1.0  0.92029  0.25823  0.82512  1.0000
  C   C843      1.0  0.93756  0.04000  0.51598  1.0000
  C   C844      1.0  0.86620  0.29224  0.75476  1.0000
  H   H683      1.0  0.96392  0.27683  0.65274  1.0000
  H   H684      1.0  0.86341  0.20790  0.72927  1.0000
  P   P29       1.0  0.90647  0.23004  0.75714  1.0000
  H   H685      1.0  0.58967  0.04469  0.89155  1.0000
  C   C845      1.0  0.91494  0.19135  0.70516  1.0000
  C   C846      1.0  0.55911  0.29964  0.96174  1.0000
  C   C847      1.0  0.89714  0.26095  0.75249  1.0000
  C   C848      1.0  0.77230  0.03938  0.56544  1.0000
  H   H686      1.0  0.88219  0.32314  0.49383  1.0000
  S   S115      1.0  0.96790  0.21355  0.54987  1.0000
  C   C849      1.0  0.56080  0.27844  0.55073  1.0000
  H   H687      1.0  0.92401  0.18609  0.60622  1.0000
  H   H688      1.0  0.92162  0.16124  0.66529  1.0000
  H   H689      1.0  0.53059  0.08878  0.80762  1.0000
  C   C850      1.0  0.95487  0.24503  0.83998  1.0000
  H   H690      1.0  0.90873  0.30991  0.62165  1.0000
  C   C851      1.0  0.90762  0.30239  0.74261  1.0000
  C   C852      1.0  0.96811  0.29198  0.98805  1.0000
  H   H691      1.0  0.73787  0.05669  0.57623  1.0000
  C   C853      1.0  0.88306  0.21347  0.78163  1.0000
  C   C854      1.0  0.96592  0.24866  0.60799  1.0000
  H   H692      1.0  0.69550  0.02458  0.59528  1.0000
  S   S116      1.0  0.50061  0.28853  0.91086  1.0000
  C   C855      1.0  0.88252  0.07242  0.50882  1.0000
  H   H693      1.0  0.92219  0.01292  0.55189  1.0000
  H   H694      1.0  0.96153  0.06818  0.61207  1.0000
  C   C856      1.0  0.98029  0.21005  0.62798  1.0000
  C   C857      1.0  0.54443  0.25988  0.55162  1.0000
  C   C858      1.0  0.61734  0.00291  0.96351  1.0000
  C   C859      1.0  0.50868  0.16525  0.84834  1.0000
  C   C860      1.0  0.79343  0.03847  0.54207  1.0000
  H   H695      1.0  0.49518  0.20692  0.78924  1.0000
  C   C861      1.0  0.91240  0.21635  0.70916  1.0000
  H   H696      1.0  0.49531  0.24509  0.49248  1.0000
  C   C862      1.0  0.56972  0.12880  0.75104  1.0000
  C   C863      1.0  0.56157  0.13476  0.71449  1.0000
  C   C864      1.0  0.53785  0.14236  0.71107  1.0000
  C   C865      1.0  0.52203  0.14328  0.74388  1.0000
  C   C866      1.0  0.58280  0.27539  0.52994  1.0000
  C   C867      1.0  0.55403  0.13010  0.78409  1.0000
  P   P30       1.0  0.50900  0.13665  0.82245  1.0000
  H   H697      1.0  0.59543  0.28981  0.52917  1.0000
  C   C868      1.0  0.92881  0.01716  0.52272  1.0000
  H   H698      1.0  0.98897  0.20815  0.68868  1.0000
  H   H699      1.0  0.98956  0.30563  0.54198  1.0000
  C   C869      1.0  0.86412  0.20473  0.76030  1.0000
  C   C870      1.0  0.51276  0.11532  0.89520  1.0000
  C   C871      1.0  0.57836  0.05717  0.94977  1.0000
  S   S117      1.0  0.49664  0.16110  0.61935  1.0000
  C   C872      1.0  0.54101  0.14272  0.54636  1.0000
  C   C873      1.0  0.51708  0.11284  0.85455  1.0000
  H   H700      1.0  0.93312  0.27317  0.74085  1.0000
  H   H701      1.0  0.61463  0.00747  0.90109  1.0000
  Fe  Fe60      1.0  0.59784  0.00688  0.75331  1.0000
  H   H702      1.0  0.57000  0.12497  0.57401  1.0000
  H   H703      1.0  0.59091  0.16253  0.58854  1.0000
  C   C874      1.0  0.82521  0.10742  0.49796  1.0000
  C   C875      1.0  0.88356  0.30941  0.74767  1.0000
  H   H704      1.0  0.57352  0.20139  0.57045  1.0000
  H   H705      1.0  0.58808  0.12273  0.75356  1.0000
  H   H706      1.0  0.57346  0.13310  0.68861  1.0000
  H   H707      1.0  0.53151  0.14688  0.68269  1.0000
  H   H708      1.0  0.54020  0.05586  0.85052  1.0000
  H   H709      1.0  0.56066  0.12543  0.81216  1.0000
  H   H710      1.0  0.54205  0.21515  0.85897  1.0000
  H   H711      1.0  0.93725  0.05336  0.53941  1.0000
  C   C876      1.0  0.77948  0.07248  0.50584  1.0000
  C   C877      1.0  0.50577  0.21881  0.56962  1.0000
  C   C878      1.0  0.91910  0.18047  0.66819  1.0000
  H   H712      1.0  0.91396  0.18029  0.73069  1.0000
  H   H713      1.0  0.92112  0.31570  0.73769  1.0000
  C   C879      1.0  0.55020  0.23796  0.53227  1.0000
  C   C880      1.0  0.60052  0.09021  0.97573  1.0000
  H   H714      1.0  0.83235  0.17761  0.83333  1.0000
  C   C881      1.0  0.53240  0.07237  0.86325  1.0000
  C   C882      1.0  0.86519  0.19632  0.84037  1.0000
  H   H715      1.0  0.98845  0.99870  0.57329  1.0000
  C   C883      1.0  0.93298  0.22944  0.78548  1.0000
  C   C884      1.0  0.98899  0.06775  0.56594  1.0000
  H   H716      1.0  0.88142  0.01262  0.52156  1.0000
  C   C885      1.0  0.61065  0.07410  0.91062  1.0000
  C   C886      1.0  0.59245  0.05756  0.91496  1.0000
  C   C887      1.0  0.57207  0.23523  0.51068  1.0000
  H   H717      1.0  0.57644  0.21872  0.49447  1.0000
  C   C888      1.0  0.75455  0.05655  0.55876  1.0000
  C   C889      1.0  0.86640  0.05595  0.49338  1.0000
  H   H718      1.0  0.96538  0.29127  0.92505  1.0000
  H   H719      1.0  0.53147  0.12634  0.54141  1.0000
  C   C890      1.0  0.95183  0.21292  0.77664  1.0000
  C   C891      1.0  0.98261  0.21960  0.66618  1.0000
  C   C892      1.0  0.52984  0.13660  0.78049  1.0000
  C   C893      1.0  0.57443  0.16317  0.57321  1.0000
  H   H720      1.0  0.53804  0.01896  0.89408  1.0000
  C   C894      1.0  0.51206  0.22248  0.60853  1.0000
  C   C895      1.0  0.52705  0.09122  0.83885  1.0000
  C   C896      1.0  0.52743  0.20297  0.86341  1.0000
  C   C897      1.0  0.97480  0.29842  0.94941  1.0000
  C   C898      1.0  0.75793  0.07284  0.52868  1.0000
  H   H721      1.0  0.57569  0.00456  0.85939  1.0000
  C   C899      1.0  0.61472  0.09040  0.94101  1.0000
  C   C900      1.0  0.56269  0.14197  0.56496  1.0000
  H   H722      1.0  0.98960  0.22890  0.84740  1.0000
  H   H723      1.0  0.55634  0.29525  0.56597  1.0000
  C   C901      1.0  0.52764  0.07488  0.90358  1.0000
  C   C902      1.0  0.72472  0.00013  0.57764  1.0000
  H   H724      1.0  0.62186  0.07401  0.88389  1.0000
  Fe  Fe61      1.0  0.99139  0.31877  0.83113  1.0000
  H   H725      1.0  0.80652  0.02433  0.54588  1.0000
  H   H726      1.0  0.74349  0.08521  0.52287  1.0000
  C   C903      1.0  0.56455  0.18515  0.56265  1.0000
  P   P31       1.0  0.52903  0.21414  0.53167  1.0000
  H   H727      1.0  0.85921  0.25516  0.76318  1.0000
  C   C904      1.0  0.97307  0.03215  0.59531  1.0000
  C   C905      1.0  0.97366  0.22877  0.83061  1.0000
  C   C906      1.0  0.53111  0.16465  0.53577  1.0000
  H   H728      1.0  0.53067  0.22331  0.61566  1.0000
  H   H729      1.0  0.52729  0.26279  0.56719  1.0000
  C   C907      1.0  0.87292  0.26808  0.75724  1.0000
  H   H730      1.0  0.50364  0.14881  0.74035  1.0000
  S   S118      1.0  0.67335  0.00784  0.66676  1.0000
  S   S119      1.0  0.91755  0.10656  0.50578  1.0000
  H   H731      1.0  0.54285  0.17632  0.82325  1.0000
  C   C908      1.0  0.75944  0.13019  0.50263  1.0000
  C   C909      1.0  0.91722  0.21920  0.63851  1.0000
  H   H732      1.0  0.53132  0.06017  0.92243  1.0000
  H   H733      1.0  0.95624  0.25768  0.86419  1.0000
  C   C910      1.0  0.49435  0.22421  0.63874  1.0000
  H   H734      1.0  0.56506  0.04356  0.95301  1.0000
  H   H735      1.0  0.85739  0.11986  0.52347  1.0000
  C   C911      1.0  0.74363  0.14993  0.50515  1.0000
  C   C912      1.0  0.70502  0.00830  0.60217  1.0000
  C   C913      1.0  0.54314  0.28594  0.98379  1.0000
  H   H736      1.0  0.62909  0.10299  0.93783  1.0000
  H   H737      1.0  0.60501  0.01749  0.97149  1.0000
  H   H738      1.0  0.60529  0.25157  0.49321  1.0000
  H   H739      1.0  0.76925  0.12540  0.52797  1.0000
  H   H740      1.0  0.51383  0.16509  0.52275  1.0000
  C   C914      1.0  0.51799  0.09637  0.91955  1.0000
  C   C915      1.0  0.91770  0.32218  0.60209  1.0000
  H   H741      1.0  0.95149  0.31780  0.62844  1.0000
  C   C916      1.0  0.54473  0.00102  0.89864  1.0000
  H   H742      1.0  0.81813  0.10054  0.52529  1.0000
  H   H743      1.0  0.51422  0.09829  0.95079  1.0000
  H   H744      1.0  0.49922  0.22634  0.66890  1.0000
  C   C917      1.0  0.56842  0.32031  0.97822  1.0000
  C   C918      1.0  0.62266  0.99719  0.92353  1.0000
  C   C919      1.0  0.58838  0.25383  0.50978  1.0000
  H   H745      1.0  0.81310  0.05347  0.49352  1.0000
  H   H746      1.0  0.49909  0.01778  0.49884  1.0000
  C   C920      1.0  0.85429  0.99915  0.56065  1.0000
  H   H747      1.0  0.53554  0.27012  0.97088  1.0000
  C   C921      1.0  0.50809  0.20951  0.88904  1.0000
  H   H748      1.0  0.98946  0.08709  0.56410  1.0000
  C   C922      1.0  0.87498  0.99698  0.53623  1.0000
  C   C923      1.0  0.98838  0.01792  0.57050  1.0000
  C   C924      1.0  0.92746  0.00046  0.49162  1.0000
  C   C925      1.0  0.84733  0.11861  0.49722  1.0000
  H   H749      1.0  0.69680  0.99209  0.51450  1.0000
  H   H750      1.0  0.51596  0.99228  0.93939  1.0000
  C   C926      1.0  0.56587  0.99290  0.87896  1.0000
  C   C927      1.0  0.92332  0.38079  0.44343  1.0000
  C   C928      1.0  0.85092  0.41971  0.47529  1.0000
  H   H751      1.0  0.83816  0.53188  0.12239  1.0000
  H   H752      1.0  0.90664  0.37160  0.44808  1.0000
  S   S120      1.0  0.70378  0.49517  0.03202  1.0000
  H   H753      1.0  0.69700  0.45564  0.08724  1.0000
  H   H754      1.0  0.80455  0.52720  0.07858  1.0000
  Fe  Fe62      1.0  0.82063  0.48500  0.29048  1.0000
  S   S121      1.0  0.85236  0.49727  0.25360  1.0000
  S   S122      1.0  0.83235  0.48455  0.35490  1.0000
  Fe  Fe63      1.0  0.79123  0.47876  0.21529  1.0000
  S   S123      1.0  0.82131  0.49053  0.17536  1.0000
  S   S124      1.0  0.75683  0.46574  0.18779  1.0000
  Fe  Fe64      1.0  0.84496  0.46767  0.21103  1.0000
  S   S125      1.0  0.87634  0.44942  0.17719  1.0000
  Fe  Fe65      1.0  0.82648  0.51914  0.22076  1.0000
  S   S126      1.0  0.83369  0.55675  0.20053  1.0000
  S   S127      1.0  0.81487  0.45352  0.24895  1.0000
  S   S128      1.0  0.79478  0.50920  0.25961  1.0000
  C   C929      1.0  0.53682  0.49453  0.99631  1.0000
  S   S129      1.0  0.91782  0.34865  0.22507  1.0000
  S   S130      1.0  0.97285  0.34488  0.14354  1.0000
  Fe  Fe66      1.0  0.96023  0.61590  0.17658  1.0000
  S   S131      1.0  0.94176  0.58504  0.20556  1.0000
  H   H755      1.0  0.93011  0.34880  0.35448  1.0000
  C   C930      1.0  0.92807  0.46844  0.22647  1.0000
  C   C931      1.0  0.90340  0.46648  0.40138  1.0000
  C   C932      1.0  0.82147  0.48201  0.40493  1.0000
  C   C933      1.0  0.79732  0.47893  0.41584  1.0000
  C   C934      1.0  0.83802  0.48267  0.43477  1.0000
  H   H756      1.0  0.78425  0.47835  0.39357  1.0000
  H   H757      1.0  0.85664  0.48521  0.42699  1.0000
  C   C935      1.0  0.86402  0.56431  0.19572  1.0000
  C   C936      1.0  0.88184  0.54703  0.20094  1.0000
  C   C937      1.0  0.90578  0.55357  0.20178  1.0000
  C   C938      1.0  0.91226  0.57731  0.19638  1.0000
  C   C939      1.0  0.89472  0.59445  0.18833  1.0000
  C   C940      1.0  0.87053  0.58795  0.18819  1.0000
  H   H758      1.0  0.87713  0.52870  0.20543  1.0000
  H   H759      1.0  0.91922  0.54023  0.20757  1.0000
  H   H760      1.0  0.89965  0.61283  0.18402  1.0000
  H   H761      1.0  0.85681  0.60136  0.18354  1.0000
  C   C941      1.0  0.88654  0.42049  0.18850  1.0000
  C   C942      1.0  0.90814  0.41162  0.17078  1.0000
  C   C943      1.0  0.91778  0.38937  0.18103  1.0000
  C   C944      1.0  0.90535  0.37546  0.20820  1.0000
  C   C945      1.0  0.88319  0.38383  0.22457  1.0000
  C   C946      1.0  0.87393  0.40645  0.21519  1.0000
  H   H762      1.0  0.91759  0.42224  0.14957  1.0000
  H   H763      1.0  0.93489  0.38313  0.16829  1.0000
  H   H764      1.0  0.87329  0.37280  0.24479  1.0000
  H   H765      1.0  0.85700  0.41297  0.22826  1.0000
  H   H766      1.0  0.94871  0.52159  0.37295  1.0000
  C   C947      1.0  0.88087  0.41347  0.38879  1.0000
  H   H767      1.0  0.91744  0.42521  0.32614  1.0000
  C   C948      1.0  0.96361  0.50982  0.37920  1.0000
  C   C949      1.0  0.57501  0.62911  0.23620  1.0000
  C   C950      1.0  0.91731  0.34640  0.05016  1.0000
  S   S132      1.0  0.98487  0.60559  0.12546  1.0000
  H   H768      1.0  0.94547  0.43587  0.42436  1.0000
  C   C951      1.0  0.95795  0.55795  0.06830  1.0000
  C   C952      1.0  0.71819  0.48648  0.07543  1.0000
  C   C953      1.0  0.73718  0.50024  0.08871  1.0000
  C   C954      1.0  0.74932  0.49412  0.12259  1.0000
  C   C955      1.0  0.74256  0.47414  0.14408  1.0000
  C   C956      1.0  0.72354  0.46043  0.13085  1.0000
  C   C957      1.0  0.71151  0.46645  0.09680  1.0000
  H   H769      1.0  0.74246  0.51588  0.07282  1.0000
  H   H770      1.0  0.76372  0.50502  0.13235  1.0000
  H   H771      1.0  0.71802  0.44500  0.14714  1.0000
  C   C958      1.0  0.54672  0.51480  0.05688  1.0000
  H   H772      1.0  0.90310  0.38184  0.37491  1.0000
  H   H773      1.0  0.84282  0.40175  0.06911  1.0000
  H   H774      1.0  0.80525  0.54756  0.01505  1.0000
  H   H775      1.0  0.95968  0.40952  0.09897  1.0000
  H   H776      1.0  0.85796  0.64620  0.22800  1.0000
  S   S133      1.0  0.60095  0.42727  0.98995  1.0000
  C   C959      1.0  0.87987  0.57265  0.37835  1.0000
  C   C960      1.0  0.87492  0.55740  0.34695  1.0000
  C   C961      1.0  0.88335  0.56272  0.30919  1.0000
  C   C962      1.0  0.89664  0.58327  0.30279  1.0000
  C   C963      1.0  0.92967  0.56595  0.01851  1.0000
  H   H777      1.0  0.88939  0.51199  0.05775  1.0000
  S   S134      1.0  0.96150  0.63366  0.03601  1.0000
  C   C964      1.0  0.97085  0.49136  0.35275  1.0000
  H   H778      1.0  0.77120  0.47461  0.46364  1.0000
  C   C965      1.0  0.94351  0.50029  0.09558  1.0000
  H   H779      1.0  0.87298  0.56869  0.40753  1.0000
  H   H780      1.0  0.97034  0.52782  0.43377  1.0000
  H   H781      1.0  0.86415  0.54171  0.35169  1.0000
  H   H782      1.0  0.87908  0.55120  0.28467  1.0000
  C   C966      1.0  0.87588  0.64913  0.23750  1.0000
  P   P32       1.0  0.89503  0.42170  0.43356  1.0000
  H   H783      1.0  0.89991  0.45012  0.08686  1.0000
  C   C967      1.0  0.55989  0.57060  0.00934  1.0000
  H   H784      1.0  0.85626  0.44388  0.39161  1.0000
  H   H785      1.0  0.55506  0.56941  0.04016  1.0000
  C   C968      1.0  0.94819  0.34180  0.35081  1.0000
  H   H786      1.0  0.96231  0.49905  0.08654  1.0000
  H   H787      1.0  0.49799  0.39864  0.04744  1.0000
  H   H788      1.0  0.62013  0.33850  0.11681  1.0000
  C   C969      1.0  0.87755  0.61256  0.06293  1.0000
  H   H789      1.0  0.96134  0.48889  0.32625  1.0000
  C   C970      1.0  0.80658  0.47721  0.48556  1.0000
  C   C971      1.0  0.92234  0.65624  0.26141  1.0000
  C   C972      1.0  0.95352  0.38114  0.02477  1.0000
  C   C973      1.0  0.90154  0.59885  0.33402  1.0000
  C   C974      1.0  0.95243  0.55832  0.02896  1.0000
  H   H790      1.0  0.95663  0.52098  0.23996  1.0000
  C   C975      1.0  0.87063  0.33931  0.40141  1.0000
  H   H791      1.0  0.72242  0.55144  0.01492  1.0000
  H   H792      1.0  0.92675  0.45349  0.20611  1.0000
  H   H793      1.0  0.61020  0.37400  0.15968  1.0000
  C   C976      1.0  0.55624  0.64211  0.22055  1.0000
  C   C977      1.0  0.91277  0.48947  0.28519  1.0000
  H   H794      1.0  0.94498  0.58344  0.29254  1.0000
  C   C978      1.0  0.85860  0.55372  0.08266  1.0000
  H   H795      1.0  0.96375  0.35207  0.06181  1.0000
  H   H796      1.0  0.89978  0.49091  0.30966  1.0000
  H   H797      1.0  0.90539  0.57957  0.10967  1.0000
  H   H798      1.0  0.52021  0.61321  0.18917  1.0000
  C   C979      1.0  0.77866  0.48154  0.00808  1.0000
  P   P33       1.0  0.91784  0.62600  0.32479  1.0000
  C   C980      1.0  0.90196  0.39524  0.04063  1.0000
  H   H799      1.0  0.98345  0.41301  0.42672  1.0000
  C   C981      1.0  0.85027  0.63941  0.10110  1.0000
  C   C982      1.0  0.55941  0.33931  0.11113  1.0000
  H   H800      1.0  0.83961  0.60672  0.07406  1.0000
  S   S135      1.0  0.63263  0.48828  0.00456  1.0000
  C   C983      1.0  0.85445  0.61836  0.07873  1.0000
  C   C984      1.0  0.85940  0.56516  0.04653  1.0000
  Fe  Fe67      1.0  0.67279  0.48370  0.99341  1.0000
  H   H801      1.0  0.91430  0.36684  0.10480  1.0000
  C   C985      1.0  0.91385  0.34928  0.09092  1.0000
  C   C986      1.0  0.96198  0.40076  0.00380  1.0000
  C   C987      1.0  0.91803  0.57298  0.08686  1.0000
  H   H802      1.0  0.89628  0.60505  0.39660  1.0000
  C   C988      1.0  0.87566  0.41479  0.47543  1.0000
  H   H803      1.0  0.90783  0.52248  0.44122  1.0000
  C   C989      1.0  0.78998  0.47673  0.45578  1.0000
  C   C990      1.0  0.94948  0.61898  0.31733  1.0000
  C   C991      1.0  0.87760  0.38989  0.04554  1.0000
  C   C992      1.0  0.96904  0.45797  0.15802  1.0000
  C   C993      1.0  0.51431  0.36622  0.06733  1.0000
  H   H804      1.0  0.56853  0.34387  0.02837  1.0000
  C   C994      1.0  0.78958  0.47446  0.04197  1.0000
  C   C995      1.0  0.91011  0.32943  0.11428  1.0000
  H   H805      1.0  0.84272  0.42652  0.44974  1.0000
  H   H806      1.0  0.94429  0.45055  0.11259  1.0000
  H   H807      1.0  0.96079  0.65381  0.33761  1.0000
  H   H808      1.0  0.57726  0.50041  0.08534  1.0000
  S   S136      1.0  0.98540  0.33415  0.23398  1.0000
  H   H809      1.0  0.93259  0.50903  0.03799  1.0000
  C   C996      1.0  0.53216  0.51268  0.02494  1.0000
  C   C997      1.0  0.95749  0.59676  0.30123  1.0000
  C   C998      1.0  0.81992  0.53753  0.06934  1.0000
  H   H810      1.0  0.89982  0.45562  0.26465  1.0000
  H   H811      1.0  0.56782  0.38689  0.17270  1.0000
  C   C999      1.0  0.93502  0.42414  0.31163  1.0000
  C   C1000     1.0  0.94340  0.48733  0.21773  1.0000
  Fe  Fe68      1.0  0.49652  0.63363  0.99158  1.0000
  C   C1001     1.0  0.54151  0.65718  0.08016  1.0000
  C   C1002     1.0  0.93885  0.40950  0.27831  1.0000
  H   H812      1.0  0.90782  0.33172  0.14576  1.0000
  C   C1003     1.0  0.91270  0.46960  0.25981  1.0000
  C   C1004     1.0  0.92891  0.50776  0.27799  1.0000
  H   H813      1.0  0.90500  0.49520  0.17509  1.0000
  C   C1005     1.0  0.88848  0.39308  0.36638  1.0000
  C   C1006     1.0  0.87728  0.38706  0.33193  1.0000
  C   C1007     1.0  0.85826  0.40120  0.31974  1.0000
  C   C1008     1.0  0.85087  0.42166  0.34140  1.0000
  C   C1009     1.0  0.86218  0.42783  0.37558  1.0000
  S   S137      1.0  0.98840  0.63405  0.21042  1.0000
  C   C1010     1.0  0.90303  0.49045  0.47405  1.0000
  H   H814      1.0  0.55938  0.40165  0.01680  1.0000
  H   H815      1.0  0.88331  0.37141  0.31456  1.0000
  H   H816      1.0  0.84922  0.39642  0.29348  1.0000
  H   H817      1.0  0.83629  0.43286  0.33172  1.0000
  H   H818      1.0  0.94511  0.56530  0.12758  1.0000
  H   H819      1.0  0.95038  0.44826  0.35215  1.0000
  C   C1011     1.0  0.98007  0.42173  0.27278  1.0000
  C   C1012     1.0  0.55570  0.47805  0.00103  1.0000
  H   H820      1.0  0.53227  0.37288  0.06325  1.0000
  H   H821      1.0  0.87120  0.37273  0.03570  1.0000
  H   H822      1.0  0.60709  0.61427  0.15195  1.0000
  H   H823      1.0  0.92855  0.42170  0.05315  1.0000
  C   C1013     1.0  0.95370  0.43753  0.32577  1.0000
  C   C1014     1.0  0.98554  0.40811  0.00719  1.0000
  C   C1015     1.0  0.89309  0.59332  0.37197  1.0000
  C   C1016     1.0  0.55385  0.35899  0.13635  1.0000
  H   H824      1.0  0.53751  0.63839  0.08293  1.0000
  C   C1017     1.0  0.89483  0.50372  0.11779  1.0000
  C   C1018     1.0  0.97627  0.43685  0.30591  1.0000
  H   H825      1.0  0.97572  0.55262  0.07651  1.0000
  H   H826      1.0  0.90309  0.45766  0.37297  1.0000
  H   H827      1.0  0.57430  0.63705  0.12408  1.0000
  C   C1019     1.0  0.83986  0.56299  0.02234  1.0000
  C   C1020     1.0  0.96612  0.35694  0.33700  1.0000
  C   C1021     1.0  0.98953  0.34810  0.33005  1.0000
  C   C1022     1.0  0.92672  0.50583  0.06795  1.0000
  C   C1023     1.0  0.89991  0.45355  0.43580  1.0000
  C   C1024     1.0  0.94069  0.56511  0.09717  1.0000
  C   C1025     1.0  0.96138  0.40816  0.25897  1.0000
  C   C1026     1.0  0.60162  0.34420  0.12228  1.0000
  H   H828      1.0  0.75946  0.47961  0.00632  1.0000
  C   C1027     1.0  0.90630  0.49126  0.40341  1.0000
  C   C1028     1.0  0.91154  0.49814  0.14544  1.0000
  C   C1029     1.0  0.82038  0.54900  0.03353  1.0000
  C   C1030     1.0  0.90989  0.41726  0.05521  1.0000
  P   P34       1.0  0.95795  0.48794  0.16934  1.0000
  C   C1031     1.0  0.96666  0.40397  0.43112  1.0000
  C   C1032     1.0  0.57423  0.63518  0.15542  1.0000
  C   C1033     1.0  0.91220  0.57332  0.04743  1.0000
  C   C1034     1.0  0.88975  0.32731  0.38107  1.0000
  C   C1035     1.0  0.86956  0.42797  0.07918  1.0000
  H   H829      1.0  0.85754  0.34928  0.38555  1.0000
  C   C1036     1.0  0.81427  0.47640  0.04483  1.0000
  H   H830      1.0  0.93759  0.62787  0.40239  1.0000
  H   H831      1.0  0.96432  0.39650  0.23331  1.0000
  C   C1037     1.0  0.57214  0.37148  0.15373  1.0000
  H   H832      1.0  0.77881  0.46733  0.06601  1.0000
  C   C1038     1.0  0.59337  0.61915  0.21151  1.0000
  H   H833      1.0  0.85725  0.44021  0.09537  1.0000
  C   C1039     1.0  0.86148  0.40623  0.06458  1.0000
  H   H834      1.0  0.96167  0.37524  0.33015  1.0000
  C   C1040     1.0  0.98654  0.41136  0.14161  1.0000
  H   H835      1.0  0.92438  0.39903  0.26768  1.0000
  C   C1041     1.0  0.96773  0.42060  0.12083  1.0000
  H   H836      1.0  0.99194  0.42334  0.99112  1.0000
  C   C1042     1.0  0.98756  0.44835  0.17946  1.0000
  S   S138      1.0  0.52553  0.60688  0.01063  1.0000
  C   C1043     1.0  0.56576  0.49863  0.06089  1.0000
  C   C1044     1.0  0.50565  0.61933  0.17200  1.0000
  H   H837      1.0  0.98795  0.57496  0.28096  1.0000
  C   C1045     1.0  0.96935  0.36812  0.04724  1.0000
  C   C1046     1.0  0.59294  0.62215  0.17116  1.0000
  C   C1047     1.0  0.96662  0.37943  0.43802  1.0000
  H   H838      1.0  0.84735  0.48613  0.01547  1.0000
  C   C1048     1.0  0.95908  0.44390  0.12874  1.0000
  C   C1049     1.0  0.94459  0.50646  0.24486  1.0000
  C   C1050     1.0  0.57832  0.55542  0.99245  1.0000
  H   H839      1.0  0.82258  0.47101  0.07132  1.0000
  C   C1051     1.0  0.98198  0.59182  0.29464  1.0000
  H   H840      1.0  0.51745  0.52535  0.02289  1.0000
  C   C1052     1.0  0.89200  0.64928  0.09191  1.0000
  C   C1053     1.0  0.86806  0.33804  0.44207  1.0000
  C   C1054     1.0  0.94495  0.36786  0.44427  1.0000
  H   H841      1.0  0.87260  0.55596  0.10304  1.0000
  C   C1055     1.0  0.90239  0.50758  0.07906  1.0000
  C   C1056     1.0  0.57007  0.48015  0.03321  1.0000
  P   P35       1.0  0.92285  0.37236  0.02094  1.0000
  H   H842      1.0  0.96059  0.53957  0.18318  1.0000
  H   H843      1.0  0.54339  0.52919  0.07828  1.0000
  Fe  Fe69      1.0  0.97402  0.64021  0.09876  1.0000
  C   C1057     1.0  0.89370  0.43354  0.07433  1.0000
  C   C1058     1.0  0.58338  0.33167  0.10489  1.0000
  C   C1059     1.0  0.96642  0.63622  0.32638  1.0000
  C   C1060     1.0  0.83898  0.53997  0.09389  1.0000
  C   C1061     1.0  0.94504  0.41691  0.42991  1.0000
  C   C1062     1.0  0.93605  0.49627  0.13455  1.0000
  H   H844      1.0  0.58474  0.46752  0.03651  1.0000
  C   C1063     1.0  0.83079  0.47991  0.47455  1.0000
  H   H845      1.0  0.57526  0.62667  0.26747  1.0000
  H   H846      1.0  0.92877  0.52338  0.29732  1.0000
  H   H847      1.0  0.87598  0.50490  0.12667  1.0000
  C   C1064     1.0  0.89628  0.62813  0.06997  1.0000
  H   H848      1.0  0.96595  0.55329  0.00647  1.0000
  H   H849      1.0  0.87220  0.62498  0.28486  1.0000
  H   H850      1.0  0.55046  0.65321  0.01852  1.0000
  Fe  Fe70      1.0  0.95297  0.33373  0.19809  1.0000
  C   C1065     1.0  0.50622  0.64172  0.15427  1.0000
  C   C1066     1.0  0.82815  0.48505  0.01344  1.0000
  C   C1067     1.0  0.99063  0.47650  0.35991  1.0000
  C   C1068     1.0  0.91401  0.64727  0.36536  1.0000
  H   H851      1.0  0.90795  0.50131  0.37685  1.0000
  H   H852      1.0  0.98337  0.36934  0.43851  1.0000
  H   H853      1.0  0.90274  0.58731  0.27330  1.0000
  C   C1069     1.0  0.92318  0.40537  0.43591  1.0000
  C   C1070     1.0  0.88419  0.63684  0.26947  1.0000
  C   C1071     1.0  0.90769  0.63995  0.28125  1.0000
  C   C1072     1.0  0.97585  0.51340  0.41339  1.0000
  H   H854      1.0  0.60789  0.60902  0.22360  1.0000
  H   H855      1.0  0.58749  0.54278  0.01027  1.0000
  H   H856      1.0  0.54198  0.64946  0.24004  1.0000
  P   P36       1.0  0.88342  0.58532  0.03424  1.0000
  C   C1073     1.0  0.97801  0.53307  0.17239  1.0000
  C   C1074     1.0  0.90610  0.50323  0.43969  1.0000
  C   C1075     1.0  0.86902  0.65491  0.10755  1.0000
  C   C1076     1.0  0.98204  0.50878  0.16298  1.0000
  H   H857      1.0  0.83917  0.57274  0.99549  1.0000
  C   C1077     1.0  0.51061  0.34288  0.08026  1.0000
  H   H858      1.0  0.89405  0.62904  0.99023  1.0000
  H   H859      1.0  0.91422  0.62401  0.05823  1.0000
  H   H860      1.0  0.94490  0.34882  0.44945  1.0000
  H   H861      1.0  0.53544  0.36477  0.14247  1.0000
  C   C1078     1.0  0.92646  0.64376  0.39952  1.0000
  C   C1079     1.0  0.55582  0.64547  0.18005  1.0000
  C   C1080     1.0  0.89997  0.46571  0.47217  1.0000
  H   H862      1.0  0.83246  0.64371  0.11337  1.0000
  C   C1081     1.0  0.59602  0.36419  0.14650  1.0000
  C   C1082     1.0  0.49490  0.38085  0.05812  1.0000
  H   H863      1.0  0.85306  0.34713  0.45773  1.0000
  S   S139      1.0  0.94712  0.64931  0.14876  1.0000
  H   H864      1.0  0.75729  0.52446  0.00426  1.0000
  C   C1083     1.0  0.99088  0.63121  0.31988  1.0000
  H   H865      1.0  0.89121  0.32807  0.34941  1.0000
  C   C1084     1.0  0.56174  0.32733  0.01670  1.0000
  Fe  Fe71      1.0  0.66771  0.46947  0.90659  1.0000
  S   S140      1.0  0.67228  0.50471  0.93758  1.0000
  S   S141      1.0  0.68754  0.45513  0.84987  1.0000
  Fe  Fe72      1.0  0.63196  0.50681  0.94705  1.0000
  S   S142      1.0  0.60992  0.54011  0.93045  1.0000
  S   S143      1.0  0.62728  0.47289  0.91144  1.0000
  C   C1085     1.0  0.78183  0.45413  0.89479  1.0000
  H   H866      1.0  0.95060  0.39533  0.70591  1.0000
  S   S144      1.0  0.97736  0.32638  0.71970  1.0000
  Fe  Fe73      1.0  0.80096  0.47540  0.68739  1.0000
  S   S145      1.0  0.83942  0.46665  0.70040  1.0000
  S   S146      1.0  0.77550  0.48941  0.73865  1.0000
  Fe  Fe74      1.0  0.81247  0.47253  0.59645  1.0000
  S   S147      1.0  0.85111  0.46388  0.60472  1.0000
  S   S148      1.0  0.79599  0.47471  0.53568  1.0000
  Fe  Fe75      1.0  0.83839  0.43912  0.65164  1.0000
  S   S149      1.0  0.85626  0.40208  0.64830  1.0000
  Fe  Fe76      1.0  0.84915  0.49205  0.65282  1.0000
  S   S150      1.0  0.88121  0.51612  0.65363  1.0000
  S   S151      1.0  0.79922  0.44590  0.64114  1.0000
  S   S152      1.0  0.81115  0.50266  0.64185  1.0000
  C   C1086     1.0  0.88931  0.64171  0.64536  1.0000
  H   H867      1.0  0.89920  0.63649  0.91997  1.0000
  Fe  Fe77      1.0  0.95706  0.34086  0.77364  1.0000
  S   S153      1.0  0.92519  0.36669  0.77884  1.0000
  C   C1087     1.0  0.94829  0.56334  0.85468  1.0000
  C   C1088     1.0  0.95364  0.34300  0.58132  1.0000
  Fe  Fe78      1.0  0.93063  0.62208  0.76390  1.0000
  S   S154      1.0  0.89667  0.60114  0.77535  1.0000
  C   C1089     1.0  0.88537  0.53822  0.69020  1.0000
  C   C1090     1.0  0.86740  0.54495  0.71842  1.0000
  C   C1091     1.0  0.87127  0.56377  0.74539  1.0000
  C   C1092     1.0  0.89299  0.57595  0.74417  1.0000
  C   C1093     1.0  0.91117  0.56850  0.71697  1.0000
  C   C1094     1.0  0.90729  0.54992  0.68992  1.0000
  H   H868      1.0  0.85043  0.53603  0.71886  1.0000
  H   H869      1.0  0.85720  0.56936  0.76649  1.0000
  H   H870      1.0  0.92821  0.57718  0.71642  1.0000
  H   H871      1.0  0.92135  0.54467  0.66847  1.0000
  C   C1095     1.0  0.90725  0.37679  0.74106  1.0000
  C   C1096     1.0  0.90739  0.36525  0.70433  1.0000
  C   C1097     1.0  0.89182  0.37329  0.67599  1.0000
  C   C1098     1.0  0.87638  0.39317  0.68385  1.0000
  C   C1099     1.0  0.87672  0.40502  0.72019  1.0000
  C   C1100     1.0  0.89192  0.39670  0.74875  1.0000
  H   H872      1.0  0.91918  0.34998  0.69795  1.0000
  H   H873      1.0  0.89162  0.36405  0.64795  1.0000
  H   H874      1.0  0.86486  0.42026  0.72664  1.0000
  H   H875      1.0  0.89169  0.40573  0.77704  1.0000
  H   H876      1.0  0.71010  0.54855  0.89207  1.0000
  C   C1101     1.0  0.93734  0.35197  0.94877  1.0000
  Fe  Fe79      1.0  0.50322  0.32809  0.92532  1.0000
  H   H877      1.0  0.83808  0.54309  0.81773  1.0000
  H   H878      1.0  0.78517  0.49151  0.84675  1.0000
  H   H879      1.0  0.72123  0.51241  0.72764  1.0000
  C   C1102     1.0  0.98840  0.40058  0.69671  1.0000
  C   C1103     1.0  0.85258  0.53950  0.57533  1.0000
  H   H880      1.0  0.52946  0.44421  0.91662  1.0000
  H   H881      1.0  0.77517  0.63537  0.53618  1.0000
  P   P37       1.0  0.98451  0.34978  0.58912  1.0000
  C   C1104     1.0  0.58537  0.55723  0.95289  1.0000
  S   S155      1.0  0.96317  0.61208  0.79592  1.0000
  C   C1105     1.0  0.58228  0.40675  0.96543  1.0000
  C   C1106     1.0  0.55443  0.58878  0.94709  1.0000
  C   C1107     1.0  0.57312  0.57388  0.93034  1.0000
  H   H882      1.0  0.54545  0.60162  0.92936  1.0000
  H   H883      1.0  0.57832  0.57546  0.89972  1.0000
  C   C1108     1.0  0.71291  0.46454  0.82084  1.0000
  C   C1109     1.0  0.72257  0.48724  0.82528  1.0000
  C   C1110     1.0  0.74202  0.49423  0.80053  1.0000
  C   C1111     1.0  0.75219  0.47865  0.77097  1.0000
  C   C1112     1.0  0.74272  0.45582  0.76689  1.0000
  C   C1113     1.0  0.72315  0.44891  0.79148  1.0000
  H   H884      1.0  0.71465  0.49954  0.84725  1.0000
  H   H885      1.0  0.74896  0.51201  0.80382  1.0000
  H   H886      1.0  0.75010  0.44365  0.74423  1.0000
  H   H887      1.0  0.71582  0.43134  0.78758  1.0000
  C   C1114     1.0  0.81160  0.53156  0.90681  1.0000
  H   H888      1.0  0.91459  0.35204  0.85836  1.0000
  H   H889      1.0  0.93170  0.56722  0.87128  1.0000
  C   C1115     1.0  0.89122  0.60049  0.90211  1.0000
  H   H890      1.0  0.53356  0.37178  0.98505  1.0000
  C   C1116     1.0  0.85053  0.63533  0.61853  1.0000
  Fe  Fe80      1.0  0.96898  0.65133  0.80197  1.0000
  C   C1117     1.0  0.96503  0.37566  0.65487  1.0000
  H   H891      1.0  0.94777  0.36869  0.64839  1.0000
  H   H892      1.0  0.95187  0.62975  0.89354  1.0000
  S   S156      1.0  0.95005  0.62200  0.70546  1.0000
  H   H893      1.0  0.57808  0.47000  0.62450  1.0000
  C   C1118     1.0  0.77660  0.63268  0.56723  1.0000
  P   P38       1.0  0.82150  0.59646  0.63751  1.0000
  C   C1119     1.0  0.81370  0.58598  0.68592  1.0000
  C   C1120     1.0  0.58665  0.39982  0.92621  1.0000
  H   H894      1.0  0.86417  0.56634  0.61518  1.0000
  C   C1121     1.0  0.95677  0.63157  0.95606  1.0000
  C   C1122     1.0  0.80244  0.56400  0.69075  1.0000
  C   C1123     1.0  0.79600  0.55615  0.72818  1.0000
  C   C1124     1.0  0.80055  0.57026  0.76106  1.0000
  C   C1125     1.0  0.81166  0.59223  0.75655  1.0000
  C   C1126     1.0  0.81821  0.60009  0.71915  1.0000
  H   H895      1.0  0.96877  0.54516  0.76353  1.0000
  H   H896      1.0  0.87889  0.55518  0.96381  1.0000
  H   H897      1.0  0.79860  0.55280  0.66578  1.0000
  H   H898      1.0  0.78755  0.53902  0.73164  1.0000
  H   H899      1.0  0.79551  0.56411  0.78998  1.0000
  H   H900      1.0  0.81552  0.60306  0.78204  1.0000
  H   H901      1.0  0.82686  0.61715  0.71629  1.0000
  S   S157      1.0  0.53554  0.35048  0.90531  1.0000
  C   C1127     1.0  0.89804  0.36944  0.90993  1.0000
  C   C1128     1.0  0.91591  0.35578  0.88940  1.0000
  H   H902      1.0  0.88291  0.37627  0.89461  1.0000
  Fe  Fe81      1.0  0.62934  0.45399  0.96837  1.0000
  H   H903      1.0  0.78119  0.62289  0.67845  1.0000
  C   C1129     1.0  0.74894  0.42723  0.88756  1.0000
  C   C1130     1.0  0.84828  0.61397  0.63912  1.0000
  C   C1131     1.0  0.94776  0.55487  0.81603  1.0000
  C   C1132     1.0  0.50492  0.46247  0.95903  1.0000
  H   H904      1.0  0.81115  0.53818  0.93681  1.0000
  C   C1133     1.0  0.79729  0.61486  0.62067  1.0000
  P   P39       1.0  0.77781  0.49877  0.93260  1.0000
  C   C1134     1.0  0.76636  0.47095  0.91457  1.0000
  H   H905      1.0  0.81741  0.42152  0.50920  1.0000
  C   C1135     1.0  0.51411  0.44261  0.93676  1.0000
  C   C1136     1.0  0.96915  0.55080  0.79400  1.0000
  H   H906      1.0  0.86999  0.53059  0.57276  1.0000
  H   H907      1.0  0.83509  0.40741  0.56980  1.0000
  H   H908      1.0  0.74478  0.52076  0.88089  1.0000
  C   C1137     1.0  0.73375  0.44339  0.90883  1.0000
  H   H909      1.0  0.61226  0.49752  0.62062  1.0000
  H   H910      1.0  0.86567  0.59020  0.67834  1.0000
  C   C1138     1.0  0.80711  0.56094  0.58550  1.0000
  C   C1139     1.0  0.74024  0.52763  0.91016  1.0000
  C   C1140     1.0  0.72070  0.54349  0.91635  1.0000
  C   C1141     1.0  0.91644  0.34991  0.54900  1.0000
  C   C1142     1.0  0.97017  0.56780  0.87136  1.0000
  H   H911      1.0  0.51157  0.38119  0.83514  1.0000
  H   H912      1.0  0.83584  0.51367  0.53855  1.0000
  C   C1143     1.0  0.99106  0.55523  0.81055  1.0000
  C   C1144     1.0  0.87102  0.64909  0.62163  1.0000
  C   C1145     1.0  0.59004  0.47128  0.64844  1.0000
  H   H913      1.0  0.88583  0.38516  0.96515  1.0000
  C   C1146     1.0  0.57321  0.50202  0.87324  1.0000
  C   C1147     1.0  0.56275  0.49629  0.83810  1.0000
  C   C1148     1.0  0.53910  0.48877  0.83843  1.0000
  C   C1149     1.0  0.52591  0.48702  0.87394  1.0000
  C   C1150     1.0  0.53641  0.49247  0.90943  1.0000
  C   C1151     1.0  0.56008  0.50033  0.90881  1.0000
  C   C1152     1.0  0.57205  0.38282  0.90835  1.0000
  H   H914      1.0  0.80857  0.61082  0.55946  1.0000
  H   H915      1.0  0.98194  0.63952  0.64064  1.0000
  C   C1153     1.0  0.79545  0.61871  0.58051  1.0000
  P   P40       1.0  0.51846  0.49146  0.95451  1.0000
  H   H916      1.0  0.57591  0.37740  0.87815  1.0000
  C   C1154     1.0  0.84632  0.40909  0.54333  1.0000
  C   C1155     1.0  0.55285  0.37241  0.92937  1.0000
  S   S158      1.0  0.98976  0.35439  0.80193  1.0000
  C   C1156     1.0  0.83337  0.52990  0.55618  1.0000
  C   C1157     1.0  0.49736  0.37067  0.82354  1.0000
  C   C1158     1.0  0.84915  0.55988  0.59953  1.0000
  H   H917      1.0  0.87862  0.39911  0.57099  1.0000
  C   C1159     1.0  0.71433  0.55215  0.95408  1.0000
  H   H918      1.0  0.59145  0.50814  0.87302  1.0000
  H   H919      1.0  0.57293  0.49798  0.81067  1.0000
  H   H920      1.0  0.53086  0.48459  0.81119  1.0000
  H   H921      1.0  0.80062  0.45785  0.88974  1.0000
  C   C1160     1.0  0.82630  0.54258  0.87865  1.0000
  C   C1161     1.0  0.75352  0.52026  0.94166  1.0000
  H   H922      1.0  0.98957  0.41216  0.72234  1.0000
  H   H923      1.0  0.88369  0.56330  0.89315  1.0000
  C   C1162     1.0  0.76136  0.63945  0.63397  1.0000
  H   H924      1.0  0.93078  0.55232  0.80261  1.0000
  H   H925      1.0  0.71513  0.43914  0.91435  1.0000
  H   H926      1.0  0.60172  0.40709  0.91007  1.0000
  H   H927      1.0  0.90639  0.35908  0.52739  1.0000
  C   C1163     1.0  0.81064  0.54059  0.56125  1.0000
  H   H928      1.0  0.89715  0.45631  0.49923  1.0000
  H   H929      1.0  0.96600  0.40833  0.87751  1.0000
  C   C1164     1.0  0.88259  0.57317  0.95461  1.0000
  H   H930      1.0  0.55950  0.46367  0.97972  1.0000
  C   C1165     1.0  0.54789  0.58750  0.98693  1.0000
  H   H931      1.0  0.89377  0.60391  0.87108  1.0000
  H   H932      1.0  0.52039  0.33986  0.81076  1.0000
  H   H933      1.0  0.81152  0.51040  0.79798  1.0000
  H   H934      1.0  0.78917  0.56839  0.59020  1.0000
  C   C1166     1.0  0.74231  0.46524  0.92217  1.0000
  H   H935      1.0  0.79566  0.53249  0.54735  1.0000
  H   H936      1.0  0.94921  0.36709  0.53335  1.0000
  C   C1167     1.0  0.93555  0.34704  0.90883  1.0000
  C   C1168     1.0  0.82645  0.57101  0.60436  1.0000
  H   H937      1.0  0.83653  0.64160  0.60040  1.0000
  H   H938      1.0  0.88592  0.33084  0.57180  1.0000
  H   H939      1.0  0.78483  0.41994  0.86436  1.0000
  H   H940      1.0  0.56845  0.50551  0.93553  1.0000
  H   H941      1.0  0.50745  0.48158  0.87380  1.0000
  C   C1169     1.0  0.89975  0.37438  0.94998  1.0000
  C   C1170     1.0  0.88548  0.57762  0.91461  1.0000
  C   C1171     1.0  0.78017  0.62545  0.64734  1.0000
  C   C1172     1.0  0.94076  0.35445  0.55259  1.0000
  C   C1173     1.0  0.96119  0.63832  0.91685  1.0000
  H   H942      1.0  0.49687  0.57742  0.95201  1.0000
  C   C1174     1.0  0.75954  0.64302  0.59394  1.0000
  H   H943      1.0  0.97975  0.37384  0.91559  1.0000
  C   C1175     1.0  0.50240  0.34735  0.80961  1.0000
  C   C1176     1.0  0.50599  0.53978  0.95226  1.0000
  H   H944      1.0  0.82847  0.49791  0.95501  1.0000
  C   C1177     1.0  0.50392  0.42014  0.94104  1.0000
  C   C1178     1.0  0.60928  0.48677  0.64626  1.0000
  H   H945      1.0  0.95029  0.41039  0.98498  1.0000
  C   C1179     1.0  0.54826  0.37954  0.96852  1.0000
  H   H946      1.0  0.57141  0.44526  0.68306  1.0000
  C   C1180     1.0  0.88558  0.40749  0.51034  1.0000
  C   C1181     1.0  0.79704  0.50522  0.85651  1.0000
  C   C1182     1.0  0.96648  0.39100  0.68749  1.0000
  H   H947      1.0  0.90469  0.40498  0.51227  1.0000
  C   C1183     1.0  0.91942  0.36557  0.96971  1.0000
  C   C1184     1.0  0.81179  0.51619  0.82847  1.0000
  H   H948      1.0  0.97719  0.39781  0.56010  1.0000
  H   H949      1.0  0.83725  0.55742  0.88697  1.0000
  C   C1185     1.0  0.86692  0.60659  0.66236  1.0000
  C   C1186     1.0  0.63869  0.52604  0.83988  1.0000
  C   C1187     1.0  0.62197  0.54307  0.82843  1.0000
  C   C1188     1.0  0.61129  0.54029  0.79258  1.0000
  C   C1189     1.0  0.61728  0.52044  0.76817  1.0000
  C   C1190     1.0  0.63390  0.50311  0.77977  1.0000
  C   C1191     1.0  0.64455  0.50609  0.81580  1.0000
  P   P41       1.0  0.64141  0.47681  0.74971  1.0000
  C   C1192     1.0  0.62112  0.47445  0.71034  1.0000
  C   C1193     1.0  0.67125  0.47851  0.72743  1.0000
  C   C1194     1.0  0.68666  0.49681  0.73802  1.0000
  C   C1195     1.0  0.70917  0.49855  0.71894  1.0000
  C   C1196     1.0  0.71669  0.48187  0.68972  1.0000
  C   C1197     1.0  0.70149  0.46362  0.67898  1.0000
  C   C1198     1.0  0.67878  0.46204  0.69750  1.0000
  C   C1199     1.0  0.62477  0.48837  0.67706  1.0000
  C   C1200     1.0  0.58627  0.45736  0.68145  1.0000
  C   C1201     1.0  0.60173  0.45891  0.71232  1.0000
  C   C1202     1.0  0.63815  0.45130  0.78079  1.0000
  C   C1203     1.0  0.65461  0.43197  0.77805  1.0000
  C   C1204     1.0  0.65170  0.41248  0.80260  1.0000
  C   C1205     1.0  0.63236  0.41214  0.82992  1.0000
  C   C1206     1.0  0.61590  0.43129  0.83273  1.0000
  C   C1207     1.0  0.61885  0.45084  0.80850  1.0000
  H   H950      1.0  0.64678  0.52811  0.86788  1.0000
  H   H951      1.0  0.61711  0.55823  0.84775  1.0000
  H   H952      1.0  0.59825  0.55350  0.78392  1.0000
  H   H953      1.0  0.60871  0.51863  0.74066  1.0000
  H   H954      1.0  0.65732  0.49290  0.82541  1.0000
  H   H955      1.0  0.68157  0.50969  0.76107  1.0000
  H   H956      1.0  0.73452  0.48284  0.67604  1.0000
  H   H957      1.0  0.70745  0.45060  0.65649  1.0000
  H   H958      1.0  0.66713  0.44789  0.68867  1.0000
  H   H959      1.0  0.63961  0.50048  0.67494  1.0000
  H   H960      1.0  0.59850  0.44784  0.73739  1.0000
  H   H961      1.0  0.67019  0.43218  0.75823  1.0000
  H   H962      1.0  0.66490  0.39801  0.80132  1.0000
  H   H963      1.0  0.63043  0.39727  0.84947  1.0000
  H   H964      1.0  0.60112  0.43129  0.85433  1.0000
  H   H965      1.0  0.60619  0.46571  0.81171  1.0000
  C   C1208     1.0  0.79740  0.51229  0.89618  1.0000
  S   S159      1.0  0.66957  0.44811  0.96170  1.0000
  C   C1209     1.0  0.82662  0.53468  0.83958  1.0000
  C   C1210     1.0  0.89413  0.61889  0.92963  1.0000
  Fe  Fe82      1.0  0.98299  0.61423  0.73778  1.0000
  C   C1211     1.0  0.87091  0.40438  0.54392  1.0000
  H   H966      1.0  0.90245  0.49975  0.50224  1.0000
  H   H967      1.0  0.69868  0.56376  0.95916  1.0000
  H   H968      1.0  0.96992  0.57494  0.90090  1.0000
  H   H969      1.0  0.52500  0.54294  0.95359  1.0000
  C   C1212     1.0  0.88721  0.62046  0.66567  1.0000
  H   H970      1.0  0.94414  0.61769  0.96248  1.0000
  H   H971      1.0  0.90117  0.61481  0.68447  1.0000
  C   C1213     1.0  0.89109  0.61456  0.96963  1.0000
  C   C1214     1.0  0.98485  0.40586  0.88271  1.0000
  H   H972      1.0  0.74195  0.41066  0.87636  1.0000
  H   H973      1.0  0.73009  0.47749  0.93851  1.0000
  C   C1215     1.0  0.77303  0.43253  0.88072  1.0000
  H   H974      1.0  0.58021  0.33135  0.96066  1.0000
  H   H975      1.0  0.84397  0.47989  0.49663  1.0000
  S   S160      1.0  0.99149  0.65309  0.74502  1.0000
  H   H976      1.0  0.74488  0.65376  0.58363  1.0000
  H   H977      1.0  0.74814  0.64747  0.65470  1.0000
  C   C1216     1.0  0.98569  0.36949  0.63155  1.0000
  C   C1217     1.0  0.81729  0.49207  0.97936  1.0000
  C   C1218     1.0  0.90489  0.33392  0.57390  1.0000
  C   C1219     1.0  0.83636  0.41688  0.50911  1.0000
  C   C1220     1.0  0.49739  0.51636  0.95240  1.0000
  C   C1221     1.0  0.79233  0.49098  0.97683  1.0000
  C   C1222     1.0  0.97734  0.65643  0.90798  1.0000
  C   C1223     1.0  0.74745  0.52959  0.97932  1.0000
  C   C1224     1.0  0.96848  0.64265  0.98702  1.0000
  C   C1225     1.0  0.88496  0.59172  0.98251  1.0000
  H   H978      1.0  0.95276  0.34514  0.96338  1.0000
  H   H979      1.0  0.51110  0.40487  0.92380  1.0000
  C   C1226     1.0  0.72778  0.54530  0.98548  1.0000
  H   H980      1.0  0.94950  0.33654  0.89288  1.0000
  H   H981      1.0  0.87845  0.32819  0.74638  1.0000
  H   H982      1.0  0.92621  0.56675  0.98780  1.0000
  H   H983      1.0  0.90508  0.65249  0.64827  1.0000
  C   C1227     1.0  0.94197  0.32666  0.60578  1.0000
  C   C1228     1.0  0.56294  0.39650  0.98642  1.0000
  C   C1229     1.0  0.99156  0.38924  0.54218  1.0000
  C   C1230     1.0  0.99183  0.56361  0.84952  1.0000
  C   C1231     1.0  0.58731  0.91529  0.04329  1.0000
  C   C1232     1.0  0.72958  0.90715  0.39424  1.0000
  H   H984      1.0  0.81113  0.73396  0.43268  1.0000
  C   C1233     1.0  0.50366  0.84056  0.13919  1.0000
  C   C1234     1.0  0.83063  0.84945  0.44665  1.0000
  H   H985      1.0  0.97145  0.96205  0.43541  1.0000
  H   H986      1.0  0.84851  0.81833  0.42074  1.0000
  H   H987      1.0  0.55394  0.72451  0.06707  1.0000
  Fe  Fe83      1.0  0.95214  0.82755  0.46381  1.0000
  C   C1235     1.0  0.98495  0.88455  0.41457  1.0000
  S   S161      1.0  0.97619  0.82136  0.40926  1.0000
  S   S162      1.0  0.77288  0.94977  0.44828  1.0000
  C   C1236     1.0  0.76922  0.91397  0.36521  1.0000
  Fe  Fe84      1.0  0.81284  0.94896  0.43426  1.0000
  S   S163      1.0  0.83510  0.91591  0.41162  1.0000
  S   S164      1.0  0.94892  0.78793  0.47504  1.0000
  S   S165      1.0  0.51545  0.88114  0.28480  1.0000
  P   P42       1.0  0.57646  0.91965  0.38219  1.0000
  H   H988      1.0  0.59169  0.91335  0.07360  1.0000
  C   C1237     1.0  0.91952  0.77889  0.37765  1.0000
  H   H989      1.0  0.65929  0.91208  0.46095  1.0000
  Fe  Fe85      1.0  0.65458  0.97327  0.17950  1.0000
  S   S166      1.0  0.62126  0.96280  0.21339  1.0000
  C   C1238     1.0  0.50315  0.81713  0.12435  1.0000
  Fe  Fe86      1.0  0.61137  0.94333  0.15882  1.0000
  S   S167      1.0  0.59631  0.90608  0.15736  1.0000
  S   S168      1.0  0.64578  0.95128  0.12545  1.0000
  H   H990      1.0  0.89362  0.82389  0.43381  1.0000
  H   H991      1.0  0.92134  0.81724  0.37625  1.0000
  H   H992      1.0  0.51860  0.80529  0.12645  1.0000
  H   H993      1.0  0.82590  0.85662  0.41883  1.0000
  C   C1239     1.0  0.97462  0.71057  0.32930  1.0000
  C   C1240     1.0  0.53721  0.88783  0.24813  1.0000
  C   C1241     1.0  0.54641  0.91098  0.24733  1.0000
  C   C1242     1.0  0.56467  0.91672  0.21980  1.0000
  C   C1243     1.0  0.57386  0.89929  0.19292  1.0000
  C   C1244     1.0  0.56464  0.87613  0.19368  1.0000
  C   C1245     1.0  0.54628  0.87041  0.22116  1.0000
  H   H994      1.0  0.53954  0.92446  0.26831  1.0000
  H   H995      1.0  0.57157  0.93462  0.21925  1.0000
  H   H996      1.0  0.57174  0.86259  0.17296  1.0000
  H   H997      1.0  0.53945  0.85247  0.22194  1.0000
  C   C1246     1.0  0.60741  0.93745  0.43700  1.0000
  C   C1247     1.0  0.81839  0.74163  0.45885  1.0000
  H   H998      1.0  0.55878  0.69628  0.20259  1.0000
  C   C1248     1.0  0.96127  0.88817  0.35762  1.0000
  H   H999      1.0  0.86574  0.67134  0.12449  1.0000
  C   C1249     1.0  0.89925  0.87368  0.45905  1.0000
  C   C1250     1.0  0.89423  0.87237  0.41939  1.0000
  C   C1251     1.0  0.87481  0.88570  0.40539  1.0000
  C   C1252     1.0  0.86056  0.90112  0.43043  1.0000
  C   C1253     1.0  0.88417  0.96964  0.43650  1.0000
  C   C1254     1.0  0.57132  0.96946  0.38509  1.0000
  H   H1000     1.0  0.72752  0.87757  0.43393  1.0000
  S   S169      1.0  0.50324  0.80955  0.29461  1.0000
  C   C1255     1.0  0.97323  0.71579  0.25874  1.0000
  C   C1256     1.0  0.90005  0.66826  0.36212  1.0000
  C   C1257     1.0  0.97332  0.73551  0.33662  1.0000
  H   H1001     1.0  0.91130  0.69585  0.44884  1.0000
  Fe  Fe87      1.0  0.77067  0.98177  0.40947  1.0000
  H   H1002     1.0  0.54191  0.70998  0.13204  1.0000
  C   C1258     1.0  0.90500  0.96034  0.45233  1.0000
  C   C1259     1.0  0.88710  0.78643  0.44200  1.0000
  H   H1003     1.0  0.87073  0.88404  0.37490  1.0000
  C   C1260     1.0  0.59977  0.87507  0.29125  1.0000
  Fe  Fe88      1.0  0.97527  0.78183  0.42301  1.0000
  H   H1004     1.0  0.97061  0.75256  0.24170  1.0000
  C   C1261     1.0  0.58131  0.97447  0.30509  1.0000
  C   C1262     1.0  0.98412  0.96169  0.45833  1.0000
  C   C1263     1.0  0.86600  0.90296  0.46984  1.0000
  C   C1264     1.0  0.69333  0.98255  0.45385  1.0000
  H   H1005     1.0  0.59210  0.86702  0.26571  1.0000
  C   C1265     1.0  0.72550  0.98320  0.32554  1.0000
  H   H1006     1.0  0.56943  0.88173  0.03991  1.0000
  C   C1266     1.0  0.52228  0.68606  0.19371  1.0000
  H   H1007     1.0  0.51964  0.84698  0.15233  1.0000
  S   S170      1.0  0.80997  0.97932  0.39227  1.0000
  H   H1008     1.0  0.92520  0.68158  0.21519  1.0000
  H   H1009     1.0  0.55851  0.69625  0.01006  1.0000
  H   H1010     1.0  0.90659  0.66130  0.09658  1.0000
  H   H1011     1.0  0.58438  0.93637  0.30141  1.0000
  C   C1267     1.0  0.52644  0.92456  0.38651  1.0000
  H   H1012     1.0  0.65310  0.88132  0.33340  1.0000
  C   C1268     1.0  0.89894  0.68560  0.39229  1.0000
  H   H1013     1.0  0.98662  0.87919  0.44458  1.0000
  C   C1269     1.0  0.57645  0.94902  0.36123  1.0000
  C   C1270     1.0  0.52829  0.95070  0.12418  1.0000
  S   S171      1.0  0.69179  0.96869  0.20561  1.0000
  C   C1271     1.0  0.58879  0.92163  0.43005  1.0000
  H   H1014     1.0  0.56534  0.89553  0.45646  1.0000
  H   H1015     1.0  0.73775  0.95690  0.23555  1.0000
  H   H1016     1.0  0.63558  0.86238  0.27547  1.0000
  H   H1017     1.0  0.93235  0.77594  0.35322  1.0000
  C   C1272     1.0  0.91378  0.66888  0.23005  1.0000
  H   H1018     1.0  0.94778  0.87577  0.41327  1.0000
  C   C1273     1.0  0.91937  0.94361  0.43016  1.0000
  S   S172      1.0  0.92318  0.85693  0.47907  1.0000
  H   H1019     1.0  0.77030  0.86606  0.42441  1.0000
  H   H1020     1.0  0.97634  0.68170  0.28565  1.0000
  C   C1274     1.0  0.69712  0.94019  0.43694  1.0000
  C   C1275     1.0  0.69360  0.96394  0.42590  1.0000
  P   P43       1.0  0.69846  0.91604  0.40095  1.0000
  C   C1276     1.0  0.68608  0.92428  0.35523  1.0000
  C   C1277     1.0  0.69147  0.98729  0.28273  1.0000
  C   C1278     1.0  0.53476  0.92681  0.12950  1.0000
  H   H1021     1.0  0.89043  0.67161  0.33603  1.0000
  C   C1279     1.0  0.55082  0.70565  0.07086  1.0000
  H   H1022     1.0  0.51172  0.96212  0.29730  1.0000
  H   H1023     1.0  0.51029  0.74644  0.13043  1.0000
  C   C1280     1.0  0.66453  0.93766  0.35524  1.0000
  C   C1281     1.0  0.65402  0.94274  0.32002  1.0000
  C   C1282     1.0  0.66478  0.93421  0.28464  1.0000
  C   C1283     1.0  0.68601  0.92066  0.28437  1.0000
  C   C1284     1.0  0.69654  0.91551  0.31949  1.0000
  C   C1285     1.0  0.68028  0.89152  0.41671  1.0000
  C   C1286     1.0  0.68294  0.86925  0.39709  1.0000
  C   C1287     1.0  0.66778  0.85055  0.40704  1.0000
  C   C1288     1.0  0.64979  0.85403  0.43646  1.0000
  H   H1024     1.0  0.93594  0.93671  0.44086  1.0000
  C   C1289     1.0  0.66205  0.89494  0.44601  1.0000
  H   H1025     1.0  0.63295  0.87893  0.47866  1.0000
  C   C1290     1.0  0.54397  0.69727  0.10780  1.0000
  C   C1291     1.0  0.76309  0.88102  0.40886  1.0000
  H   H1026     1.0  0.75624  0.96422  0.29932  1.0000
  H   H1027     1.0  0.69192  0.96834  0.39557  1.0000
  C   C1292     1.0  0.77821  0.89409  0.38418  1.0000
  S   S173      1.0  0.97254  0.74664  0.38631  1.0000
  C   C1293     1.0  0.88487  0.88897  0.48411  1.0000
  H   H1028     1.0  0.86113  0.96875  0.38799  1.0000
  H   H1029     1.0  0.88431  0.67476  0.19311  1.0000
  H   H1030     1.0  0.65590  0.94417  0.38243  1.0000
  C   C1294     1.0  0.70207  0.99147  0.31896  1.0000
  H   H1031     1.0  0.65711  0.93859  0.25719  1.0000
  H   H1032     1.0  0.69457  0.91472  0.25666  1.0000
  H   H1033     1.0  0.71284  0.90472  0.31843  1.0000
  H   H1034     1.0  0.69652  0.86646  0.37371  1.0000
  H   H1035     1.0  0.66986  0.83341  0.39172  1.0000
  C   C1295     1.0  0.50781  0.97951  0.31101  1.0000
  C   C1296     1.0  0.49809  0.69153  0.20358  1.0000
  H   H1036     1.0  0.88761  0.74780  0.44544  1.0000
  C   C1297     1.0  0.91329  0.80214  0.39059  1.0000
  C   C1298     1.0  0.74505  0.92062  0.37053  1.0000
  C   C1299     1.0  0.63407  0.88309  0.32950  1.0000
  C   C1300     1.0  0.62424  0.87244  0.29680  1.0000
  H   H1037     1.0  0.90506  0.86088  0.39954  1.0000
  C   C1301     1.0  0.61952  0.89663  0.35644  1.0000
  H   H1038     1.0  0.97940  0.90029  0.30568  1.0000
  C   C1302     1.0  0.58520  0.88860  0.31807  1.0000
  S   S174      1.0  0.49659  0.67383  0.00156  1.0000
  C   C1303     1.0  0.89742  0.80587  0.42299  1.0000
  C   C1304     1.0  0.59499  0.89975  0.35063  1.0000
  C   C1305     1.0  0.89122  0.94442  0.37857  1.0000
  Fe  Fe89      1.0  0.97744  0.66718  0.17931  1.0000
  C   C1306     1.0  0.62805  0.99014  0.99334  1.0000
  H   H1039     1.0  0.50722  0.98835  0.20734  1.0000
  H   H1040     1.0  0.88860  0.70198  0.38919  1.0000
  H   H1041     1.0  0.62760  0.90499  0.38114  1.0000
  H   H1042     1.0  0.70554  0.91741  0.48498  1.0000
  C   C1307     1.0  0.97208  0.75052  0.30457  1.0000
  C   C1308     1.0  0.91011  0.75937  0.39738  1.0000
  H   H1043     1.0  0.91608  0.74144  0.38831  1.0000
  H   H1044     1.0  0.94442  0.88592  0.34374  1.0000
  C   C1309     1.0  0.50725  0.96031  0.14243  1.0000
  H   H1045     1.0  0.84221  0.76450  0.42694  1.0000
  H   H1046     1.0  0.92291  0.92200  0.37724  1.0000
  C   C1310     1.0  0.72765  0.96655  0.25880  1.0000
  H   H1047     1.0  0.60423  0.94933  0.03800  1.0000
  H   H1048     1.0  0.52880  0.94365  0.38503  1.0000
  C   C1311     1.0  0.96311  0.88243  0.39684  1.0000
  H   H1049     1.0  0.56638  0.89080  0.31284  1.0000
  C   C1312     1.0  0.87738  0.96172  0.39977  1.0000
  C   C1313     1.0  0.58095  0.95169  0.32090  1.0000
  H   H1050     1.0  0.49430  0.71441  0.08784  1.0000
  H   H1051     1.0  0.73847  0.93644  0.35652  1.0000
  C   C1314     1.0  0.89068  0.66515  0.21779  1.0000
  C   C1315     1.0  0.59442  0.93556  0.02321  1.0000
  C   C1316     1.0  0.99037  0.94006  0.47508  1.0000
  H   H1052     1.0  0.61485  0.94815  0.41366  1.0000
  C   C1317     1.0  0.97181  0.74072  0.26608  1.0000
  H   H1053     1.0  0.78114  0.92462  0.34721  1.0000
  C   C1318     1.0  0.49306  0.94638  0.16761  1.0000
  H   H1054     1.0  0.56716  0.96782  0.41610  1.0000
  C   C1319     1.0  0.54628  0.90869  0.38573  1.0000
  C   C1320     1.0  0.70154  0.93546  0.47610  1.0000
  C   C1321     1.0  0.89407  0.76308  0.42965  1.0000
  C   C1322     1.0  0.52002  0.91246  0.15261  1.0000
  H   H1055     1.0  0.88537  0.93778  0.35070  1.0000
  C   C1323     1.0  0.54887  0.66553  0.04350  1.0000
  C   C1324     1.0  0.91228  0.93547  0.39366  1.0000
  C   C1325     1.0  0.53943  0.67289  0.11280  1.0000
  C   C1326     1.0  0.51923  0.87529  0.38878  1.0000
  P   P44       1.0  0.53089  0.66151  0.16030  1.0000
  S   S175      1.0  0.73772  0.98904  0.37232  1.0000
  H   H1056     1.0  0.97117  0.76969  0.30937  1.0000
  H   H1057     1.0  0.79703  0.88922  0.38042  1.0000
  C   C1327     1.0  0.83610  0.75883  0.45568  1.0000
  C   C1328     1.0  0.91169  0.68213  0.42591  1.0000
  C   C1329     1.0  0.70419  0.97477  0.25222  1.0000
  C   C1330     1.0  0.54004  0.69999  0.21012  1.0000
  C   C1331     1.0  0.57486  0.89744  0.02415  1.0000
  C   C1332     1.0  0.97487  0.70080  0.29073  1.0000
  C   C1333     1.0  0.85109  0.81932  0.48375  1.0000
  C   C1334     1.0  0.98123  0.89626  0.33610  1.0000
  H   H1058     1.0  0.63047  0.95232  0.47968  1.0000
  H   H1059     1.0  0.51648  0.85619  0.38814  1.0000
  H   H1060     1.0  0.55743  0.87135  0.38622  1.0000
  H   H1061     1.0  0.98233  0.92364  0.46558  1.0000
  C   C1335     1.0  0.73885  0.88757  0.41405  1.0000
  C   C1336     1.0  0.54247  0.88399  0.38719  1.0000
  H   H1062     1.0  0.63799  0.83957  0.44407  1.0000
  H   H1063     1.0  0.53974  0.96178  0.10621  1.0000
  S   S176      1.0  0.59114  0.97437  0.13521  1.0000
  H   H1064     1.0  0.55130  0.91942  0.11600  1.0000
  C   C1337     1.0  0.73821  0.97066  0.29508  1.0000
  H   H1065     1.0  0.52496  0.89389  0.15638  1.0000
  H   H1066     1.0  0.51510  0.98522  0.02855  1.0000
  S   S177      1.0  0.97225  0.70451  0.20932  1.0000
  H   H1067     1.0  0.50223  0.97869  0.13726  1.0000
  C   C1338     1.0  0.64695  0.87621  0.45593  1.0000
  H   H1068     1.0  0.50459  0.73974  0.26430  1.0000
  C   C1339     1.0  0.49959  0.89116  0.38961  1.0000
  C   C1340     1.0  0.55340  0.68976  0.03877  1.0000
  Fe  Fe90      1.0  0.62615  0.98391  0.10468  1.0000
  Fe  Fe91      1.0  0.49308  0.84779  0.28261  1.0000
  H   H1069     1.0  0.58489  0.97647  0.27401  1.0000
  C   C1341     1.0  0.53368  0.71918  0.23569  1.0000
  H   H1070     1.0  0.94030  0.65951  0.27022  1.0000
  C   C1342     1.0  0.84380  0.82796  0.44787  1.0000
  H   H1071     1.0  0.65254  0.96128  0.00491  1.0000
  C   C1343     1.0  0.57961  0.90791  0.46090  1.0000
  C   C1344     1.0  0.61632  0.93986  0.47435  1.0000
  H   H1072     1.0  0.87316  0.98318  0.45228  1.0000
  H   H1073     1.0  0.54735  0.73027  0.24755  1.0000
  C   C1345     1.0  0.50959  0.72445  0.24536  1.0000
  S   S178      1.0  0.82071  0.97281  0.48544  1.0000
  C   C1346     1.0  0.92531  0.66114  0.42963  1.0000
  H   H1074     1.0  0.63771  0.95353  0.31990  1.0000
  C   C1347     1.0  0.82420  0.86221  0.48121  1.0000
  C   C1348     1.0  0.50318  0.91578  0.38855  1.0000
  H   H1075     1.0  0.97568  0.69871  0.35368  1.0000
  C   C1349     1.0  0.49925  0.92213  0.17162  1.0000
  P   P45       1.0  0.86795  0.79145  0.48542  1.0000
  H   H1076     1.0  0.55618  0.98777  0.05295  1.0000
  H   H1077     1.0  0.49314  0.83403  0.43221  1.0000
  H   H1078     1.0  0.81455  0.87920  0.48000  1.0000
  H   H1079     1.0  0.93539  0.65862  0.45554  1.0000
  H   H1080     1.0  0.95060  0.97958  0.55660  1.0000
  C   C1350     1.0  0.62771  0.73701  0.72627  1.0000
  C   C1351     1.0  0.57118  0.81961  0.75422  1.0000
  H   H1081     1.0  0.51595  0.81610  0.92982  1.0000
  S   S179      1.0  0.95035  0.68149  0.65955  1.0000
  C   C1352     1.0  0.49464  0.81276  0.87928  1.0000
  H   H1082     1.0  0.53088  0.95092  0.94846  1.0000
  H   H1083     1.0  0.65879  0.91091  0.88656  1.0000
  S   S180      1.0  0.76400  0.96931  0.55858  1.0000
  C   C1353     1.0  0.51362  0.76452  0.60614  1.0000
  H   H1084     1.0  0.88831  0.88995  0.51492  1.0000
  C   C1354     1.0  0.83075  0.85339  0.51712  1.0000
  Fe  Fe92      1.0  0.61091  0.95471  0.73222  1.0000
  S   S181      1.0  0.59951  0.91941  0.70545  1.0000
  S   S182      1.0  0.64920  0.95903  0.74812  1.0000
  C   C1355     1.0  0.52945  0.88300  0.74120  1.0000
  C   C1356     1.0  0.53639  0.90353  0.76173  1.0000
  C   C1357     1.0  0.55754  0.91522  0.75052  1.0000
  C   C1358     1.0  0.57214  0.90614  0.71915  1.0000
  C   C1359     1.0  0.56514  0.88562  0.69858  1.0000
  C   C1360     1.0  0.54376  0.87419  0.70932  1.0000
  H   H1085     1.0  0.52538  0.91052  0.78629  1.0000
  H   H1086     1.0  0.56268  0.93112  0.76629  1.0000
  H   H1087     1.0  0.57637  0.87853  0.67428  1.0000
  H   H1088     1.0  0.53864  0.85830  0.69347  1.0000
  H   H1089     1.0  0.58234  0.73296  0.64420  1.0000
  H   H1090     1.0  0.97763  0.72313  0.68552  1.0000
  C   C1361     1.0  0.53454  0.71441  0.81257  1.0000
  C   C1362     1.0  0.55450  0.78071  0.74030  1.0000
  H   H1091     1.0  0.57935  0.91707  0.82883  1.0000
  C   C1363     1.0  0.97605  0.74931  0.59579  1.0000
  C   C1364     1.0  0.73020  0.96683  0.62000  1.0000
  H   H1092     1.0  0.49621  0.99170  0.68190  1.0000
  H   H1093     1.0  0.74007  0.95088  0.62752  1.0000
  C   C1365     1.0  0.54274  0.73256  0.78831  1.0000
  C   C1366     1.0  0.54018  0.75539  0.67209  1.0000
  C   C1367     1.0  0.96109  0.70760  0.63582  1.0000
  C   C1368     1.0  0.95617  0.71090  0.59626  1.0000
  C   C1369     1.0  0.96374  0.73146  0.57628  1.0000
  H   H1094     1.0  0.54744  0.74941  0.80162  1.0000
  H   H1095     1.0  0.94642  0.69741  0.58092  1.0000
  H   H1096     1.0  0.95988  0.73361  0.54589  1.0000
  S   S183      1.0  0.64727  0.97116  0.86256  1.0000
  C   C1370     1.0  0.53550  0.77557  0.61060  1.0000
  H   H1097     1.0  0.50201  0.90132  0.53961  1.0000
  H   H1098     1.0  0.62286  0.91751  0.92984  1.0000
  C   C1371     1.0  0.94645  0.91116  0.53911  1.0000
  C   C1372     1.0  0.53120  0.68816  0.75610  1.0000
  C   C1373     1.0  0.81889  0.74475  0.52943  1.0000
  C   C1374     1.0  0.87678  0.95444  0.54736  1.0000
  Fe  Fe93      1.0  0.63379  0.97992  0.80158  1.0000
  Fe  Fe94      1.0  0.78038  0.97611  0.49680  1.0000
  S   S184      1.0  0.93465  0.66184  0.77349  1.0000
  C   C1375     1.0  0.53963  0.70620  0.73177  1.0000
  H   H1099     1.0  0.97532  0.95198  0.59360  1.0000
  C   C1376     1.0  0.94939  0.96059  0.55112  1.0000
  C   C1377     1.0  0.96336  0.94496  0.57239  1.0000
  C   C1378     1.0  0.96195  0.92025  0.56628  1.0000
  C   C1379     1.0  0.89465  0.76869  0.54106  1.0000
  H   H1100     1.0  0.64039  0.73786  0.74922  1.0000
  H   H1101     1.0  0.91987  0.91927  0.49838  1.0000
  H   H1102     1.0  0.84311  0.77006  0.55276  1.0000
  C   C1380     1.0  0.60690  0.92633  0.50497  1.0000
  C   C1381     1.0  0.85571  0.95655  0.57098  1.0000
  H   H1103     1.0  0.54194  0.70257  0.70061  1.0000
  H   H1104     1.0  0.97280  0.90810  0.58266  1.0000
  H   H1105     1.0  0.56521  0.78050  0.64718  1.0000
  Fe  Fe95      1.0  0.95683  0.66110  0.71621  1.0000
  H   H1106     1.0  0.54628  0.84321  0.87053  1.0000
  H   H1107     1.0  0.54801  0.84471  0.78704  1.0000
  H   H1108     1.0  0.51781  0.77657  0.76121  1.0000
  C   C1382     1.0  0.52826  0.91051  0.88021  1.0000
  H   H1109     1.0  0.93526  0.78822  0.60488  1.0000
  C   C1383     1.0  0.51812  0.74445  0.66740  1.0000
  H   H1110     1.0  0.88487  0.93688  0.54193  1.0000
  S   S185      1.0  0.98591  0.77586  0.57243  1.0000
  C   C1384     1.0  0.88688  0.97475  0.53041  1.0000
  H   H1111     1.0  0.84876  0.82529  0.54656  1.0000
  H   H1112     1.0  0.50809  0.85781  0.84449  1.0000
  S   S186      1.0  0.98280  0.66666  0.85927  1.0000
  C   C1385     1.0  0.55624  0.87804  0.89158  1.0000
  H   H1113     1.0  0.82804  0.98048  0.59576  1.0000
  C   C1386     1.0  0.54468  0.72883  0.74753  1.0000
  H   H1114     1.0  0.65379  0.72363  0.68241  1.0000
  P   P46       1.0  0.57141  0.92332  0.91310  1.0000
  C   C1387     1.0  0.54068  0.96252  0.92890  1.0000
  H   H1115     1.0  0.58562  0.83214  0.75092  1.0000
  H   H1116     1.0  0.50827  0.80255  0.86217  1.0000
  C   C1388     1.0  0.57346  0.79673  0.73689  1.0000
  C   C1389     1.0  0.83660  0.76196  0.52635  1.0000
  H   H1117     1.0  0.52339  0.92929  0.88041  1.0000
  C   C1390     1.0  0.69685  0.97763  0.49296  1.0000
  C   C1391     1.0  0.52851  0.69233  0.79646  1.0000
  H   H1118     1.0  0.66226  0.95139  0.93463  1.0000
  H   H1119     1.0  0.65544  0.90755  0.81475  1.0000
  C   C1392     1.0  0.63945  0.90964  0.83373  1.0000
  H   H1120     1.0  0.52657  0.67099  0.74369  1.0000
  H   H1121     1.0  0.94514  0.89197  0.53451  1.0000
  P   P47       1.0  0.55648  0.75169  0.71601  1.0000
  C   C1393     1.0  0.93375  0.95164  0.52369  1.0000
  C   C1394     1.0  0.62081  0.91544  0.89872  1.0000
  C   C1395     1.0  0.53306  0.78820  0.76021  1.0000
  C   C1396     1.0  0.84456  0.97893  0.57790  1.0000
  H   H1122     1.0  0.70488  0.96485  0.66979  1.0000
  C   C1397     1.0  0.53082  0.81112  0.77738  1.0000
  H   H1123     1.0  0.84781  0.94079  0.58351  1.0000
  H   H1124     1.0  0.91670  0.75097  0.58215  1.0000
  C   C1398     1.0  0.64950  0.96569  0.94251  1.0000
  H   H1125     1.0  0.52157  0.67855  0.81536  1.0000
  C   C1399     1.0  0.98933  0.66721  0.93889  1.0000
  H   H1126     1.0  0.58977  0.79189  0.72012  1.0000
  H   H1127     1.0  0.61564  0.91041  0.78611  1.0000
  H   H1128     1.0  0.58131  0.89988  0.52206  1.0000
  S   S187      1.0  0.49245  0.82267  0.57461  1.0000
  C   C1400     1.0  0.59825  0.91749  0.88267  1.0000
  C   C1401     1.0  0.60378  0.74389  0.73439  1.0000
  H   H1129     1.0  0.53239  0.71755  0.84393  1.0000
  C   C1402     1.0  0.57723  0.91988  0.96417  1.0000
  H   H1130     1.0  0.59533  0.95361  0.96858  1.0000
  C   C1403     1.0  0.64403  0.97128  0.98251  1.0000
  C   C1404     1.0  0.59651  0.91528  0.84194  1.0000
  H   H1131     1.0  0.92381  0.82705  0.57669  1.0000
  C   C1405     1.0  0.80985  0.73451  0.49570  1.0000
  C   C1406     1.0  0.61704  0.91141  0.81760  1.0000
  C   C1407     1.0  0.98503  0.66034  0.97806  1.0000
  S   S188      1.0  0.50346  0.86814  0.75745  1.0000
  C   C1408     1.0  0.64131  0.91146  0.87426  1.0000
  C   C1409     1.0  0.56144  0.95396  0.90803  1.0000
  C   C1410     1.0  0.88774  0.79066  0.52551  1.0000
  C   C1411     1.0  0.54871  0.77113  0.64350  1.0000
  H   H1132     1.0  0.62459  0.72118  0.63014  1.0000
  H   H1133     1.0  0.81206  0.73950  0.55803  1.0000
  H   H1134     1.0  0.57333  0.87161  0.90131  1.0000
  C   C1412     1.0  0.54994  0.82673  0.77463  1.0000
  C   C1413     1.0  0.57440  0.96957  0.88408  1.0000
  C   C1414     1.0  0.54103  0.86191  0.87399  1.0000
  H   H1135     1.0  0.79605  0.72127  0.49812  1.0000
  C   C1415     1.0  0.54994  0.90248  0.89511  1.0000
  H   H1136     1.0  0.59119  0.96390  0.86940  1.0000
  P   P48       1.0  0.91381  0.97170  0.49919  1.0000
  H   H1137     1.0  0.89389  0.82871  0.52628  1.0000
  C   C1416     1.0  0.63525  0.72897  0.68866  1.0000
  H   H1138     1.0  0.51393  0.81717  0.79132  1.0000
  S   S189      1.0  0.59576  0.97287  0.78713  1.0000
  C   C1417     1.0  0.61881  0.72763  0.65920  1.0000
  H   H1139     1.0  0.70493  0.95053  0.53422  1.0000
  H   H1140     1.0  0.87269  0.66564  0.60605  1.0000
  C   C1418     1.0  0.91132  0.76792  0.57023  1.0000
  C   C1419     1.0  0.92171  0.78896  0.58326  1.0000
  C   C1420     1.0  0.91521  0.81083  0.56748  1.0000
  C   C1421     1.0  0.89826  0.81170  0.53880  1.0000
  H   H1141     1.0  0.51051  0.73308  0.68956  1.0000
  C   C1422     1.0  0.49894  0.82035  0.91741  1.0000
  H   H1142     1.0  0.54169  0.78830  0.58918  1.0000
  C   C1423     1.0  0.63893  0.97860  0.91264  1.0000
  H   H1143     1.0  0.99039  0.75969  0.65076  1.0000
  C   C1424     1.0  0.59486  0.73451  0.66723  1.0000
  C   C1425     1.0  0.58729  0.74305  0.70477  1.0000
  C   C1426     1.0  0.73770  0.97947  0.58663  1.0000
  H   H1144     1.0  0.82582  0.86338  0.54386  1.0000
  C   C1427     1.0  0.51304  0.89429  0.86282  1.0000
  C   C1428     1.0  0.84397  0.83192  0.51846  1.0000
  H   H1145     1.0  0.50308  0.76861  0.58124  1.0000
  C   C1429     1.0  0.97377  0.72525  0.65513  1.0000
  H   H1146     1.0  0.59811  0.74992  0.76375  1.0000
  Fe  Fe96      1.0  0.98125  0.79117  0.51111  1.0000
  S   S190      1.0  0.50282  0.80822  0.68588  1.0000
  S   S191      1.0  0.98299  0.83121  0.50364  1.0000
  C   C1430     1.0  0.93227  0.92675  0.51825  1.0000
  H   H1147     1.0  0.61369  0.92835  0.53403  1.0000
  C   C1431     1.0  0.51949  0.87007  0.85949  1.0000
  C   C1432     1.0  0.71017  0.97470  0.64410  1.0000
  C   C1433     1.0  0.98098  0.74600  0.63531  1.0000
  C   C1434     1.0  0.53226  0.98594  0.92396  1.0000
  H   H1148     1.0  0.56016  0.88567  0.97054  1.0000
  C   C1435     1.0  0.70121  0.95412  0.50406  1.0000
  H   H1149     1.0  0.49669  0.90061  0.85031  1.0000
  S   S192      1.0  0.60984  0.98803  0.69695  1.0000
  C   C1436     1.0  0.58863  0.91031  0.49820  1.0000
  C   C1437     1.0  0.50494  0.74898  0.63454  1.0000
  H   H1150     1.0  0.88761  0.75210  0.53014  1.0000
  H   H1151     1.0  0.50270  0.84451  0.50066  1.0000
  C   C1438     1.0  0.56976  0.89971  0.98472  1.0000
  C   C1439     1.0  0.58937  0.93790  0.98386  1.0000
  C   C1440     1.0  0.84564  0.76877  0.48944  1.0000
  H   H1152     1.0  0.85508  0.91449  0.48958  1.0000
