data_image0
_chemical_formula_structural       C4SH2CHS2CSHCFeSH3CHCH4CSC6H4CHC5FeCHC12FeHCSCS2CHCSC2HSH2CH3CH2CHC4H2CH5C2HC3HC2H2PC2HCHPCH6C2FeHC2SCHCS2CPH2CH2C2H2C3HCH3C5HCHC5HCH5CHCSC2HC5HCH2C4H2CH2Fe2SH3C3HCH2C5H4CHCHC3Fe2SC2H2SHFeS2CHC6H4C2H2C3HC2H2C2SHCHSCH3C4H3CFeCHC6H2CHCHC4HCPCH2C2SC2HC4HCHC2HCH3CH2C4PC18H4CH16CFeC2HC2HC4PC7H3SCH2C5H7C3H3CHCH3C6PCH2S2CHCSHC4H3CH3CSH2C3H2C4H3SH2FeC3HCH5FeCPFeCHC4HC2FeSHFeCS2CSCFeSFeC2FeCHSHC2HCS2FeSH2SHCFeS2C3SH2S2HC6H2FeHC2H2CHCHCHSH2SC2SH3C5H2C6H4C2PH4C2H4C2FeC2H5C3S2H4C3HCHC2H2SC2HC2PC3HC9PC2H2CH5C2SC3PC18H14CH5FeH2C3PC15HCH2CH5CSHC3HCH4SFeCH2C3H2CHFeHCH4CH2C4HC3HC3H3CFeCHCH2CH2CHC2FeHCHCH2SCHC2SC7PSCSCFeCFeSCS2C2FeSFe2SCH2SH2SFeS2FeS2HS2HFeC2HFeCH2C2HCH4SHC6H3C3HSH3FeCH2CSCPC2HCH2SC6H4CHC2HSC2HC2HFePC2HC6H5C3HC3HC2H2C2H3CH2CHC4SH2C2HC3HCHC2PH3C4HC2HFeC6PC2H3C13H5CHC2H2CH7C6H3SHC3H2CHCHC3HCH2CSC3FeH3C2HC2H2C2HCSC2HCSC2HPHCHC3H3CHC3HC2H2SH3C3HC5HCHSC3H3CH2CFeHC5H2C3H8CHSC6HCSCHCFeC2H2CHCH3C4HC3PCHFeS2HS2HC2HFe2SPSCSCHFeSFeC2H2CHCH2C6H4Fe2HCH3CHSCH5CHCH2CH5C6H7C2HPC15HSC3SH3CHCH5C2HCHPHFeCH4FeC2H2CSCSHC6H2C2HC2HCH5C5HC3H3CHPH5C3PC14PHC3SH3C2H2CH2C2HCHC3HC2H2C2FeSHCSCSC2HCH4C3HSCH2C3H2C4HC13HCPCH3CHSCH2CHC4SC3H5C2H3CH5SC6HCHC3HCHCH2CHCHCH3SCHC2HCHSHSCHFeSHSCFeS2FeCSFeSFeCSH2FeHC2HC2HC5H3C6H4C2H2CHCHCHC2H2C6H4CHC4HCH3C2H2C3H2C2HC2H3SC4H2C2H3CSH3SCHCHC2HSCH4SHCH2SH2C2HCHCFeH2CHCH3C2PC3HCH2CHCHC6PC14HSCH18SH2CH3C9PC5FeCHFeC6H2CH2PH3C3H4CHC2HCHPC17HSH2CSHC2HCH3C3HC2HCHC2H4CH2C2H2FeS2FeSHFeS2FeSHSCPSHSFeSFeCH3SHFeSCH2C2HSH2C6H5CHC3HFeC4H2PH2C4H3C5H3CH2C2HCHC2HCH2CHFeH2CH2C7PCHC2H2C5PC2HC4H6C2SHC2H3CPH3C3H3CH2C3H3C8H2SC2HC5HC3FeC3HCHC2HCHC2H2SHC2HCHCH2C7H2C2H2CHC3H5C3H2C4H2C3HCH2C8HC3HCH3CHC2HC2HC2HC2HCSHC2HFeC2HCHC2H3C2PSCHCHC2HFeSHCHCFeCHS2CFeSC2FeSHCHFeHFeSCS2CHFeSH2CH2C6H4CFeC2H2C2H3C2H2CHC5SCH2C3HC2S3HSHCH2SCHCH2SCHC2HSHC2H6PCHCHCHCHCHSH3CHCSFeCHC3HCS2CH3C2H2CHC2HC2H2C4HC7SCH6C3HCH2CHSPC6HC2HC7H6FeH7C4HC6PC3HCFeC6H2CHSFeH2C3H3SH2C2H3CH4C4FeSFeSFeS2FeS2FeSFeS5H2SH4CH2C3FeSC2HSC2H2CH2C6H4C6H4C6H7CHCH2CHC3HC2H3C3HPHC2H2CHC4PC18H18CH2C2HC3PC22H14CHCH3CFeCHC2HSH3C3SC3HSC3HSCHC2HC2HCHC5PC10HCH3C3HCHPH2C2HPHCH2C2H3C2HCH2SH2CH3C4H3C2HC2H3CHCHCH2C2HFeCSHCH3FeH2CHCFeH3CHC2H3C4HC2HCHCH2SHCHC2HCFeSCFeS2FeS2FeSFeS3FeCSCH3CHCSHS2HCHC5SC3S2C4H2CHC6H4C6H4C6H5SH2C2H2C3HC2PC3HC9HPHFeH5C2PC2SHC2H2FeC2HCHCH4C5H6SH4C5HC2HC4HC3HCHCHCPC4H3CHCHC3SC2H2C5HC9FeHC2HC2H11CHC2SC6PC18H6C2H4CH9CHCH3CH2CHC2HCH2C2HCHPCHCH5CH3C2H2C2FeCHC5HC2H2CH4CHCH3CHC2H2C2HCHCHCHCH2CHCHC5FeSHFeHSPCH2CFeS2FeS2FeSFeS3C9HCHC6H5C6H4C2H3CSHC6H6PCH2C2HC2HCH4C2H3CHC5HCH2CH3C2H3C4HCH3C7H2SC4H3C7SH2C2H2SC2HC4H6PH5CHCH4C3H2C2HPC2PCHCHC4HC2SC2HC2H2CHC2HCHC7H2CFeHPH2C3H2CHC2HC3H2C6FeHCHPFeS2FeS2FeSFeS3HC2FeSC2FeCSCSC6H4C6H4C7H3C4HCH5C5HCSH6C2HCH2CH2C2H3C2HC3PC3HC4HCHCHC2HC3H4CPCH3CHC2H2SH2CHCH4C2HCHC7H2CPCH2CHCH7PCHC3H2C2HC2H2PCHC3H3CHC3FeH2CH2C2HC8H3SCH2PHC4HC2H5FeCHCHC5HSCSC4HFeS2FeS2FeSFeS5CSHFeSHC2HC6H4C6H4C6H4C6H3CH2C2H2C2H4CHCHFeHCH5CHC3H5C3SC7HCHCH3C2SCH2C3HC3HC3HCHC2H4CHC2HCH2CPHPHCHCHC6H3C4HC7H3CH4C2HC4HFeHC3H2CH4CHCH3C3H2CH2C2H2C3HCHC2HCH3C2HCH2SCFeS2FeS2FeSFeS3HSHC3FeSC6H4C6H4C6H4C6H4CH4CHCH3C2HCHCHCHCH4C3PHCHC3HPH2C3HC3HC2H3C4H2C2HCHC2HCHCH3C3HCHC2HCHCPHCH2C2SC2H2C2HC3FeH2C3HCHC3H2CHC4H3C2H2C2HPHC4PC3HC5H2C2H3C2H5C6PC8HCH2C2HC3HCH9C5HCSCHCFeHCH6C4HCH3C2FeCHCHSHCHCSCH2CH2CFeC3FeHSHFeSFeS2FeSFeS3C2FeCHFeS2H4CH3CHSCSH2CH2S2CHC5H2C2HC3SHC6HC7H4C6H5SC2SHCHC2HCHC2H2FeC2SCHFeCH4C6H2C2SHCH3C7PC8SH3C6H11CHCH7C2HC2PC4H2C2H4CH2C4HSH2C2H3C3SC3H2SC5HC4HC2HCH4C2HPCHC5HC2HC2HSCPC2HCH4CPHC2HFeHCHCH2CH2C4HC7SHCHCFeHC3HCHC5SHC2HC3H4CHSH2CHCFeCH3FeSFeSPFeS2FeSFeS3FeSHCHC2FeS2H2C2HSH3CH2SHCHCH2CHC2PCH3CHC6H4C6H4C6H4PCH4FeC4H3C3HC2HC2HCH3CHCSC2H3C4FeC2HCHCH2SHCHC3HC7PC18H2CH19FeC2H2C11HCH4C3H5CHC2H2C2H2C2H2CH2C6HC5H2C2HCHPHCH2C2SH3C2H2CH4C2HCHSHC2SC2H2SH2CHCHC3H2C2H4CSC3HFeC2H3SCFePSCFeSH2CSCHFeSH3CH2C6H5C2HC2HC3HCHC6H4CHC2H2CH3C2HC2PC3HC6HC5HCHCHCH2SCH8CHC2SH3CHC2HSH3FeH2C8SCH3CSCHS2H2C2FeC4HC2HC3HC2FeH2C10PCHCH2C3HCH6SH3CHSHCHCHC6HCPCHC2HSC2H5CH4C3H3C2H6CHC2HCHCH2SC2H2C2HCHCHC2HSCSFeSCH2S2C3FeHSCHCS2CH2PHFeHC6H6CH5CHCH5CHC2FeC5H3C2HCHFeH2CPC3SCH2C3HCSFeCHC5HC2SH2CH2SHCHCH2CHCHC8H2CSHSC2H2C5HC2HCH2CH3CSCHCH3C2H3CH3CSC2H2CHCHCH2C5HC2HCH2C5H2CH2C4H2CHC2SH2SCFeCHCHCHCH2PHC3H2CH3C2HCHCPSCHC3H2CHCHC2SCH3SHFeSCFeS4FeCFeSHC2SH2SFeSH2CFeCH2CHSC2HCH2C2HC6H5CSCHCH2C6H2CH2C2HC3HCHC5H5C2H3C2H4FeCHC2HCHCHCSCHCH2FeCPCH2C2FeSHC4HSH2CSH2C2PHC2HCHC2HCHCHCH4CSCHC6PC4H3C11H7CHCH7FeCH4SHC2HC5SFeC3SH3C4H3FeHCHC2H2FeC4SC10H3C2HFeCSCPHC10H2CHCH4C5HCH3CH2SC3H3CH2CSH3SFeSC2HCSFeS2FeCFeS2CFeS2FeCSCHSCH3C6H4SCHCH5C5H3FeCHCHCSC3H2CH3C2H4C4HCHCHC4HPH2C7H2CH3CH6C2HSHC2HC2HC2H2CHC2FeC2H2CHCHC2HC3H2C5HC4H5FeCH2C2H7CH3CHC2SC2SC4S2CH2CH2CPCH2C3HC10HC2FeHFeCH3C6H2CHC2H3SCSFeH2CH2CH2CSHC2H3C2HCHCHC2H2CHC5HSC2H2SCFeCSH4CS2CFeSHCSHSCHCH2SCHC6H5CH2CHC2H2C6H4C3HS2H3CHCFeCH2C5HCHCSCH2SFeC2H2CHCH2SC2HCH2SH2CHCHCH2SH2CH3C6PC8HC9H10C2PCH2CH2C6PC2H3FeCHC6H5C2H3FeCH2FeSHC3HC2HCH2CPC14HC2HCHCH8CHCHCHC2FeH2C5HCH3C2HSH6C3HSC2HCHC4SC2SFeSCHSHFeHSH2SCH2SC8H8C12H5C2SC2HCH2CH2C7PC2H4CH4SHCH5CH3C3HCHSHCH2CFeCHCH5CFeHCH2C2HCHC10H3CSC4HCH2PHC5FeH2SH2FeC2H2CHC4HC3PC9H2C5HCH2SCH2C2H3C2PHCHC2H2C2H2CHFeH3C2PH3CHCHC2HCHC2HC8H6C2PC2SHCSC3H2CHCHCHC3H4C3HCH2CSC6HCH2CHSC3HCH2CSPC2HC3HC3H2CHFeHCHSPCHCH2Fe2SHCSFeSC2HS2HFeHSPCSCFeS2FeCHCSCHC7H4CHC3HCH2C3SHC3H2C7H4C2HSHC6PC7H2SHC7HC2H7CHC3H5CHC4PCH3FeHCHC7HC2HC2S2HCH6CH3C2H3CH3C5HPHC2HCHFeH3SCH4CHC2H2CHPCHC2HC3H3C2HC2HC4H4CFeHCSC2HC4HFeC7SH2CHCHSC6HFeCH2C4H5C2H4SC3HC3SFeCH2CHC6HCSC2HCHFeHSH2SC2SFeSFeS2C2HCFeS2H2CSHSHC3FeS2H2SC2FeC6H5C3H2CH4C5H3C8HCHC2HC2H5CHCHSHSCHC3HC2H2FeC3H2C3HPH3CH4C3H2C2H2FeC5H2C2SC4H3CHC2HC3HC2HC2HC4HC2HCH2CHCHC3HCFeHCHCHPC2H9CPH3C5HC11PCHCSHC5H3CH2C2SHCH2CHCSCH2CHCHSFeCSCHFeHC4HPFeHC3
_chemical_formula_sum              "C3600 S480 H2880 Fe240 P120"
_cell_length_a       63.4431
_cell_length_b       63.7487
_cell_length_c       63.5409
_cell_angle_alpha    87.2779
_cell_angle_beta     86.6564
_cell_angle_gamma    86.6519

_space_group_name_H-M_alt    "P 1"
_space_group_IT_number       1

loop_
  _space_group_symop_operation_xyz
  'x, y, z'

loop_
  _atom_site_type_symbol
  _atom_site_label
  _atom_site_symmetry_multiplicity
  _atom_site_fract_x
  _atom_site_fract_y
  _atom_site_fract_z
  _atom_site_occupancy
  C   C1        1.0  0.31430  0.05119  0.49195  1.0000
  C   C2        1.0  0.01211  0.19685  0.24262  1.0000
  C   C3        1.0  0.18731  0.04065  0.25609  1.0000
  C   C4        1.0  0.00348  0.22491  0.34494  1.0000
  S   S1        1.0  0.30563  0.04366  0.11860  1.0000
  H   H1        1.0  0.30652  0.04477  0.02147  1.0000
  H   H2        1.0  0.30875  0.10091  0.06413  1.0000
  C   C5        1.0  0.04581  0.04487  0.25330  1.0000
  H   H3        1.0  0.10517  0.20902  0.34841  1.0000
  S   S2        1.0  0.32962  0.22531  0.48367  1.0000
  S   S3        1.0  0.11672  0.02519  0.29195  1.0000
  C   C6        1.0  0.29472  0.01785  0.00712  1.0000
  S   S4        1.0  0.02985  0.15807  0.31850  1.0000
  H   H4        1.0  0.23987  0.11975  0.25153  1.0000
  C   C7        1.0  0.22947  0.01053  0.32408  1.0000
  Fe  Fe1       1.0  0.03448  0.12262  0.31974  1.0000
  S   S5        1.0  0.06517  0.10550  0.33028  1.0000
  H   H5        1.0  0.27097  0.04170  0.09184  1.0000
  H   H6        1.0  0.04303  0.20382  0.22916  1.0000
  H   H7        1.0  0.08436  0.00219  0.34264  1.0000
  C   C8        1.0  0.25361  0.03861  0.24556  1.0000
  H   H8        1.0  0.02867  0.17749  0.11241  1.0000
  C   C9        1.0  0.16330  0.01301  0.25187  1.0000
  H   H9        1.0  0.07519  0.24589  0.01594  1.0000
  H   H10       1.0  0.01585  0.21496  0.16696  1.0000
  H   H11       1.0  0.28493  0.02983  0.23265  1.0000
  H   H12       1.0  0.23487  0.02632  0.19065  1.0000
  C   C10       1.0  0.19589  0.08632  0.27845  1.0000
  S   S6        1.0  0.33162  0.15474  0.01523  1.0000
  C   C11       1.0  0.10231  0.04717  0.30323  1.0000
  C   C12       1.0  0.08593  0.05755  0.29205  1.0000
  C   C13       1.0  0.07418  0.07516  0.30018  1.0000
  C   C14       1.0  0.07895  0.08290  0.31950  1.0000
  C   C15       1.0  0.09543  0.07260  0.33062  1.0000
  C   C16       1.0  0.10693  0.05476  0.32265  1.0000
  H   H13       1.0  0.08233  0.05197  0.27696  1.0000
  H   H14       1.0  0.06159  0.08287  0.29139  1.0000
  H   H15       1.0  0.09931  0.07844  0.34554  1.0000
  H   H16       1.0  0.11952  0.04704  0.33141  1.0000
  C   C17       1.0  0.03901  0.03885  0.32069  1.0000
  H   H17       1.0  0.21576  0.03713  0.34053  1.0000
  C   C18       1.0  0.01143  0.07286  0.26277  1.0000
  C   C19       1.0  0.04459  0.22058  0.14856  1.0000
  C   C20       1.0  0.01227  0.16946  0.18619  1.0000
  C   C21       1.0  0.02620  0.20727  0.22826  1.0000
  C   C22       1.0  0.26685  0.03189  0.07939  1.0000
  Fe  Fe2       1.0  0.01205  0.15513  0.28915  1.0000
  C   C23       1.0  0.29708  0.06581  0.49037  1.0000
  H   H18       1.0  0.25907  0.04168  0.26090  1.0000
  C   C24       1.0  0.22762  0.11040  0.25910  1.0000
  C   C25       1.0  0.31697  0.05614  0.09540  1.0000
  C   C26       1.0  0.30731  0.07514  0.08757  1.0000
  C   C27       1.0  0.31615  0.08613  0.06971  1.0000
  C   C28       1.0  0.02031  0.19419  0.14096  1.0000
  C   C29       1.0  0.01271  0.17180  0.39571  1.0000
  C   C30       1.0  0.04828  0.04364  0.33918  1.0000
  C   C31       1.0  0.33012  0.21323  0.41851  1.0000
  C   C32       1.0  0.02691  0.24903  0.36962  1.0000
  C   C33       1.0  0.11233  0.23141  0.32307  1.0000
  C   C34       1.0  0.22827  0.08869  0.25648  1.0000
  C   C35       1.0  0.15222  0.04921  0.24349  1.0000
  Fe  Fe3       1.0  0.14069  0.00125  0.30660  1.0000
  H   H19       1.0  0.23062  0.08028  0.49929  1.0000
  C   C36       1.0  0.27740  0.01101  0.04915  1.0000
  S   S7        1.0  0.02261  0.17742  0.26113  1.0000
  C   C37       1.0  0.26830  0.03199  0.22962  1.0000
  S   S8        1.0  0.30931  0.00832  0.17005  1.0000
  S   S9        1.0  0.31176  0.02349  0.49048  1.0000
  C   C38       1.0  0.33500  0.07838  0.05965  1.0000
  H   H20       1.0  0.10140  0.24153  0.37945  1.0000
  C   C39       1.0  0.01981  0.17787  0.41510  1.0000
  S   S10       1.0  0.00467  0.11835  0.34015  1.0000
  C   C40       1.0  0.09952  0.22306  0.33969  1.0000
  C   C41       1.0  0.02974  0.22279  0.29211  1.0000
  H   H21       1.0  0.05940  0.03449  0.24942  1.0000
  S   S11       1.0  0.17557  0.00467  0.30906  1.0000
  H   H22       1.0  0.03033  0.20306  0.34389  1.0000
  H   H23       1.0  0.23367  0.03346  0.08874  1.0000
  C   C42       1.0  0.23195  0.04072  0.24185  1.0000
  H   H24       1.0  0.04103  0.22470  0.40825  1.0000
  H   H25       1.0  0.29879  0.02788  0.06682  1.0000
  H   H26       1.0  0.22406  0.01138  0.05997  1.0000
  C   C43       1.0  0.33443  0.05875  0.49441  1.0000
  H   H27       1.0  0.27270  0.02198  0.19764  1.0000
  H   H28       1.0  0.02489  0.15927  0.21604  1.0000
  C   C44       1.0  0.21242  0.07646  0.26617  1.0000
  H   H29       1.0  0.02682  0.04968  0.31467  1.0000
  C   C45       1.0  0.30840  0.24201  0.49466  1.0000
  C   C46       1.0  0.04601  0.02077  0.30988  1.0000
  C   C47       1.0  0.22960  0.01359  0.28596  1.0000
  C   C48       1.0  0.06898  0.16015  0.38772  1.0000
  H   H30       1.0  0.07436  0.15234  0.33512  1.0000
  H   H31       1.0  0.21066  0.13686  0.27338  1.0000
  C   C49       1.0  0.18292  0.01931  0.25729  1.0000
  H   H32       1.0  0.05520  0.06826  0.22953  1.0000
  H   H33       1.0  0.02984  0.22934  0.20140  1.0000
  H   H34       1.0  0.20875  0.03817  0.21841  1.0000
  H   H35       1.0  0.32365  0.18841  0.39864  1.0000
  H   H36       1.0  0.06937  0.19110  0.33370  1.0000
  C   C50       1.0  0.11324  0.21322  0.49632  1.0000
  C   C51       1.0  0.00986  0.12438  0.12205  1.0000
  H   H37       1.0  0.32875  0.14245  0.41837  1.0000
  C   C52       1.0  0.33540  0.04798  0.08489  1.0000
  C   C53       1.0  0.01032  0.23093  0.28517  1.0000
  C   C54       1.0  0.07228  0.16077  0.34961  1.0000
  H   H38       1.0  0.06398  0.18992  0.40188  1.0000
  C   C55       1.0  0.22001  0.03399  0.28688  1.0000
  C   C56       1.0  0.05179  0.19942  0.11807  1.0000
  H   H39       1.0  0.18247  0.11545  0.29053  1.0000
  H   H40       1.0  0.04413  0.24865  0.23335  1.0000
  P   P1        1.0  0.06319  0.22206  0.36663  1.0000
  C   C57       1.0  0.06644  0.18213  0.38712  1.0000
  C   C58       1.0  0.21541  0.04256  0.30673  1.0000
  H   H41       1.0  0.06165  0.19558  0.10414  1.0000
  C   C59       1.0  0.06665  0.19363  0.36769  1.0000
  H   H42       1.0  0.29353  0.24969  0.05867  1.0000
  P   P2        1.0  0.21297  0.04841  0.26278  1.0000
  C   C60       1.0  0.05620  0.23149  0.40901  1.0000
  H   H43       1.0  0.02464  0.09313  0.23802  1.0000
  H   H44       1.0  0.04348  0.05817  0.34681  1.0000
  H   H45       1.0  0.06287  0.22767  0.29333  1.0000
  H   H46       1.0  0.19460  0.00747  0.26252  1.0000
  H   H47       1.0  0.06840  0.15136  0.40273  1.0000
  H   H48       1.0  0.13236  0.02311  0.24188  1.0000
  C   C61       1.0  0.01163  0.19643  0.42449  1.0000
  C   C62       1.0  0.24005  0.03016  0.20590  1.0000
  Fe  Fe4       1.0  0.01337  0.22904  0.47295  1.0000
  H   H49       1.0  0.32789  0.11635  0.44837  1.0000
  C   C63       1.0  0.01384  0.05381  0.27444  1.0000
  C   C64       1.0  0.25614  0.00682  0.04715  1.0000
  S   S12       1.0  0.32231  0.12288  0.49515  1.0000
  C   C65       1.0  0.06456  0.03041  0.34713  1.0000
  H   H50       1.0  0.31415  0.22025  0.41853  1.0000
  C   C66       1.0  0.17200  0.05552  0.24852  1.0000
  S   S13       1.0  0.24879  0.00836  0.49447  1.0000
  S   S14       1.0  0.02148  0.20329  0.44894  1.0000
  C   C67       1.0  0.09006  0.24088  0.39281  1.0000
  P   P3        1.0  0.03463  0.01517  0.28535  1.0000
  H   H51       1.0  0.29300  0.08156  0.09555  1.0000
  H   H52       1.0  0.04875  0.23316  0.15815  1.0000
  C   C68       1.0  0.06154  0.23940  0.42803  1.0000
  H   H53       1.0  0.08032  0.01170  0.27590  1.0000
  H   H54       1.0  0.07979  0.00414  0.40131  1.0000
  C   C69       1.0  0.22531  0.03673  0.22178  1.0000
  C   C70       1.0  0.26148  0.02767  0.20985  1.0000
  H   H55       1.0  0.24111  0.08161  0.24681  1.0000
  H   H56       1.0  0.28668  0.09871  0.48917  1.0000
  C   C71       1.0  0.02597  0.21027  0.15349  1.0000
  C   C72       1.0  0.02401  0.21793  0.34975  1.0000
  C   C73       1.0  0.32646  0.17075  0.34348  1.0000
  H   H57       1.0  0.05056  0.23854  0.44173  1.0000
  C   C74       1.0  0.07185  0.14948  0.36897  1.0000
  H   H58       1.0  0.07954  0.21279  0.49412  1.0000
  H   H59       1.0  0.17517  0.07198  0.24645  1.0000
  H   H60       1.0  0.21659  0.01869  0.39574  1.0000
  C   C75       1.0  0.07963  0.23282  0.34504  1.0000
  C   C76       1.0  0.14783  0.02796  0.24528  1.0000
  C   C77       1.0  0.24042  0.01482  0.06143  1.0000
  C   C78       1.0  0.03104  0.03955  0.26976  1.0000
  C   C79       1.0  0.19530  0.10801  0.28105  1.0000
  H   H61       1.0  0.20774  0.05799  0.30821  1.0000
  C   C80       1.0  0.05758  0.21503  0.13096  1.0000
  H   H62       1.0  0.02765  0.17308  0.17919  1.0000
  C   C81       1.0  0.07039  0.23218  0.39122  1.0000
  C   C82       1.0  0.06951  0.18272  0.34892  1.0000
  C   C83       1.0  0.01085  0.16131  0.20701  1.0000
  C   C84       1.0  0.32011  0.09515  0.49351  1.0000
  C   C85       1.0  0.30005  0.08759  0.49087  1.0000
  H   H63       1.0  0.07189  0.22322  0.12703  1.0000
  C   C86       1.0  0.04774  0.23431  0.28840  1.0000
  H   H64       1.0  0.31411  0.24229  0.02522  1.0000
  H   H65       1.0  0.23293  0.00634  0.27097  1.0000
  H   H66       1.0  0.18337  0.07722  0.28594  1.0000
  H   H67       1.0  0.03173  0.16804  0.42292  1.0000
  H   H68       1.0  0.11685  0.20595  0.48137  1.0000
  C   C87       1.0  0.21116  0.12005  0.27139  1.0000
  H   H69       1.0  0.07352  0.13242  0.36934  1.0000
  C   C88       1.0  0.22010  0.03083  0.32521  1.0000
  S   S15       1.0  0.01907  0.11987  0.28922  1.0000
  C   C89       1.0  0.02631  0.07809  0.24662  1.0000
  C   C90       1.0  0.01877  0.22180  0.21246  1.0000
  H   H70       1.0  0.07234  0.03464  0.36094  1.0000
  C   C91       1.0  0.09530  0.24891  0.41185  1.0000
  C   C92       1.0  0.03589  0.22988  0.36222  1.0000
  C   C93       1.0  0.24579  0.02728  0.07760  1.0000
  C   C94       1.0  0.28262  0.02388  0.06519  1.0000
  C   C95       1.0  0.06201  0.00728  0.31837  1.0000
  H   H71       1.0  0.02480  0.14496  0.14170  1.0000
  C   C96       1.0  0.04349  0.06409  0.24187  1.0000
  H   H72       1.0  0.09846  0.25023  0.08661  1.0000
  H   H73       1.0  0.32210  0.18356  0.33247  1.0000
  C   C97       1.0  0.03313  0.18911  0.12293  1.0000
  C   C98       1.0  0.32454  0.13430  0.35563  1.0000
  C   C99       1.0  0.00974  0.00341  0.29212  1.0000
  C   C100      1.0  0.10553  0.24970  0.31185  1.0000
  H   H74       1.0  0.31869  0.11885  0.35405  1.0000
  H   H75       1.0  0.07070  0.24349  0.20406  1.0000
  C   C101      1.0  0.31867  0.15089  0.34161  1.0000
  H   H76       1.0  0.12761  0.22371  0.31895  1.0000
  H   H77       1.0  0.14018  0.06079  0.23841  1.0000
  Fe  Fe5       1.0  0.28397  0.00182  0.49686  1.0000
  Fe  Fe6       1.0  0.31306  0.01144  0.13459  1.0000
  S   S16       1.0  0.03430  0.22890  0.50084  1.0000
  H   H78       1.0  0.30820  0.14832  0.32921  1.0000
  H   H79       1.0  0.23148  0.00581  0.42967  1.0000
  H   H80       1.0  0.28154  0.06035  0.48834  1.0000
  C   C102      1.0  0.21353  0.00302  0.40200  1.0000
  C   C103      1.0  0.32317  0.00129  0.04118  1.0000
  C   C104      1.0  0.01095  0.14278  0.13299  1.0000
  H   H81       1.0  0.02285  0.11256  0.12220  1.0000
  C   C105      1.0  0.07136  0.01219  0.33678  1.0000
  H   H82       1.0  0.03090  0.20720  0.29974  1.0000
  H   H83       1.0  0.01915  0.15745  0.38879  1.0000
  C   C106      1.0  0.30038  0.03883  0.00744  1.0000
  C   C107      1.0  0.08103  0.24820  0.42945  1.0000
  C   C108      1.0  0.33562  0.19523  0.40719  1.0000
  C   C109      1.0  0.23428  0.00194  0.30446  1.0000
  C   C110      1.0  0.00885  0.25057  0.27440  1.0000
  H   H84       1.0  0.23238  0.00128  0.33847  1.0000
  H   H85       1.0  0.32044  0.00250  0.42523  1.0000
  H   H86       1.0  0.26199  0.24400  0.00228  1.0000
  H   H87       1.0  0.31119  0.08290  0.53552  1.0000
  C   C111      1.0  0.25369  0.09418  0.97110  1.0000
  H   H88       1.0  0.21830  0.06919  0.63297  1.0000
  C   C112      1.0  0.23653  0.19326  0.98816  1.0000
  H   H89       1.0  0.22671  0.03511  0.61592  1.0000
  C   C113      1.0  0.04314  0.01610  0.64458  1.0000
  C   C114      1.0  0.02359  0.06612  0.64323  1.0000
  C   C115      1.0  0.26015  0.11904  0.93378  1.0000
  Fe  Fe7       1.0  0.14298  0.01008  0.69118  1.0000
  Fe  Fe8       1.0  0.30425  0.01375  0.86134  1.0000
  S   S17       1.0  0.29422  0.04293  0.87991  1.0000
  C   C116      1.0  0.00410  0.04081  0.69558  1.0000
  C   C117      1.0  0.33414  0.13549  0.88684  1.0000
  H   H90       1.0  0.03546  0.19127  0.74576  1.0000
  H   H91       1.0  0.14591  0.21590  0.50278  1.0000
  S   S18       1.0  0.03696  0.15959  0.69322  1.0000
  H   H92       1.0  0.18438  0.02910  0.62825  1.0000
  Fe  Fe9       1.0  0.03050  0.12519  0.69860  1.0000
  S   S19       1.0  0.05113  0.10100  0.71694  1.0000
  S   S20       1.0  0.12303  0.03808  0.67770  1.0000
  C   C118      1.0  0.26735  0.21080  0.99671  1.0000
  H   H93       1.0  0.29420  0.20319  0.57047  1.0000
  C   C119      1.0  0.06969  0.08208  0.70586  1.0000
  C   C120      1.0  0.07210  0.07952  0.68411  1.0000
  C   C121      1.0  0.08791  0.06522  0.67589  1.0000
  C   C122      1.0  0.10154  0.05345  0.68924  1.0000
  C   C123      1.0  0.09845  0.05525  0.71106  1.0000
  C   C124      1.0  0.08259  0.06952  0.71931  1.0000
  H   H94       1.0  0.06205  0.08881  0.67362  1.0000
  H   H95       1.0  0.08979  0.06346  0.65903  1.0000
  H   H96       1.0  0.10879  0.04627  0.72152  1.0000
  H   H97       1.0  0.08074  0.07129  0.73617  1.0000
  C   C125      1.0  0.02730  0.19926  0.57286  1.0000
  C   C126      1.0  0.03665  0.18838  0.59019  1.0000
  H   H98       1.0  0.03657  0.20216  0.55830  1.0000
  H   H99       1.0  0.05315  0.18313  0.58876  1.0000
  C   C127      1.0  0.08956  0.19220  0.61139  1.0000
  C   C128      1.0  0.03360  0.21247  0.77164  1.0000
  C   C129      1.0  0.02527  0.20177  0.75523  1.0000
  H   H100      1.0  0.22921  0.17908  0.98448  1.0000
  C   C130      1.0  0.12491  0.22825  0.52765  1.0000
  C   C131      1.0  0.06807  0.21871  0.92170  1.0000
  H   H101      1.0  0.30872  0.09153  0.86633  1.0000
  H   H102      1.0  0.03523  0.09237  0.62426  1.0000
  C   C132      1.0  0.32497  0.18713  0.57125  1.0000
  C   C133      1.0  0.24216  0.20203  0.93187  1.0000
  S   S21       1.0  0.31802  0.01323  0.82770  1.0000
  H   H103      1.0  0.22573  0.15221  0.93336  1.0000
  C   C134      1.0  0.19680  0.03770  0.65700  1.0000
  H   H104      1.0  0.20625  0.05003  0.68576  1.0000
  S   S22       1.0  0.27320  0.16720  0.98993  1.0000
  C   C135      1.0  0.07020  0.01303  0.67785  1.0000
  H   H105      1.0  0.33183  0.10546  0.60466  1.0000
  H   H106      1.0  0.07109  0.22993  0.52780  1.0000
  H   H107      1.0  0.20646  0.02316  0.65870  1.0000
  C   C136      1.0  0.30874  0.08121  0.92574  1.0000
  C   C137      1.0  0.29792  0.07032  0.91129  1.0000
  C   C138      1.0  0.30827  0.05434  0.89945  1.0000
  C   C139      1.0  0.00877  0.14513  0.76771  1.0000
  H   H108      1.0  0.13782  0.23226  0.53684  1.0000
  H   H109      1.0  0.30054  0.09348  0.93468  1.0000
  H   H110      1.0  0.28144  0.07434  0.90910  1.0000
  C   C140      1.0  0.26126  0.11423  0.97192  1.0000
  Fe  Fe10      1.0  0.02191  0.15727  0.66190  1.0000
  C   C141      1.0  0.05949  0.23144  0.93775  1.0000
  H   H111      1.0  0.10949  0.17272  0.59082  1.0000
  C   C142      1.0  0.25200  0.09905  0.93316  1.0000
  C   C143      1.0  0.29000  0.04526  0.97152  1.0000
  C   C144      1.0  0.26124  0.19905  0.91997  1.0000
  C   C145      1.0  0.25834  0.19219  0.99173  1.0000
  C   C146      1.0  0.25476  0.22991  0.99821  1.0000
  C   C147      1.0  0.08009  0.21225  0.61436  1.0000
  H   H112      1.0  0.29294  0.02996  0.60074  1.0000
  H   H113      1.0  0.24298  0.07111  0.95108  1.0000
  C   C148      1.0  0.33142  0.10191  0.55148  1.0000
  H   H114      1.0  0.32260  0.13989  0.85565  1.0000
  C   C149      1.0  0.10231  0.18833  0.59315  1.0000
  H   H115      1.0  0.32860  0.05927  0.81020  1.0000
  C   C150      1.0  0.09221  0.21712  0.50350  1.0000
  C   C151      1.0  0.31055  0.08714  0.58879  1.0000
  C   C152      1.0  0.23557  0.16525  0.92914  1.0000
  C   C153      1.0  0.07782  0.00748  0.65773  1.0000
  H   H116      1.0  0.07041  0.00517  0.62537  1.0000
  C   C154      1.0  0.08324  0.22843  0.59905  1.0000
  P   P4        1.0  0.00848  0.03263  0.66878  1.0000
  C   C155      1.0  0.00956  0.06082  0.70093  1.0000
  H   H117      1.0  0.31030  0.23013  0.52663  1.0000
  H   H118      1.0  0.30010  0.07601  0.83310  1.0000
  C   C156      1.0  0.33019  0.07635  0.92837  1.0000
  C   C157      1.0  0.04903  0.01995  0.68150  1.0000
  S   S23       1.0  0.01823  0.12226  0.66650  1.0000
  C   C158      1.0  0.24905  0.08659  0.95172  1.0000
  C   C159      1.0  0.02477  0.18401  0.60920  1.0000
  H   H119      1.0  0.01027  0.08269  0.72548  1.0000
  C   C160      1.0  0.00380  0.20459  0.75122  1.0000
  C   C161      1.0  0.02079  0.22650  0.78405  1.0000
  C   C162      1.0  0.32862  0.13335  0.90839  1.0000
  C   C163      1.0  0.23296  0.23098  0.99451  1.0000
  H   H120      1.0  0.23816  0.10036  0.62163  1.0000
  C   C164      1.0  0.01976  0.12564  0.76574  1.0000
  H   H121      1.0  0.33010  0.01211  0.97040  1.0000
  C   C165      1.0  0.23094  0.06786  0.62087  1.0000
  C   C166      1.0  0.06430  0.00900  0.64107  1.0000
  H   H122      1.0  0.05017  0.20991  0.77468  1.0000
  C   C167      1.0  0.31123  0.00547  0.58490  1.0000
  H   H123      1.0  0.06828  0.23248  0.95172  1.0000
  H   H124      1.0  0.30296  0.06845  0.98987  1.0000
  H   H125      1.0  0.05368  0.23359  0.56705  1.0000
  C   C168      1.0  0.10378  0.23263  0.53478  1.0000
  H   H126      1.0  0.30308  0.08106  0.60339  1.0000
  H   H127      1.0  0.29442  0.01001  0.91308  1.0000
  C   C169      1.0  0.18448  0.07168  0.66974  1.0000
  C   C170      1.0  0.17211  0.07522  0.65225  1.0000
  C   C171      1.0  0.17130  0.05959  0.63750  1.0000
  C   C172      1.0  0.18404  0.04098  0.63985  1.0000
  P   P5        1.0  0.15739  0.06459  0.61366  1.0000
  C   C173      1.0  0.13583  0.08427  0.61619  1.0000
  C   C174      1.0  0.17769  0.07258  0.59441  1.0000
  C   C175      1.0  0.18989  0.05739  0.58307  1.0000
  C   C176      1.0  0.20625  0.06336  0.56880  1.0000
  C   C177      1.0  0.21090  0.08450  0.56613  1.0000
  C   C178      1.0  0.19922  0.09968  0.57778  1.0000
  C   C179      1.0  0.18273  0.09374  0.59201  1.0000
  C   C180      1.0  0.12987  0.09685  0.59853  1.0000
  C   C181      1.0  0.11299  0.11194  0.60038  1.0000
  C   C182      1.0  0.10186  0.11446  0.61982  1.0000
  C   C183      1.0  0.10742  0.10170  0.63734  1.0000
  C   C184      1.0  0.12408  0.08639  0.63547  1.0000
  C   C185      1.0  0.14582  0.04118  0.60577  1.0000
  C   C186      1.0  0.14274  0.03846  0.58437  1.0000
  C   C187      1.0  0.13443  0.02004  0.57812  1.0000
  C   C188      1.0  0.12871  0.00443  0.59321  1.0000
  C   C189      1.0  0.13106  0.00735  0.61458  1.0000
  C   C190      1.0  0.13953  0.02567  0.62087  1.0000
  H   H128      1.0  0.25478  0.03239  0.58769  1.0000
  H   H129      1.0  0.31890  0.17155  0.57216  1.0000
  H   H130      1.0  0.18446  0.08345  0.68148  1.0000
  H   H131      1.0  0.16326  0.09014  0.65034  1.0000
  C   C191      1.0  0.31642  0.07613  0.83726  1.0000
  H   H132      1.0  0.18703  0.04085  0.58538  1.0000
  H   H133      1.0  0.21548  0.05142  0.56010  1.0000
  H   H134      1.0  0.22372  0.08906  0.55524  1.0000
  H   H135      1.0  0.20305  0.11602  0.57588  1.0000
  H   H136      1.0  0.17410  0.10558  0.60128  1.0000
  H   H137      1.0  0.13812  0.09487  0.58329  1.0000
  H   H138      1.0  0.10841  0.12158  0.58672  1.0000
  H   H139      1.0  0.08875  0.12612  0.62131  1.0000
  H   H140      1.0  0.09866  0.10351  0.65238  1.0000
  H   H141      1.0  0.12770  0.07618  0.64907  1.0000
  H   H142      1.0  0.14710  0.05039  0.57247  1.0000
  H   H143      1.0  0.13267  0.01775  0.56153  1.0000
  H   H144      1.0  0.27664  0.01940  0.95745  1.0000
  H   H145      1.0  0.04379  0.02470  0.69715  1.0000
  H   H146      1.0  0.14138  0.02759  0.63748  1.0000
  H   H147      1.0  0.08321  0.21021  0.92345  1.0000
  C   C192      1.0  0.05369  0.25031  0.56331  1.0000
  Fe  Fe11      1.0  0.33585  0.11765  0.96723  1.0000
  C   C193      1.0  0.29736  0.03755  0.56720  1.0000
  C   C194      1.0  0.23572  0.04871  0.61134  1.0000
  H   H148      1.0  0.03691  0.12457  0.76514  1.0000
  C   C195      1.0  0.04014  0.24297  0.93539  1.0000
  C   C196      1.0  0.28553  0.01113  0.98917  1.0000
  H   H149      1.0  0.28849  0.05574  0.95769  1.0000
  C   C197      1.0  0.31834  0.13809  0.87237  1.0000
  C   C198      1.0  0.29703  0.13824  0.87945  1.0000
  C   C199      1.0  0.29136  0.13532  0.90108  1.0000
  C   C200      1.0  0.30734  0.13345  0.91552  1.0000
  P   P6        1.0  0.26375  0.13577  0.91014  1.0000
  C   C201      1.0  0.25479  0.16207  0.91727  1.0000
  C   C202      1.0  0.24875  0.12627  0.88954  1.0000
  C   C203      1.0  0.22954  0.13652  0.88398  1.0000
  C   C204      1.0  0.21804  0.12870  0.86821  1.0000
  C   C205      1.0  0.22562  0.11063  0.85791  1.0000
  C   C206      1.0  0.24477  0.10042  0.86327  1.0000
  C   C207      1.0  0.25634  0.10825  0.87893  1.0000
  H   H150      1.0  0.01744  0.09271  0.76145  1.0000
  H   H151      1.0  0.30591  0.04066  0.53385  1.0000
  H   H152      1.0  0.32639  0.00672  0.53258  1.0000
  S   S24       1.0  0.03216  0.23886  0.80517  1.0000
  C   C208      1.0  0.26755  0.17916  0.91263  1.0000
  H   H153      1.0  0.03549  0.01396  0.74729  1.0000
  H   H154      1.0  0.23754  0.21729  0.93808  1.0000
  C   C209      1.0  0.12958  0.21878  0.50840  1.0000
  C   C210      1.0  0.31110  0.20494  0.57029  1.0000
  C   C211      1.0  0.00610  0.06715  0.72165  1.0000
  C   C212      1.0  0.03807  0.22859  0.90085  1.0000
  C   C213      1.0  0.09554  0.22454  0.58037  1.0000
  H   H155      1.0  0.28503  0.14057  0.86801  1.0000
  H   H156      1.0  0.30351  0.13181  0.93230  1.0000
  H   H157      1.0  0.22334  0.15049  0.89173  1.0000
  H   H158      1.0  0.20318  0.13660  0.86403  1.0000
  H   H159      1.0  0.21661  0.10449  0.84581  1.0000
  H   H160      1.0  0.25062  0.08630  0.85542  1.0000
  H   H161      1.0  0.27112  0.10008  0.88291  1.0000
  C   C214      1.0  0.26466  0.12652  0.95336  1.0000
  C   C215      1.0  0.02958  0.24156  0.91671  1.0000
  C   C216      1.0  0.24219  0.08546  0.61448  1.0000
  H   H162      1.0  0.27137  0.21207  0.91690  1.0000
  H   H163      1.0  0.28261  0.17714  0.90388  1.0000
  H   H164      1.0  0.32976  0.00753  0.92729  1.0000
  C   C217      1.0  0.30727  0.03095  0.54817  1.0000
  H   H165      1.0  0.11489  0.20095  0.56349  1.0000
  C   C218      1.0  0.28346  0.02473  0.97136  1.0000
  H   H166      1.0  0.24785  0.09291  0.91850  1.0000
  H   H167      1.0  0.21465  0.18749  0.94582  1.0000
  H   H168      1.0  0.30789  0.23850  0.56812  1.0000
  C   C219      1.0  0.25259  0.09295  0.51931  1.0000
  C   C220      1.0  0.24109  0.07698  0.51206  1.0000
  C   C221      1.0  0.24301  0.05673  0.52139  1.0000
  C   C222      1.0  0.25684  0.05223  0.53754  1.0000
  C   C223      1.0  0.26862  0.06814  0.54478  1.0000
  C   C224      1.0  0.26606  0.08866  0.53583  1.0000
  P   P7        1.0  0.28350  0.06300  0.56796  1.0000
  C   C225      1.0  0.26374  0.06461  0.58945  1.0000
  H   H169      1.0  0.26439  0.12044  0.98696  1.0000
  H   H170      1.0  0.03934  0.06041  0.64715  1.0000
  S   S25       1.0  0.31091  0.11520  0.99360  1.0000
  S   S26       1.0  0.33052  0.15301  0.96307  1.0000
  C   C226      1.0  0.25842  0.08392  0.59869  1.0000
  H   H171      1.0  0.00652  0.23952  0.72188  1.0000
  C   C227      1.0  0.33248  0.06659  0.82443  1.0000
  S   S27       1.0  0.22109  0.00291  0.55103  1.0000
  H   H172      1.0  0.01483  0.25059  0.91428  1.0000
  C   C228      1.0  0.30415  0.08116  0.56925  1.0000
  C   C229      1.0  0.32945  0.04864  0.90289  1.0000
  C   C230      1.0  0.00776  0.24769  0.97081  1.0000
  C   C231      1.0  0.29980  0.02489  0.58570  1.0000
  H   H173      1.0  0.27058  0.14202  0.95438  1.0000
  H   H174      1.0  0.08655  0.17958  0.62306  1.0000
  H   H175      1.0  0.25113  0.10869  0.51210  1.0000
  C   C232      1.0  0.29819  0.05239  0.98964  1.0000
  H   H176      1.0  0.01738  0.15919  0.76877  1.0000
  H   H177      1.0  0.25790  0.03644  0.54470  1.0000
  H   H178      1.0  0.27435  0.10141  0.54157  1.0000
  C   C233      1.0  0.31900  0.22502  0.56884  1.0000
  S   S28       1.0  0.03747  0.17059  0.63079  1.0000
  H   H179      1.0  0.28399  0.21044  0.99962  1.0000
  H   H180      1.0  0.26656  0.09786  0.59346  1.0000
  C   C234      1.0  0.05737  0.21727  0.90326  1.0000
  C   C235      1.0  0.30239  0.24148  0.51621  1.0000
  C   C236      1.0  0.10530  0.20441  0.57767  1.0000
  H   H181      1.0  0.01653  0.07164  0.68920  1.0000
  H   H182      1.0  0.07386  0.01033  0.73719  1.0000
  C   C237      1.0  0.22925  0.18519  0.93627  1.0000
  C   C238      1.0  0.02136  0.08438  0.63027  1.0000
  C   C239      1.0  0.19680  0.05291  0.67213  1.0000
  C   C240      1.0  0.03526  0.02146  0.66488  1.0000
  H   H183      1.0  0.09438  0.00249  0.65507  1.0000
  H   H184      1.0  0.25124  0.08464  0.98552  1.0000
  H   H185      1.0  0.23354  0.04451  0.51631  1.0000
  S   S29       1.0  0.17814  0.00752  0.69576  1.0000
  H   H186      1.0  0.08102  0.01259  0.69047  1.0000
  H   H187      1.0  0.06414  0.20759  0.89074  1.0000
  Fe  Fe12      1.0  0.30710  0.15108  0.99126  1.0000
  C   C241      1.0  0.32695  0.10083  0.58958  1.0000
  C   C242      1.0  0.22401  0.21242  0.98935  1.0000
  C   C243      1.0  0.08747  0.22686  0.52262  1.0000
  H   H188      1.0  0.06979  0.21501  0.62830  1.0000
  C   C244      1.0  0.25187  0.04715  0.59547  1.0000
  H   H189      1.0  0.07607  0.25018  0.72127  1.0000
  H   H190      1.0  0.18410  0.00299  0.57959  1.0000
  H   H191      1.0  0.02982  0.22759  0.88651  1.0000
  H   H192      1.0  0.20734  0.21274  0.98656  1.0000
  H   H193      1.0  0.03306  0.01801  0.63136  1.0000
  Fe  Fe13      1.0  0.00390  0.16617  0.70720  1.0000
  C   C245      1.0  0.32129  0.08496  0.85595  1.0000
  P   P8        1.0  0.09771  0.24494  0.55966  1.0000
  Fe  Fe14      1.0  0.00409  0.23444  0.52072  1.0000
  C   C246      1.0  0.31514  0.08815  0.55067  1.0000
  H   H194      1.0  0.07555  0.24380  0.60154  1.0000
  C   C247      1.0  0.00562  0.05593  0.65151  1.0000
  C   C248      1.0  0.00592  0.20616  0.57436  1.0000
  C   C249      1.0  0.00869  0.10763  0.76363  1.0000
  C   C250      1.0  0.31904  0.01176  0.54749  1.0000
  H   H195      1.0  0.04527  0.23923  0.99449  1.0000
  C   C251      1.0  0.00335  0.19069  0.61057  1.0000
  C   C252      1.0  0.28789  0.28810  0.00982  1.0000
  Fe  Fe15      1.0  0.21497  0.34934  0.47915  1.0000
  S   S30       1.0  0.22775  0.36906  0.45048  1.0000
  H   H196      1.0  0.04467  0.35928  0.29654  1.0000
  Fe  Fe16      1.0  0.24654  0.45263  0.00686  1.0000
  C   C253      1.0  0.28665  0.47809  0.25465  1.0000
  S   S31       1.0  0.21612  0.31379  0.47876  1.0000
  S   S32       1.0  0.22435  0.48631  0.36178  1.0000
  C   C254      1.0  0.30373  0.25638  0.02628  1.0000
  S   S33       1.0  0.18669  0.46547  0.33718  1.0000
  C   C255      1.0  0.11928  0.30770  0.50090  1.0000
  Fe  Fe17      1.0  0.19385  0.47069  0.37106  1.0000
  S   S34       1.0  0.18603  0.44972  0.40088  1.0000
  Fe  Fe18      1.0  0.21605  0.48349  0.32788  1.0000
  C   C256      1.0  0.27992  0.37124  0.49712  1.0000
  C   C257      1.0  0.12250  0.27385  0.48518  1.0000
  Fe  Fe19      1.0  0.01642  0.31283  0.16311  1.0000
  C   C258      1.0  0.01843  0.36308  0.19092  1.0000
  H   H197      1.0  0.22912  0.43732  0.46978  1.0000
  S   S35       1.0  0.24088  0.47930  0.02923  1.0000
  H   H198      1.0  0.10428  0.43764  0.39238  1.0000
  C   C259      1.0  0.03217  0.30924  0.26771  1.0000
  C   C260      1.0  0.28139  0.34353  0.47220  1.0000
  H   H199      1.0  0.01004  0.39382  0.04276  1.0000
  C   C261      1.0  0.08747  0.28848  0.49629  1.0000
  S   S36       1.0  0.11818  0.30788  0.03549  1.0000
  S   S37       1.0  0.01501  0.26398  0.46611  1.0000
  Fe  Fe20      1.0  0.03395  0.28014  0.13111  1.0000
  S   S38       1.0  0.06318  0.26638  0.11257  1.0000
  H   H200      1.0  0.27865  0.33834  0.45663  1.0000
  H   H201      1.0  0.08073  0.27398  0.30869  1.0000
  S   S39       1.0  0.03261  0.28040  0.16669  1.0000
  H   H202      1.0  0.27899  0.48412  0.19393  1.0000
  C   C262      1.0  0.33156  0.43610  0.07081  1.0000
  Fe  Fe21      1.0  0.03469  0.47574  0.25909  1.0000
  S   S40       1.0  0.03323  0.47813  0.22368  1.0000
  S   S41       1.0  0.06744  0.46601  0.27170  1.0000
  C   C263      1.0  0.02943  0.28855  0.03334  1.0000
  C   C264      1.0  0.28381  0.49065  0.11274  1.0000
  C   C265      1.0  0.12748  0.36992  0.49495  1.0000
  S   S42       1.0  0.02036  0.31325  0.12759  1.0000
  H   H203      1.0  0.27111  0.49960  0.31006  1.0000
  H   H204      1.0  0.18754  0.32393  0.06965  1.0000
  S   S43       1.0  0.02730  0.33660  0.18582  1.0000
  S   S44       1.0  0.33455  0.46882  0.19474  1.0000
  H   H205      1.0  0.09324  0.25856  0.48225  1.0000
  C   C266      1.0  0.10222  0.29532  0.05582  1.0000
  C   C267      1.0  0.08482  0.30687  0.06518  1.0000
  C   C268      1.0  0.07237  0.29813  0.08218  1.0000
  C   C269      1.0  0.07735  0.27774  0.09021  1.0000
  C   C270      1.0  0.09448  0.26603  0.08058  1.0000
  C   C271      1.0  0.10679  0.27470  0.06343  1.0000
  H   H206      1.0  0.08115  0.32281  0.05941  1.0000
  H   H207      1.0  0.05927  0.30731  0.08943  1.0000
  Fe  Fe22      1.0  0.27589  0.48370  0.02544  1.0000
  H   H208      1.0  0.12011  0.26561  0.05644  1.0000
  C   C272      1.0  0.00668  0.40588  0.19920  1.0000
  C   C273      1.0  0.04157  0.30733  0.28724  1.0000
  H   H209      1.0  0.22791  0.40021  0.48309  1.0000
  H   H210      1.0  0.29230  0.31287  0.48405  1.0000
  C   C274      1.0  0.05095  0.26229  0.22548  1.0000
  H   H211      1.0  0.10897  0.41413  0.45644  1.0000
  C   C275      1.0  0.15422  0.49427  0.48075  1.0000
  H   H212      1.0  0.19626  0.35508  0.01051  1.0000
  C   C276      1.0  0.04578  0.32981  0.00723  1.0000
  H   H213      1.0  0.04793  0.32857  0.02406  1.0000
  S   S45       1.0  0.18234  0.35154  0.49500  1.0000
  H   H214      1.0  0.21104  0.46575  0.49044  1.0000
  H   H215      1.0  0.30196  0.25731  0.46455  1.0000
  S   S46       1.0  0.28175  0.45583  0.00503  1.0000
  C   C277      1.0  0.02609  0.37278  0.20822  1.0000
  C   C278      1.0  0.26151  0.48060  0.28566  1.0000
  S   S47       1.0  0.23344  0.42022  0.01602  1.0000
  H   H216      1.0  0.21349  0.38217  0.02941  1.0000
  H   H217      1.0  0.08506  0.25437  0.44422  1.0000
  H   H218      1.0  0.08641  0.27426  0.18505  1.0000
  C   C279      1.0  0.02688  0.26229  0.27053  1.0000
  C   C280      1.0  0.20666  0.49565  0.06887  1.0000
  C   C281      1.0  0.08621  0.47782  0.28674  1.0000
  C   C282      1.0  0.10587  0.46701  0.28993  1.0000
  C   C283      1.0  0.12134  0.47571  0.30154  1.0000
  H   H219      1.0  0.10916  0.45173  0.28338  1.0000
  H   H220      1.0  0.13636  0.46718  0.30373  1.0000
  C   C284      1.0  0.21622  0.39187  0.43722  1.0000
  C   C285      1.0  0.22619  0.39978  0.41834  1.0000
  C   C286      1.0  0.21738  0.41752  0.40706  1.0000
  C   C287      1.0  0.19845  0.42765  0.41457  1.0000
  C   C288      1.0  0.18869  0.41994  0.43366  1.0000
  C   C289      1.0  0.19748  0.40218  0.44490  1.0000
  H   H221      1.0  0.24072  0.39199  0.41223  1.0000
  H   H222      1.0  0.22512  0.42322  0.39245  1.0000
  H   H223      1.0  0.17415  0.42774  0.43965  1.0000
  H   H224      1.0  0.18975  0.39633  0.45942  1.0000
  C   C290      1.0  0.06917  0.34770  0.46997  1.0000
  C   C291      1.0  0.29766  0.25678  0.48128  1.0000
  P   P9        1.0  0.00347  0.32207  0.01762  1.0000
  H   H225      1.0  0.15117  0.49089  0.46467  1.0000
  H   H226      1.0  0.12575  0.37344  0.40497  1.0000
  H   H227      1.0  0.04843  0.31590  0.22440  1.0000
  H   H228      1.0  0.05782  0.25927  0.33768  1.0000
  C   C292      1.0  0.27835  0.27848  0.04635  1.0000
  C   C293      1.0  0.30073  0.49130  0.07728  1.0000
  H   H229      1.0  0.01923  0.33141  0.24414  1.0000
  H   H230      1.0  0.05340  0.32383  0.31260  1.0000
  H   H231      1.0  0.30495  0.40387  0.04190  1.0000
  H   H232      1.0  0.33586  0.49974  0.11469  1.0000
  C   C294      1.0  0.21213  0.38410  0.01255  1.0000
  C   C295      1.0  0.27526  0.49360  0.29464  1.0000
  Fe  Fe23      1.0  0.14439  0.29760  0.01084  1.0000
  C   C296      1.0  0.26751  0.47276  0.26567  1.0000
  C   C297      1.0  0.00409  0.36256  0.10856  1.0000
  H   H233      1.0  0.02633  0.40123  0.22567  1.0000
  H   H234      1.0  0.27320  0.28188  0.47864  1.0000
  H   H235      1.0  0.16204  0.38275  0.42182  1.0000
  H   H236      1.0  0.33147  0.45258  0.07423  1.0000
  H   H237      1.0  0.03769  0.28855  0.01795  1.0000
  C   C298      1.0  0.02604  0.27362  0.06905  1.0000
  C   C299      1.0  0.03150  0.34736  0.26932  1.0000
  C   C300      1.0  0.27604  0.29234  0.02866  1.0000
  S   S48       1.0  0.23705  0.47310  0.29873  1.0000
  S   S49       1.0  0.17907  0.30473  0.00964  1.0000
  H   H238      1.0  0.11678  0.40272  0.37958  1.0000
  H   H239      1.0  0.26909  0.28125  0.06093  1.0000
  H   H240      1.0  0.10012  0.44316  0.43080  1.0000
  H   H241      1.0  0.19530  0.36387  0.41042  1.0000
  C   C301      1.0  0.04637  0.25393  0.27755  1.0000
  C   C302      1.0  0.29213  0.26058  0.04513  1.0000
  C   C303      1.0  0.05336  0.29997  0.22062  1.0000
  H   H242      1.0  0.24864  0.46833  0.21409  1.0000
  C   C304      1.0  0.27711  0.36458  0.47686  1.0000
  H   H243      1.0  0.17866  0.28678  0.06721  1.0000
  C   C305      1.0  0.13213  0.29156  0.49189  1.0000
  C   C306      1.0  0.04611  0.32533  0.29756  1.0000
  H   H244      1.0  0.03578  0.43289  0.15446  1.0000
  H   H245      1.0  0.03686  0.36392  0.21831  1.0000
  S   S50       1.0  0.00829  0.45318  0.26237  1.0000
  C   C307      1.0  0.31702  0.42983  0.05698  1.0000
  C   C308      1.0  0.32169  0.44016  0.14847  1.0000
  H   H246      1.0  0.16392  0.41674  0.49434  1.0000
  C   C309      1.0  0.32105  0.49666  0.10816  1.0000
  C   C310      1.0  0.21998  0.41266  0.49215  1.0000
  P   P10       1.0  0.25677  0.31437  0.02980  1.0000
  C   C311      1.0  0.23232  0.30558  0.04244  1.0000
  C   C312      1.0  0.21792  0.31972  0.05287  1.0000
  C   C313      1.0  0.19877  0.31287  0.06200  1.0000
  H   H247      1.0  0.31928  0.42394  0.17893  1.0000
  C   C314      1.0  0.20787  0.27784  0.05013  1.0000
  C   C315      1.0  0.22702  0.28462  0.04103  1.0000
  C   C316      1.0  0.26566  0.33556  0.04449  1.0000
  C   C317      1.0  0.25679  0.35610  0.04129  1.0000
  C   C318      1.0  0.26321  0.37258  0.05270  1.0000
  C   C319      1.0  0.27845  0.36867  0.06761  1.0000
  C   C320      1.0  0.28744  0.34830  0.07090  1.0000
  C   C321      1.0  0.28111  0.33179  0.05937  1.0000
  C   C322      1.0  0.02255  0.36902  0.11676  1.0000
  P   P11       1.0  0.02587  0.28629  0.25406  1.0000
  C   C323      1.0  0.04466  0.28267  0.23176  1.0000
  C   C324      1.0  0.08715  0.32226  0.44714  1.0000
  H   H248      1.0  0.22115  0.33610  0.05367  1.0000
  H   H249      1.0  0.00531  0.27597  0.21566  1.0000
  C   C325      1.0  0.06606  0.25927  0.20883  1.0000
  H   H250      1.0  0.11047  0.25562  0.41303  1.0000
  H   H251      1.0  0.23733  0.27354  0.03230  1.0000
  H   H252      1.0  0.24481  0.35939  0.02996  1.0000
  H   H253      1.0  0.25619  0.38838  0.05000  1.0000
  H   H254      1.0  0.28320  0.38143  0.07665  1.0000
  C   C326      1.0  0.24647  0.49848  0.49403  1.0000
  C   C327      1.0  0.09753  0.49802  0.23472  1.0000
  S   S51       1.0  0.05936  0.28778  0.49903  1.0000
  C   C328      1.0  0.07493  0.27658  0.19815  1.0000
  C   C329      1.0  0.04229  0.36476  0.10618  1.0000
  C   C330      1.0  0.04333  0.35336  0.08774  1.0000
  P   P12       1.0  0.06658  0.37093  0.11733  1.0000
  C   C331      1.0  0.06168  0.38681  0.14010  1.0000
  C   C332      1.0  0.07945  0.34559  0.12354  1.0000
  C   C333      1.0  0.07057  0.33250  0.13965  1.0000
  C   C334      1.0  0.07913  0.31205  0.14333  1.0000
  C   C335      1.0  0.09644  0.30440  0.13081  1.0000
  C   C336      1.0  0.10526  0.31723  0.11458  1.0000
  C   C337      1.0  0.09673  0.33770  0.11083  1.0000
  C   C338      1.0  0.07040  0.38083  0.15946  1.0000
  C   C339      1.0  0.06661  0.39355  0.17678  1.0000
  C   C340      1.0  0.05426  0.41235  0.17488  1.0000
  C   C341      1.0  0.04574  0.41852  0.15564  1.0000
  C   C342      1.0  0.04963  0.40594  0.13823  1.0000
  C   C343      1.0  0.08296  0.38608  0.09887  1.0000
  C   C344      1.0  0.07553  0.39404  0.07951  1.0000
  C   C345      1.0  0.08876  0.40529  0.06526  1.0000
  C   C346      1.0  0.10935  0.40887  0.07035  1.0000
  C   C347      1.0  0.11667  0.40141  0.08979  1.0000
  C   C348      1.0  0.10349  0.39014  0.10405  1.0000
  H   H255      1.0  0.17706  0.48772  0.28936  1.0000
  H   H256      1.0  0.30863  0.45138  0.15207  1.0000
  H   H257      1.0  0.27116  0.37563  0.46481  1.0000
  H   H258      1.0  0.02133  0.37656  0.13171  1.0000
  H   H259      1.0  0.05850  0.34905  0.07993  1.0000
  H   H260      1.0  0.05666  0.33793  0.14901  1.0000
  H   H261      1.0  0.07185  0.30189  0.15541  1.0000
  H   H262      1.0  0.10246  0.28824  0.13311  1.0000
  H   H263      1.0  0.11809  0.31096  0.10428  1.0000
  H   H264      1.0  0.10318  0.34689  0.09749  1.0000
  H   H265      1.0  0.08005  0.36640  0.16136  1.0000
  H   H266      1.0  0.07284  0.38865  0.19186  1.0000
  H   H267      1.0  0.05083  0.42193  0.18847  1.0000
  H   H268      1.0  0.17137  0.46487  0.48642  1.0000
  C   C349      1.0  0.21024  0.44960  0.49632  1.0000
  H   H269      1.0  0.05960  0.39162  0.07532  1.0000
  H   H270      1.0  0.08311  0.41116  0.05021  1.0000
  H   H271      1.0  0.11966  0.41742  0.05922  1.0000
  H   H272      1.0  0.13261  0.40424  0.09375  1.0000
  H   H273      1.0  0.10937  0.38437  0.11906  1.0000
  Fe  Fe24      1.0  0.03391  0.26415  0.49511  1.0000
  H   H274      1.0  0.32887  0.37710  0.05952  1.0000
  H   H275      1.0  0.26781  0.48613  0.08416  1.0000
  C   C350      1.0  0.01214  0.30284  0.03765  1.0000
  C   C351      1.0  0.13287  0.38068  0.47577  1.0000
  C   C352      1.0  0.33284  0.44154  0.12887  1.0000
  P   P13       1.0  0.12644  0.37069  0.45097  1.0000
  C   C353      1.0  0.15040  0.35664  0.44153  1.0000
  C   C354      1.0  0.10422  0.35413  0.45433  1.0000
  C   C355      1.0  0.10429  0.33511  0.44401  1.0000
  C   C356      1.0  0.08632  0.36055  0.46696  1.0000
  C   C357      1.0  0.15558  0.33627  0.44968  1.0000
  C   C358      1.0  0.17455  0.32566  0.44310  1.0000
  C   C359      1.0  0.18878  0.33553  0.42882  1.0000
  C   C360      1.0  0.18394  0.35597  0.42096  1.0000
  C   C361      1.0  0.16494  0.36659  0.42743  1.0000
  C   C362      1.0  0.11872  0.39181  0.43257  1.0000
  C   C363      1.0  0.11092  0.41144  0.43973  1.0000
  C   C364      1.0  0.10572  0.42790  0.42526  1.0000
  C   C365      1.0  0.10797  0.42478  0.40360  1.0000
  C   C366      1.0  0.11506  0.40510  0.39639  1.0000
  C   C367      1.0  0.12022  0.38859  0.41081  1.0000
  H   H276      1.0  0.03162  0.26263  0.08134  1.0000
  C   C368      1.0  0.08222  0.49750  0.29545  1.0000
  H   H277      1.0  0.13228  0.26117  0.47836  1.0000
  H   H278      1.0  0.15096  0.40560  0.46104  1.0000
  C   C369      1.0  0.08369  0.49667  0.21862  1.0000
  H   H279      1.0  0.11756  0.33005  0.43365  1.0000
  H   H280      1.0  0.08574  0.37537  0.47469  1.0000
  H   H281      1.0  0.14516  0.32865  0.46142  1.0000
  H   H282      1.0  0.17847  0.30995  0.44951  1.0000
  H   H283      1.0  0.20382  0.32760  0.42431  1.0000
  C   C370      1.0  0.00850  0.28732  0.07324  1.0000
  S   S52       1.0  0.30360  0.49655  0.14949  1.0000
  H   H284      1.0  0.05034  0.26379  0.04604  1.0000
  C   C371      1.0  0.30167  0.27018  0.00867  1.0000
  C   C372      1.0  0.19376  0.29194  0.06067  1.0000
  C   C373      1.0  0.31624  0.40862  0.05269  1.0000
  H   H285      1.0  0.11828  0.35616  0.49530  1.0000
  C   C374      1.0  0.15329  0.40404  0.49464  1.0000
  H   H286      1.0  0.28822  0.31617  0.06222  1.0000
  H   H287      1.0  0.29922  0.34527  0.08250  1.0000
  H   H288      1.0  0.07471  0.31045  0.19528  1.0000
  H   H289      1.0  0.25725  0.46242  0.25866  1.0000
  S   S53       1.0  0.16022  0.29234  0.48920  1.0000
  Fe  Fe25      1.0  0.18439  0.31605  0.49705  1.0000
  C   C375      1.0  0.31988  0.49514  0.08618  1.0000
  H   H290      1.0  0.02309  0.36223  0.02436  1.0000
  H   H291      1.0  0.14598  0.49513  0.26778  1.0000
  C   C376      1.0  0.02492  0.34670  0.07975  1.0000
  C   C377      1.0  0.06963  0.32853  0.46015  1.0000
  C   C378      1.0  0.25107  0.48492  0.21509  1.0000
  H   H292      1.0  0.05652  0.31837  0.46286  1.0000
  H   H293      1.0  0.04295  0.41097  0.12340  1.0000
  C   C379      1.0  0.00625  0.25582  0.36501  1.0000
  H   H294      1.0  0.29093  0.47185  0.23937  1.0000
  Fe  Fe26      1.0  0.33246  0.49518  0.16987  1.0000
  H   H295      1.0  0.06063  0.26225  0.27393  1.0000
  C   C380      1.0  0.26821  0.49376  0.20383  1.0000
  H   H296      1.0  0.23853  0.49045  0.48248  1.0000
  H   H297      1.0  0.05559  0.35241  0.48015  1.0000
  H   H298      1.0  0.11553  0.25619  0.29903  1.0000
  H   H299      1.0  0.26974  0.48887  0.12296  1.0000
  C   C381      1.0  0.22068  0.43360  0.48471  1.0000
  H   H300      1.0  0.08753  0.30727  0.43975  1.0000
  H   H301      1.0  0.18553  0.48958  0.04478  1.0000
  C   C382      1.0  0.32975  0.39359  0.06257  1.0000
  C   C383      1.0  0.30037  0.49114  0.26359  1.0000
  C   C384      1.0  0.03651  0.27423  0.04911  1.0000
  C   C385      1.0  0.14594  0.39769  0.47576  1.0000
  H   H302      1.0  0.21011  0.47913  0.07284  1.0000
  C   C386      1.0  0.10035  0.27228  0.48741  1.0000
  C   C387      1.0  0.02015  0.39397  0.21245  1.0000
  C   C388      1.0  0.06844  0.29692  0.20395  1.0000
  H   H303      1.0  0.20372  0.26178  0.04833  1.0000
  C   C389      1.0  0.28264  0.48910  0.09072  1.0000
  C   C390      1.0  0.04115  0.34532  0.28856  1.0000
  C   C391      1.0  0.21108  0.49651  0.42211  1.0000
  H   H304      1.0  0.27655  0.38764  0.50010  1.0000
  H   H305      1.0  0.32809  0.45373  0.11739  1.0000
  H   H306      1.0  0.09860  0.27484  0.00543  1.0000
  C   C392      1.0  0.30303  0.49438  0.12163  1.0000
  Fe  Fe27      1.0  0.16886  0.49707  0.33738  1.0000
  C   C393      1.0  0.28892  0.32918  0.48767  1.0000
  H   H307      1.0  0.03586  0.25879  0.37890  1.0000
  C   C394      1.0  0.32761  0.42461  0.16355  1.0000
  H   H308      1.0  0.04521  0.29209  0.29469  1.0000
  H   H309      1.0  0.33394  0.49699  0.07596  1.0000
  C   C395      1.0  0.08590  0.25969  0.31727  1.0000
  H   H310      1.0  0.02597  0.33729  0.06597  1.0000
  H   H311      1.0  0.30628  0.44153  0.04969  1.0000
  C   C396      1.0  0.17814  0.49839  0.27555  1.0000
  H   H312      1.0  0.02749  0.36287  0.26238  1.0000
  C   C397      1.0  0.11742  0.49549  0.31009  1.0000
  C   C398      1.0  0.02692  0.32944  0.25899  1.0000
  Fe  Fe28      1.0  0.00573  0.45738  0.22727  1.0000
  H   H313      1.0  0.20669  0.48716  0.40942  1.0000
  C   C399      1.0  0.28132  0.27084  0.48926  1.0000
  H   H314      1.0  0.22467  0.48994  0.23726  1.0000
  C   C400      1.0  0.23749  0.49727  0.22825  1.0000
  H   H315      1.0  0.08213  0.48173  0.21157  1.0000
  H   H316      1.0  0.10648  0.48405  0.24030  1.0000
  S   S54       1.0  0.30062  0.48916  0.04940  1.0000
  C   C401      1.0  0.29456  0.49868  0.28375  1.0000
  H   H317      1.0  0.18991  0.48196  0.44518  1.0000
  C   C402      1.0  0.20160  0.49366  0.44235  1.0000
  C   C403      1.0  0.00460  0.37483  0.17797  1.0000
  S   S55       1.0  0.32503  0.49824  0.25063  1.0000
  C   C404      1.0  0.00529  0.35139  0.09010  1.0000
  C   C405      1.0  0.00712  0.36292  0.03128  1.0000
  C   C406      1.0  0.25140  0.32395  0.00334  1.0000
  C   C407      1.0  0.16598  0.47966  0.49311  1.0000
  C   C408      1.0  0.07296  0.25129  0.33377  1.0000
  C   C409      1.0  0.20221  0.36874  0.00188  1.0000
  C   C410      1.0  0.07183  0.25604  0.00224  1.0000
  P   P14       1.0  0.27325  0.41916  0.90662  1.0000
  S   S56       1.0  0.23690  0.48514  0.63770  1.0000
  C   C411      1.0  0.32280  0.48062  0.91132  1.0000
  S   S57       1.0  0.19810  0.46221  0.66440  1.0000
  C   C412      1.0  0.29660  0.41267  0.97414  1.0000
  Fe  Fe29      1.0  0.22040  0.48779  0.66994  1.0000
  C   C413      1.0  0.25740  0.44352  0.90387  1.0000
  Fe  Fe30      1.0  0.21321  0.46132  0.63117  1.0000
  S   S58       1.0  0.22637  0.43237  0.61316  1.0000
  C   C414      1.0  0.15041  0.44234  0.54250  1.0000
  S   S59       1.0  0.19034  0.48580  0.61757  1.0000
  S   S60       1.0  0.19915  0.31414  0.52852  1.0000
  C   C415      1.0  0.28457  0.39263  0.54161  1.0000
  C   C416      1.0  0.31669  0.35667  0.54558  1.0000
  Fe  Fe31      1.0  0.19916  0.34959  0.52558  1.0000
  S   S61       1.0  0.18509  0.37107  0.55164  1.0000
  Fe  Fe32      1.0  0.02264  0.26783  0.82474  1.0000
  Fe  Fe33      1.0  0.27665  0.47842  0.97714  1.0000
  S   S62       1.0  0.24175  0.47347  0.97774  1.0000
  C   C417      1.0  0.14894  0.45364  0.58457  1.0000
  H   H318      1.0  0.28623  0.29830  0.99584  1.0000
  H   H319      1.0  0.28224  0.37389  0.91308  1.0000
  S   S63       1.0  0.18154  0.29152  0.96004  1.0000
  H   H320      1.0  0.14578  0.27955  0.60431  1.0000
  H   H321      1.0  0.08479  0.25333  0.75854  1.0000
  S   S64       1.0  0.00473  0.26966  0.51662  1.0000
  Fe  Fe34      1.0  0.14687  0.28526  0.96484  1.0000
  S   S65       1.0  0.12589  0.27095  0.94170  1.0000
  S   S66       1.0  0.33341  0.47303  0.81289  1.0000
  Fe  Fe35      1.0  0.03999  0.29914  0.85493  1.0000
  S   S67       1.0  0.00431  0.43771  0.79770  1.0000
  S   S68       1.0  0.06665  0.31324  0.87140  1.0000
  H   H322      1.0  0.09656  0.25395  0.91540  1.0000
  S   S69       1.0  0.02838  0.26667  0.85955  1.0000
  S   S70       1.0  0.03747  0.29926  0.81955  1.0000
  H   H323      1.0  0.12224  0.43426  0.58920  1.0000
  Fe  Fe36      1.0  0.03753  0.48149  0.73791  1.0000
  C   C418      1.0  0.01820  0.28362  0.94266  1.0000
  C   C419      1.0  0.25762  0.34840  0.97336  1.0000
  H   H324      1.0  0.33473  0.46976  0.91781  1.0000
  Fe  Fe37      1.0  0.18573  0.27468  0.99173  1.0000
  C   C420      1.0  0.24977  0.44984  0.88412  1.0000
  H   H325      1.0  0.12262  0.27294  0.53186  1.0000
  H   H326      1.0  0.26060  0.34324  0.91087  1.0000
  C   C421      1.0  0.13421  0.44024  0.57797  1.0000
  C   C422      1.0  0.04473  0.26477  0.72576  1.0000
  H   H327      1.0  0.23878  0.48606  0.93132  1.0000
  C   C423      1.0  0.20765  0.38918  0.96925  1.0000
  H   H328      1.0  0.30875  0.34167  0.57613  1.0000
  H   H329      1.0  0.00898  0.32646  0.97072  1.0000
  H   H330      1.0  0.27916  0.48718  0.53418  1.0000
  H   H331      1.0  0.27623  0.47221  0.69241  1.0000
  S   S71       1.0  0.32108  0.48585  0.75104  1.0000
  H   H332      1.0  0.27032  0.45178  0.55090  1.0000
  C   C424      1.0  0.10871  0.28333  0.92307  1.0000
  C   C425      1.0  0.10780  0.30506  0.91857  1.0000
  C   C426      1.0  0.09466  0.31395  0.90289  1.0000
  C   C427      1.0  0.08209  0.30131  0.89172  1.0000
  C   C428      1.0  0.08263  0.27965  0.89658  1.0000
  C   C429      1.0  0.09591  0.27076  0.91210  1.0000
  H   H333      1.0  0.11756  0.31493  0.92683  1.0000
  H   H334      1.0  0.07311  0.26969  0.88814  1.0000
  H   H335      1.0  0.04042  0.30971  0.71850  1.0000
  C   C430      1.0  0.27859  0.47703  0.84128  1.0000
  C   C431      1.0  0.23193  0.32204  0.97182  1.0000
  C   C432      1.0  0.33328  0.36098  0.53070  1.0000
  H   H336      1.0  0.01891  0.29247  0.55701  1.0000
  S   S72       1.0  0.18704  0.35249  0.96585  1.0000
  H   H337      1.0  0.11787  0.25544  0.59830  1.0000
  H   H338      1.0  0.30930  0.46965  0.71191  1.0000
  H   H339      1.0  0.15075  0.29660  0.53799  1.0000
  Fe  Fe38      1.0  0.00458  0.31366  0.82585  1.0000
  C   C433      1.0  0.29553  0.42070  0.88751  1.0000
  H   H340      1.0  0.22536  0.49702  0.89643  1.0000
  H   H341      1.0  0.27597  0.35976  0.82659  1.0000
  C   C434      1.0  0.03392  0.28354  0.55779  1.0000
  S   S73       1.0  0.15126  0.26648  0.99557  1.0000
  C   C435      1.0  0.25879  0.49167  0.71488  1.0000
  P   P15       1.0  0.28140  0.43247  0.79659  1.0000
  C   C436      1.0  0.28634  0.25583  0.52427  1.0000
  C   C437      1.0  0.29693  0.48893  0.73726  1.0000
  H   H342      1.0  0.29982  0.38720  0.88282  1.0000
  C   C438      1.0  0.26406  0.42516  0.73634  1.0000
  H   H343      1.0  0.29125  0.38698  0.80232  1.0000
  H   H344      1.0  0.28671  0.29900  0.55800  1.0000
  S   S74       1.0  0.01520  0.45545  0.73600  1.0000
  C   C439      1.0  0.21439  0.41609  0.59564  1.0000
  C   C440      1.0  0.19248  0.41601  0.59418  1.0000
  C   C441      1.0  0.18380  0.40214  0.58070  1.0000
  C   C442      1.0  0.19688  0.38833  0.56832  1.0000
  C   C443      1.0  0.21877  0.38875  0.56946  1.0000
  C   C444      1.0  0.22744  0.40244  0.58309  1.0000
  H   H345      1.0  0.18220  0.42626  0.60382  1.0000
  H   H346      1.0  0.16682  0.40203  0.57999  1.0000
  H   H347      1.0  0.22893  0.37813  0.56017  1.0000
  H   H348      1.0  0.24440  0.40239  0.58406  1.0000
  C   C445      1.0  0.07216  0.28178  0.55335  1.0000
  H   H349      1.0  0.31329  0.42894  0.92464  1.0000
  C   C446      1.0  0.12770  0.27407  0.54771  1.0000
  C   C447      1.0  0.09150  0.48033  0.70974  1.0000
  H   H350      1.0  0.04142  0.26355  0.70936  1.0000
  S   S75       1.0  0.13883  0.31581  0.98017  1.0000
  C   C448      1.0  0.05279  0.29340  0.55291  1.0000
  C   C449      1.0  0.24163  0.47582  0.91819  1.0000
  H   H351      1.0  0.04523  0.28691  0.92057  1.0000
  C   C450      1.0  0.32199  0.41700  0.80618  1.0000
  C   C451      1.0  0.08518  0.48922  0.69042  1.0000
  H   H352      1.0  0.07471  0.33795  0.96106  1.0000
  Fe  Fe39      1.0  0.17377  0.32099  0.97816  1.0000
  P   P16       1.0  0.28983  0.36462  0.53962  1.0000
  C   C452      1.0  0.27132  0.35278  0.55872  1.0000
  C   C453      1.0  0.29980  0.40544  0.54858  1.0000
  H   H353      1.0  0.24344  0.42934  0.53822  1.0000
  C   C454      1.0  0.26808  0.36095  0.57888  1.0000
  C   C455      1.0  0.25307  0.35264  0.59349  1.0000
  C   C456      1.0  0.24124  0.33608  0.58811  1.0000
  C   C457      1.0  0.24462  0.32765  0.56822  1.0000
  C   C458      1.0  0.25957  0.33597  0.55361  1.0000
  C   C459      1.0  0.14773  0.39336  0.51369  1.0000
  H   H354      1.0  0.27675  0.37412  0.58316  1.0000
  H   H355      1.0  0.25009  0.35955  0.60872  1.0000
  H   H356      1.0  0.22919  0.33002  0.59918  1.0000
  H   H357      1.0  0.23539  0.31487  0.56388  1.0000
  H   H358      1.0  0.26158  0.32939  0.53829  1.0000
  C   C460      1.0  0.26426  0.40148  0.53785  1.0000
  C   C461      1.0  0.26944  0.40862  0.94966  1.0000
  C   C462      1.0  0.06953  0.25926  0.75329  1.0000
  H   H359      1.0  0.32521  0.42574  0.96078  1.0000
  C   C463      1.0  0.03437  0.26198  0.56295  1.0000
  C   C464      1.0  0.26974  0.49643  0.52307  1.0000
  C   C465      1.0  0.04066  0.40519  0.85812  1.0000
  H   H360      1.0  0.08891  0.31117  0.77053  1.0000
  C   C466      1.0  0.27984  0.45717  0.80950  1.0000
  C   C467      1.0  0.26724  0.43464  0.77260  1.0000
  H   H361      1.0  0.20584  0.39133  0.95245  1.0000
  H   H362      1.0  0.05240  0.30993  0.54809  1.0000
  C   C468      1.0  0.33126  0.42375  0.85940  1.0000
  C   C469      1.0  0.30989  0.42032  0.95758  1.0000
  H   H363      1.0  0.29707  0.32420  0.51984  1.0000
  H   H364      1.0  0.31496  0.41152  0.82118  1.0000
  H   H365      1.0  0.23738  0.34599  0.94759  1.0000
  C   C470      1.0  0.03007  0.38890  0.86882  1.0000
  H   H366      1.0  0.25305  0.44003  0.87075  1.0000
  H   H367      1.0  0.28416  0.31004  0.59509  1.0000
  C   C471      1.0  0.04136  0.33274  0.96372  1.0000
  H   H368      1.0  0.16238  0.30015  0.57420  1.0000
  C   C472      1.0  0.20559  0.47676  0.54407  1.0000
  C   C473      1.0  0.21679  0.46405  0.55877  1.0000
  C   C474      1.0  0.24207  0.33935  0.96268  1.0000
  C   C475      1.0  0.15011  0.28956  0.57157  1.0000
  S   S76       1.0  0.02867  0.48669  0.77227  1.0000
  H   H369      1.0  0.15406  0.39768  0.52826  1.0000
  H   H370      1.0  0.02322  0.28195  0.77277  1.0000
  C   C476      1.0  0.16457  0.46120  0.57023  1.0000
  C   C477      1.0  0.06458  0.25742  0.73236  1.0000
  H   H371      1.0  0.07871  0.33506  0.99972  1.0000
  C   C478      1.0  0.02944  0.27357  0.74021  1.0000
  C   C479      1.0  0.27389  0.42223  0.75550  1.0000
  C   C480      1.0  0.16565  0.45530  0.54914  1.0000
  H   H372      1.0  0.10406  0.45438  0.80122  1.0000
  C   C481      1.0  0.12362  0.47962  0.79006  1.0000
  H   H373      1.0  0.26550  0.36179  0.96622  1.0000
  C   C482      1.0  0.25217  0.38103  0.84073  1.0000
  C   C483      1.0  0.02093  0.31080  0.91462  1.0000
  P   P17       1.0  0.18528  0.46545  0.53020  1.0000
  H   H374      1.0  0.21353  0.44762  0.56151  1.0000
  H   H375      1.0  0.23980  0.46295  0.58250  1.0000
  H   H376      1.0  0.28107  0.47593  0.78035  1.0000
  C   C484      1.0  0.12827  0.47838  0.69523  1.0000
  C   C485      1.0  0.12199  0.48755  0.67599  1.0000
  C   C486      1.0  0.20996  0.49807  0.54107  1.0000
  C   C487      1.0  0.21767  0.40449  0.97992  1.0000
  H   H377      1.0  0.26579  0.40161  0.98318  1.0000
  C   C488      1.0  0.10450  0.46982  0.79336  1.0000
  C   C489      1.0  0.03458  0.27535  0.76120  1.0000
  H   H378      1.0  0.01917  0.39222  0.88216  1.0000
  Fe  Fe40      1.0  0.17651  0.48832  0.65111  1.0000
  C   C490      1.0  0.10618  0.41424  0.76996  1.0000
  C   C491      1.0  0.08942  0.42823  0.76446  1.0000
  C   C492      1.0  0.06931  0.42611  0.77424  1.0000
  C   C493      1.0  0.06596  0.41004  0.78962  1.0000
  C   C494      1.0  0.08287  0.39626  0.79570  1.0000
  C   C495      1.0  0.10288  0.39812  0.78532  1.0000
  P   P18       1.0  0.07802  0.37403  0.81364  1.0000
  C   C496      1.0  0.10038  0.36500  0.82858  1.0000
  C   C497      1.0  0.05797  0.38028  0.83399  1.0000
  H   H379      1.0  0.21987  0.31506  0.96351  1.0000
  H   H380      1.0  0.11813  0.46771  0.72679  1.0000
  H   H381      1.0  0.22865  0.41499  0.89659  1.0000
  C   C498      1.0  0.30938  0.42723  0.79096  1.0000
  C   C499      1.0  0.05478  0.40087  0.84094  1.0000
  C   C500      1.0  0.10129  0.34447  0.83768  1.0000
  C   C501      1.0  0.11731  0.33786  0.85107  1.0000
  C   C502      1.0  0.13249  0.35173  0.85564  1.0000
  C   C503      1.0  0.13154  0.37230  0.84693  1.0000
  C   C504      1.0  0.11540  0.37901  0.83363  1.0000
  C   C505      1.0  0.06980  0.35411  0.79718  1.0000
  C   C506      1.0  0.08417  0.33810  0.78991  1.0000
  C   C507      1.0  0.07787  0.32364  0.77594  1.0000
  C   C508      1.0  0.05739  0.32537  0.76882  1.0000
  C   C509      1.0  0.04315  0.34145  0.77572  1.0000
  C   C510      1.0  0.04936  0.35581  0.78980  1.0000
  H   H382      1.0  0.12160  0.41564  0.76190  1.0000
  H   H383      1.0  0.09192  0.44050  0.75232  1.0000
  H   H384      1.0  0.05619  0.43668  0.76955  1.0000
  H   H385      1.0  0.05005  0.40821  0.79641  1.0000
  H   H386      1.0  0.11581  0.38686  0.78872  1.0000
  C   C511      1.0  0.12496  0.26424  0.58501  1.0000
  H   H387      1.0  0.24632  0.50082  0.57806  1.0000
  C   C512      1.0  0.27581  0.27081  0.51093  1.0000
  C   C513      1.0  0.09711  0.30621  0.50297  1.0000
  H   H388      1.0  0.06329  0.41360  0.83327  1.0000
  H   H389      1.0  0.08922  0.33370  0.83499  1.0000
  C   C514      1.0  0.23267  0.36179  0.90241  1.0000
  H   H390      1.0  0.14468  0.34661  0.86632  1.0000
  H   H391      1.0  0.14303  0.38318  0.85089  1.0000
  H   H392      1.0  0.11433  0.39525  0.82781  1.0000
  H   H393      1.0  0.10027  0.33689  0.79476  1.0000
  H   H394      1.0  0.05258  0.31434  0.75787  1.0000
  H   H395      1.0  0.02725  0.34283  0.77020  1.0000
  H   H396      1.0  0.03835  0.36849  0.79468  1.0000
  C   C515      1.0  0.14355  0.28762  0.55118  1.0000
  C   C516      1.0  0.24335  0.40163  0.84064  1.0000
  C   C517      1.0  0.25201  0.41714  0.82700  1.0000
  C   C518      1.0  0.05472  0.25252  0.99016  1.0000
  C   C519      1.0  0.27685  0.48027  0.70694  1.0000
  C   C520      1.0  0.29882  0.29368  0.56872  1.0000
  H   H397      1.0  0.00559  0.40649  0.83152  1.0000
  H   H398      1.0  0.22971  0.40556  0.85106  1.0000
  H   H399      1.0  0.24482  0.43298  0.82689  1.0000
  S   S77       1.0  0.07342  0.47640  0.73186  1.0000
  H   H400      1.0  0.07114  0.47209  0.78846  1.0000
  C   C521      1.0  0.04735  0.36400  0.84488  1.0000
  C   C522      1.0  0.27442  0.43541  0.54797  1.0000
  C   C523      1.0  0.02628  0.32000  0.71989  1.0000
  H   H401      1.0  0.26972  0.41611  0.72293  1.0000
  H   H402      1.0  0.09250  0.29654  0.97286  1.0000
  C   C524      1.0  0.26940  0.37583  0.82685  1.0000
  H   H403      1.0  0.13806  0.47183  0.79550  1.0000
  C   C525      1.0  0.22010  0.40199  0.00168  1.0000
  H   H404      1.0  0.02571  0.35560  0.87082  1.0000
  C   C526      1.0  0.03359  0.36830  0.86233  1.0000
  C   C527      1.0  0.14077  0.27793  0.58849  1.0000
  C   C528      1.0  0.29470  0.42677  0.55172  1.0000
  H   H405      1.0  0.06230  0.29096  0.95179  1.0000
  C   C529      1.0  0.28275  0.41622  0.93290  1.0000
  H   H406      1.0  0.18988  0.41949  0.53749  1.0000
  H   H407      1.0  0.31157  0.29700  0.61967  1.0000
  C   C530      1.0  0.27957  0.47611  0.79736  1.0000
  S   S78       1.0  0.21782  0.25574  0.99692  1.0000
  C   C531      1.0  0.23815  0.46902  0.88145  1.0000
  C   C532      1.0  0.27810  0.39131  0.81319  1.0000
  C   C533      1.0  0.23410  0.48202  0.89849  1.0000
  Fe  Fe41      1.0  0.23084  0.31351  0.51008  1.0000
  H   H408      1.0  0.23257  0.47399  0.86611  1.0000
  H   H409      1.0  0.03796  0.42117  0.86313  1.0000
  H   H410      1.0  0.01157  0.37226  0.71616  1.0000
  C   C534      1.0  0.08148  0.28473  0.97808  1.0000
  C   C535      1.0  0.24977  0.44907  0.77062  1.0000
  H   H411      1.0  0.03977  0.33368  0.94680  1.0000
  C   C536      1.0  0.08592  0.47983  0.78626  1.0000
  C   C537      1.0  0.29565  0.47881  0.71812  1.0000
  H   H412      1.0  0.25958  0.45263  0.93616  1.0000
  H   H413      1.0  0.06863  0.49340  0.68841  1.0000
  C   C538      1.0  0.06422  0.28147  0.96614  1.0000
  C   C539      1.0  0.28667  0.35671  0.51304  1.0000
  H   H414      1.0  0.27938  0.47765  0.85823  1.0000
  C   C540      1.0  0.25866  0.48649  0.50836  1.0000
  S   S79       1.0  0.30107  0.47410  0.94949  1.0000
  C   C541      1.0  0.29735  0.29975  0.58961  1.0000
  C   C542      1.0  0.23535  0.49402  0.56823  1.0000
  H   H415      1.0  0.33009  0.36956  0.51598  1.0000
  C   C543      1.0  0.27691  0.49580  0.82907  1.0000
  S   S80       1.0  0.25703  0.28981  0.52243  1.0000
  C   C544      1.0  0.02385  0.32867  0.97742  1.0000
  C   C545      1.0  0.25926  0.42279  0.54087  1.0000
  H   H416      1.0  0.25959  0.46948  0.50797  1.0000
  P   P19       1.0  0.00420  0.28403  0.73132  1.0000
  H   H417      1.0  0.32709  0.45708  0.86281  1.0000
  C   C546      1.0  0.23616  0.39948  0.89899  1.0000
  H   H418      1.0  0.09529  0.49983  0.65884  1.0000
  C   C547      1.0  0.02968  0.29325  0.92566  1.0000
  C   C548      1.0  0.30550  0.40256  0.87882  1.0000
  C   C549      1.0  0.30433  0.48598  0.92369  1.0000
  H   H419      1.0  0.04345  0.34795  0.71284  1.0000
  H   H420      1.0  0.28217  0.44336  0.84114  1.0000
  H   H421      1.0  0.24402  0.45854  0.78366  1.0000
  C   C550      1.0  0.06107  0.33522  0.97173  1.0000
  H   H422      1.0  0.30990  0.44417  0.76059  1.0000
  C   C551      1.0  0.31279  0.29237  0.60343  1.0000
  C   C552      1.0  0.32613  0.48933  0.89065  1.0000
  C   C553      1.0  0.02809  0.34171  0.71662  1.0000
  H   H423      1.0  0.08648  0.28970  0.54902  1.0000
  C   C554      1.0  0.00646  0.31186  0.72520  1.0000
  C   C555      1.0  0.26258  0.34049  0.99349  1.0000
  H   H424      1.0  0.09441  0.33070  0.89924  1.0000
  H   H425      1.0  0.11752  0.32210  0.85837  1.0000
  S   S81       1.0  0.00786  0.31558  0.86077  1.0000
  H   H426      1.0  0.25218  0.39179  0.53279  1.0000
  H   H427      1.0  0.24018  0.44306  0.71917  1.0000
  H   H428      1.0  0.28706  0.41074  0.75674  1.0000
  C   C556      1.0  0.31912  0.43536  0.77217  1.0000
  C   C557      1.0  0.02583  0.32731  0.99934  1.0000
  C   C558      1.0  0.26992  0.41224  0.81371  1.0000
  H   H429      1.0  0.08735  0.31885  0.50988  1.0000
  C   C559      1.0  0.06329  0.33365  0.99349  1.0000
  C   C560      1.0  0.19979  0.37121  0.98013  1.0000
  C   C561      1.0  0.25758  0.39675  0.90361  1.0000
  C   C562      1.0  0.24733  0.44022  0.73423  1.0000
  C   C563      1.0  0.11849  0.26204  0.56451  1.0000
  H   H430      1.0  0.22729  0.46390  0.74954  1.0000
  C   C564      1.0  0.05466  0.26848  0.76759  1.0000
  H   H431      1.0  0.05002  0.34788  0.84020  1.0000
  S   S82       1.0  0.23391  0.49294  0.70248  1.0000
  C   C565      1.0  0.10036  0.49287  0.67369  1.0000
  C   C566      1.0  0.28019  0.45773  0.83154  1.0000
  C   C567      1.0  0.25336  0.45671  0.92089  1.0000
  H   H432      1.0  0.01971  0.25418  0.56628  1.0000
  H   H433      1.0  0.22346  0.41825  0.97136  1.0000
  H   H434      1.0  0.14481  0.47407  0.69720  1.0000
  C   C568      1.0  0.24007  0.45201  0.75141  1.0000
  H   H435      1.0  0.24548  0.36903  0.85134  1.0000
  H   H436      1.0  0.25354  0.40445  0.94698  1.0000
  C   C569      1.0  0.11308  0.47473  0.71195  1.0000
  Fe  Fe42      1.0  0.23852  0.50053  0.99985  1.0000
  H   H437      1.0  0.12338  0.42436  0.55180  1.0000
  C   C570      1.0  0.25389  0.35893  0.90719  1.0000
  C   C571      1.0  0.26619  0.37633  0.90816  1.0000
  C   C572      1.0  0.27904  0.50083  0.74481  1.0000
  C   C573      1.0  0.32341  0.40410  0.86499  1.0000
  C   C574      1.0  0.23164  0.47267  0.57074  1.0000
  H   H438      1.0  0.20714  0.38429  0.89546  1.0000
  H   H439      1.0  0.22291  0.34837  0.90245  1.0000
  C   C575      1.0  0.22380  0.38206  0.89840  1.0000
  C   C576      1.0  0.27785  0.49536  0.80711  1.0000
  C   C577      1.0  0.27635  0.40689  0.97020  1.0000
  H   H440      1.0  0.01232  0.26313  0.99975  1.0000
  H   H441      1.0  0.31542  0.39896  0.55204  1.0000
  H   H442      1.0  0.22820  0.30110  0.99891  1.0000
  H   H443      1.0  0.30635  0.43653  0.55746  1.0000
  H   H444      1.0  0.31047  0.26673  0.99399  1.0000
  H   H445      1.0  0.31631  0.27545  0.54548  1.0000
  H   H446      1.0  0.02996  0.31798  0.90146  1.0000
  H   H447      1.0  0.29649  0.45463  0.88839  1.0000
  C   C578      1.0  0.07278  0.26014  0.55873  1.0000
  H   H448      1.0  0.20833  0.39151  0.51697  1.0000
  S   S83       1.0  0.14037  0.49289  0.65441  1.0000
  C   C579      1.0  0.30301  0.42215  0.93702  1.0000
  C   C580      1.0  0.19825  0.42367  0.52272  1.0000
  C   C581      1.0  0.01013  0.35541  0.71844  1.0000
  C   C582      1.0  0.13490  0.43465  0.55692  1.0000
  C   C583      1.0  0.30356  0.44037  0.88171  1.0000
  C   C584      1.0  0.20887  0.40774  0.51120  1.0000
  H   H449      1.0  0.17564  0.47171  0.57574  1.0000
  C   C585      1.0  0.19843  0.44468  0.51512  1.0000
  S   S84       1.0  0.23174  0.34911  0.50955  1.0000
  C   C586      1.0  0.23653  0.31434  0.99206  1.0000
  H   H450      1.0  0.28205  0.25533  0.54099  1.0000
  C   C587      1.0  0.32111  0.44186  0.86746  1.0000
  Fe  Fe43      1.0  0.00515  0.46187  0.76972  1.0000
  C   C588      1.0  0.33094  0.27234  0.57553  1.0000
  C   C589      1.0  0.32120  0.34532  0.56443  1.0000
  H   H451      1.0  0.14833  0.45813  0.60088  1.0000
  H   H452      1.0  0.15054  0.43824  0.52617  1.0000
  C   C590      1.0  0.29161  0.33571  0.50798  1.0000
  H   H453      1.0  0.33137  0.39007  0.85868  1.0000
  C   C591      1.0  0.28915  0.50020  0.91512  1.0000
  H   H454      1.0  0.30173  0.41189  0.99014  1.0000
  H   H455      1.0  0.05845  0.26970  0.78389  1.0000
  H   H456      1.0  0.12648  0.32116  0.50651  1.0000
  C   C592      1.0  0.17040  0.48418  0.51380  1.0000
  C   C593      1.0  0.12415  0.49939  0.77955  1.0000
  C   C594      1.0  0.08511  0.27227  0.99630  1.0000
  C   C595      1.0  0.05031  0.26567  0.97234  1.0000
  H   H457      1.0  0.13108  0.36767  0.52856  1.0000
  C   C596      1.0  0.13474  0.37638  0.51386  1.0000
  C   C597      1.0  0.31562  0.28020  0.56166  1.0000
  C   C598      1.0  0.08639  0.49958  0.77572  1.0000
  P   P20       1.0  0.02920  0.25999  0.95574  1.0000
  C   C599      1.0  0.32950  0.27861  0.59647  1.0000
  H   H458      1.0  0.27477  0.34762  0.00147  1.0000
  Fe  Fe44      1.0  0.19320  0.62762  0.47199  1.0000
  S   S85       1.0  0.18284  0.60344  0.44937  1.0000
  S   S86       1.0  0.19808  0.66226  0.46604  1.0000
  H   H459      1.0  0.13133  0.65477  0.44884  1.0000
  S   S87       1.0  0.21745  0.54654  0.37269  1.0000
  S   S88       1.0  0.19761  0.51472  0.32652  1.0000
  H   H460      1.0  0.30510  0.50853  0.29104  1.0000
  C   C600      1.0  0.10916  0.71490  0.49103  1.0000
  C   C601      1.0  0.24083  0.51868  0.23000  1.0000
  H   H461      1.0  0.08942  0.57704  0.29316  1.0000
  Fe  Fe45      1.0  0.18205  0.65064  0.00718  1.0000
  Fe  Fe46      1.0  0.04089  0.67468  0.14304  1.0000
  S   S89       1.0  0.07239  0.66317  0.12664  1.0000
  P   P21       1.0  0.22705  0.55230  0.08511  1.0000
  S   S90       1.0  0.03958  0.67644  0.17849  1.0000
  C   C602      1.0  0.05193  0.70192  0.39865  1.0000
  S   S91       1.0  0.17972  0.67783  0.02893  1.0000
  C   C603      1.0  0.03093  0.58419  0.02330  1.0000
  H   H462      1.0  0.23534  0.58936  0.02399  1.0000
  Fe  Fe47      1.0  0.14620  0.68339  0.01932  1.0000
  S   S92       1.0  0.11626  0.69482  0.03842  1.0000
  Fe  Fe48      1.0  0.20415  0.51674  0.36086  1.0000
  C   C604      1.0  0.01309  0.59507  0.18567  1.0000
  C   C605      1.0  0.05914  0.57241  0.12269  1.0000
  H   H463      1.0  0.05515  0.60517  0.02755  1.0000
  H   H464      1.0  0.28057  0.60286  0.44445  1.0000
  C   C606      1.0  0.11717  0.66376  0.44416  1.0000
  H   H465      1.0  0.05697  0.57798  0.15603  1.0000
  C   C607      1.0  0.09919  0.65348  0.43970  1.0000
  H   H466      1.0  0.01453  0.57736  0.12101  1.0000
  H   H467      1.0  0.07808  0.73077  0.49377  1.0000
  C   C608      1.0  0.08486  0.67266  0.10250  1.0000
  C   C609      1.0  0.07771  0.69128  0.09202  1.0000
  C   C610      1.0  0.08760  0.69783  0.07252  1.0000
  C   C611      1.0  0.10503  0.68612  0.06345  1.0000
  C   C612      1.0  0.11254  0.66778  0.07420  1.0000
  C   C613      1.0  0.10242  0.66105  0.09353  1.0000
  H   H468      1.0  0.06447  0.70056  0.09890  1.0000
  H   H469      1.0  0.08177  0.71216  0.06449  1.0000
  H   H470      1.0  0.12606  0.65876  0.06758  1.0000
  H   H471      1.0  0.10820  0.64672  0.10158  1.0000
  Fe  Fe49      1.0  0.01011  0.65844  0.17832  1.0000
  Fe  Fe50      1.0  0.01840  0.70589  0.17448  1.0000
  H   H472      1.0  0.26113  0.54386  0.21986  1.0000
  C   C614      1.0  0.14865  0.57776  0.25030  1.0000
  H   H473      1.0  0.06872  0.63763  0.03482  1.0000
  H   H474      1.0  0.06043  0.57162  0.08883  1.0000
  H   H475      1.0  0.06729  0.74257  0.33695  1.0000
  C   C615      1.0  0.19097  0.60714  0.07524  1.0000
  H   H476      1.0  0.32218  0.66835  0.20410  1.0000
  S   S93       1.0  0.02501  0.73665  0.19050  1.0000
  C   C616      1.0  0.20538  0.54702  0.48910  1.0000
  H   H477      1.0  0.04935  0.61649  0.15073  1.0000
  H   H478      1.0  0.04668  0.63243  0.11496  1.0000
  H   H479      1.0  0.13070  0.69363  0.44673  1.0000
  H   H480      1.0  0.06184  0.65998  0.06572  1.0000
  H   H481      1.0  0.10508  0.64096  0.01930  1.0000
  C   C617      1.0  0.26565  0.53713  0.13382  1.0000
  H   H482      1.0  0.29521  0.68841  0.47140  1.0000
  C   C618      1.0  0.01538  0.57291  0.18602  1.0000
  H   H483      1.0  0.02333  0.72869  0.36105  1.0000
  H   H484      1.0  0.06133  0.54631  0.21797  1.0000
  C   C619      1.0  0.07215  0.53326  0.22234  1.0000
  H   H485      1.0  0.09393  0.60062  0.08722  1.0000
  H   H486      1.0  0.12982  0.60412  0.07136  1.0000
  H   H487      1.0  0.24286  0.61061  0.45515  1.0000
  H   H488      1.0  0.13559  0.62405  0.03733  1.0000
  H   H489      1.0  0.25773  0.73119  0.07028  1.0000
  C   C620      1.0  0.19319  0.58765  0.42824  1.0000
  C   C621      1.0  0.18093  0.57167  0.42169  1.0000
  C   C622      1.0  0.18829  0.55864  0.40513  1.0000
  C   C623      1.0  0.20788  0.56172  0.39451  1.0000
  C   C624      1.0  0.22013  0.57773  0.40099  1.0000
  C   C625      1.0  0.21289  0.59058  0.41776  1.0000
  H   H490      1.0  0.16559  0.56932  0.42951  1.0000
  H   H491      1.0  0.17864  0.54646  0.40033  1.0000
  H   H492      1.0  0.23526  0.58035  0.39285  1.0000
  H   H493      1.0  0.22235  0.60301  0.42225  1.0000
  H   H494      1.0  0.17832  0.59967  0.12763  1.0000
  H   H495      1.0  0.04814  0.53815  0.26232  1.0000
  H   H496      1.0  0.30839  0.65017  0.49830  1.0000
  C   C626      1.0  0.01331  0.69461  0.43489  1.0000
  C   C627      1.0  0.08020  0.73265  0.33045  1.0000
  H   H497      1.0  0.04088  0.62243  0.23494  1.0000
  P   P22       1.0  0.22286  0.53514  0.24611  1.0000
  C   C628      1.0  0.23465  0.54131  0.27022  1.0000
  C   C629      1.0  0.20709  0.50598  0.45863  1.0000
  C   C630      1.0  0.01157  0.56076  0.20481  1.0000
  C   C631      1.0  0.22170  0.54761  0.28778  1.0000
  C   C632      1.0  0.23065  0.55265  0.30638  1.0000
  C   C633      1.0  0.25257  0.55148  0.30762  1.0000
  C   C634      1.0  0.26558  0.54545  0.29021  1.0000
  C   C635      1.0  0.25671  0.54022  0.27163  1.0000
  C   C636      1.0  0.21686  0.55938  0.23115  1.0000
  C   C637      1.0  0.21551  0.55918  0.20916  1.0000
  C   C638      1.0  0.21061  0.57779  0.19747  1.0000
  C   C639      1.0  0.20690  0.59673  0.20764  1.0000
  C   C640      1.0  0.20809  0.59705  0.22951  1.0000
  C   C641      1.0  0.21304  0.57848  0.24125  1.0000
  C   C642      1.0  0.01977  0.67375  0.47386  1.0000
  H   H498      1.0  0.25594  0.52566  0.05872  1.0000
  S   S94       1.0  0.02163  0.70514  0.13873  1.0000
  C   C643      1.0  0.23699  0.57843  0.46437  1.0000
  C   C644      1.0  0.18092  0.52607  0.24015  1.0000
  C   C645      1.0  0.17035  0.56421  0.48632  1.0000
  S   S95       1.0  0.13679  0.50799  0.32378  1.0000
  H   H499      1.0  0.20465  0.54832  0.28729  1.0000
  H   H500      1.0  0.22060  0.55693  0.32011  1.0000
  H   H501      1.0  0.25941  0.55487  0.32225  1.0000
  C   C646      1.0  0.09415  0.72237  0.34431  1.0000
  H   H502      1.0  0.26720  0.53487  0.25872  1.0000
  C   C647      1.0  0.11124  0.70967  0.33648  1.0000
  H   H503      1.0  0.20976  0.57752  0.18050  1.0000
  H   H504      1.0  0.20318  0.61116  0.19856  1.0000
  H   H505      1.0  0.20531  0.61175  0.23740  1.0000
  H   H506      1.0  0.21393  0.57915  0.25815  1.0000
  H   H507      1.0  0.29831  0.56963  0.02954  1.0000
  C   C648      1.0  0.07101  0.51429  0.21243  1.0000
  C   C649      1.0  0.25790  0.54541  0.11484  1.0000
  H   H508      1.0  0.02259  0.69483  0.02288  1.0000
  C   C650      1.0  0.22600  0.51165  0.41810  1.0000
  H   H509      1.0  0.03487  0.55296  0.32702  1.0000
  P   P23       1.0  0.08748  0.55928  0.25146  1.0000
  H   H510      1.0  0.17066  0.62447  0.09737  1.0000
  Fe  Fe51      1.0  0.17355  0.66790  0.49265  1.0000
  C   C651      1.0  0.08644  0.53491  0.23821  1.0000
  H   H511      1.0  0.04019  0.69298  0.06954  1.0000
  H   H512      1.0  0.06714  0.67506  0.35458  1.0000
  H   H513      1.0  0.27720  0.74001  0.45495  1.0000
  H   H514      1.0  0.06681  0.57380  0.32591  1.0000
  Fe  Fe52      1.0  0.00999  0.50577  0.22883  1.0000
  C   C652      1.0  0.18141  0.61079  0.09517  1.0000
  C   C653      1.0  0.28471  0.56646  0.04009  1.0000
  H   H515      1.0  0.19632  0.55438  0.05198  1.0000
  H   H516      1.0  0.09424  0.52138  0.31382  1.0000
  C   C654      1.0  0.23703  0.54224  0.10995  1.0000
  S   S96       1.0  0.17422  0.50151  0.37172  1.0000
  C   C655      1.0  0.03700  0.68103  0.46145  1.0000
  S   S97       1.0  0.14935  0.69588  0.48942  1.0000
  H   H517      1.0  0.05960  0.51304  0.20054  1.0000
  C   C656      1.0  0.20489  0.58956  0.07230  1.0000
  C   C657      1.0  0.06375  0.70797  0.26780  1.0000
  C   C658      1.0  0.05597  0.58496  0.14019  1.0000
  C   C659      1.0  0.03463  0.68542  0.01422  1.0000
  C   C660      1.0  0.21291  0.53244  0.07330  1.0000
  C   C661      1.0  0.04475  0.55444  0.31258  1.0000
  H   H518      1.0  0.28678  0.53319  0.03502  1.0000
  H   H519      1.0  0.06274  0.55566  0.12500  1.0000
  C   C662      1.0  0.01776  0.75040  0.21416  1.0000
  C   C663      1.0  0.06612  0.74046  0.24662  1.0000
  H   H520      1.0  0.31383  0.72044  0.47853  1.0000
  C   C664      1.0  0.03950  0.54457  0.29459  1.0000
  C   C665      1.0  0.07613  0.59878  0.20000  1.0000
  H   H521      1.0  0.18160  0.53669  0.22640  1.0000
  C   C666      1.0  0.27955  0.56960  0.45223  1.0000
  H   H522      1.0  0.09169  0.72431  0.36115  1.0000
  H   H523      1.0  0.17903  0.52723  0.03434  1.0000
  H   H524      1.0  0.18935  0.55233  0.46006  1.0000
  H   H525      1.0  0.21204  0.58708  0.05672  1.0000
  H   H526      1.0  0.21820  0.54461  0.20103  1.0000
  C   C667      1.0  0.14627  0.51319  0.48913  1.0000
  C   C668      1.0  0.25641  0.57860  0.06460  1.0000
  C   C669      1.0  0.19845  0.52236  0.25264  1.0000
  C   C670      1.0  0.24555  0.55767  0.46612  1.0000
  C   C671      1.0  0.16208  0.51623  0.24556  1.0000
  H   H527      1.0  0.03489  0.58314  0.00654  1.0000
  C   C672      1.0  0.28768  0.69984  0.48186  1.0000
  C   C673      1.0  0.27090  0.59024  0.45057  1.0000
  C   C674      1.0  0.07158  0.67466  0.00777  1.0000
  H   H528      1.0  0.15862  0.58803  0.24062  1.0000
  H   H529      1.0  0.01024  0.70304  0.42017  1.0000
  H   H530      1.0  0.08804  0.67602  0.01099  1.0000
  C   C675      1.0  0.01436  0.57299  0.03280  1.0000
  H   H531      1.0  0.28199  0.53897  0.13721  1.0000
  P   P24       1.0  0.05622  0.70223  0.42658  1.0000
  H   H532      1.0  0.24275  0.53594  0.43054  1.0000
  H   H533      1.0  0.25044  0.63520  0.00576  1.0000
  H   H534      1.0  0.00715  0.62509  0.08515  1.0000
  H   H535      1.0  0.05566  0.59434  0.25869  1.0000
  H   H536      1.0  0.10912  0.51733  0.25749  1.0000
  C   C676      1.0  0.04248  0.59673  0.03538  1.0000
  C   C677      1.0  0.03762  0.59812  0.05716  1.0000
  C   C678      1.0  0.00404  0.74249  0.23032  1.0000
  P   P25       1.0  0.05160  0.61513  0.07292  1.0000
  C   C679      1.0  0.05295  0.60319  0.09925  1.0000
  C   C680      1.0  0.07834  0.61834  0.06189  1.0000
  C   C681      1.0  0.09587  0.60913  0.07219  1.0000
  C   C682      1.0  0.11639  0.61110  0.06328  1.0000
  C   C683      1.0  0.11965  0.62234  0.04409  1.0000
  C   C684      1.0  0.10241  0.63185  0.03392  1.0000
  C   C685      1.0  0.08187  0.62993  0.04278  1.0000
  C   C686      1.0  0.05002  0.61565  0.11689  1.0000
  C   C687      1.0  0.05153  0.60659  0.13725  1.0000
  C   C688      1.0  0.11683  0.68571  0.44290  1.0000
  C   C689      1.0  0.05245  0.54603  0.27605  1.0000
  C   C690      1.0  0.05768  0.58147  0.10226  1.0000
  C   C691      1.0  0.03604  0.63980  0.07440  1.0000
  C   C692      1.0  0.20540  0.59536  0.00982  1.0000
  P   P26       1.0  0.06579  0.74421  0.29046  1.0000
  H   H537      1.0  0.05257  0.67907  0.46764  1.0000
  C   C693      1.0  0.03302  0.67805  0.07258  1.0000
  C   C694      1.0  0.04520  0.65919  0.07018  1.0000
  C   C695      1.0  0.26694  0.55336  0.46000  1.0000
  S   S98       1.0  0.16708  0.63382  0.49693  1.0000
  H   H538      1.0  0.07368  0.67513  0.39240  1.0000
  H   H539      1.0  0.20281  0.56873  0.12271  1.0000
  H   H540      1.0  0.13724  0.52454  0.47951  1.0000
  C   C696      1.0  0.29846  0.71790  0.48610  1.0000
  C   C697      1.0  0.09890  0.51702  0.24452  1.0000
  H   H541      1.0  0.06127  0.69922  0.21552  1.0000
  H   H542      1.0  0.07018  0.74048  0.40310  1.0000
  C   C698      1.0  0.07090  0.55722  0.27548  1.0000
  H   H543      1.0  0.21048  0.50458  0.27966  1.0000
  H   H544      1.0  0.22052  0.58225  0.46874  1.0000
  C   C699      1.0  0.06275  0.56613  0.31195  1.0000
  C   C700      1.0  0.00694  0.60539  0.20415  1.0000
  H   H545      1.0  0.09627  0.57134  0.20686  1.0000
  C   C701      1.0  0.06053  0.61317  0.20788  1.0000
  H   H546      1.0  0.12205  0.70174  0.34725  1.0000
  C   C702      1.0  0.26035  0.74758  0.06630  1.0000
  C   C703      1.0  0.05824  0.72905  0.43398  1.0000
  C   C704      1.0  0.27178  0.51498  0.20568  1.0000
  H   H547      1.0  0.17297  0.56808  0.27164  1.0000
  C   C705      1.0  0.27389  0.58277  0.05090  1.0000
  C   C706      1.0  0.11462  0.56238  0.25779  1.0000
  H   H548      1.0  0.12173  0.58468  0.23186  1.0000
  H   H549      1.0  0.22854  0.50597  0.09002  1.0000
  C   C707      1.0  0.19974  0.57923  0.10928  1.0000
  C   C708      1.0  0.26057  0.54174  0.05656  1.0000
  Fe  Fe53      1.0  0.22176  0.65886  0.49150  1.0000
  S   S99       1.0  0.00382  0.63330  0.20465  1.0000
  H   H550      1.0  0.02553  0.53551  0.29508  1.0000
  C   C709      1.0  0.21696  0.51099  0.07871  1.0000
  S   S100      1.0  0.01428  0.53287  0.20396  1.0000
  C   C710      1.0  0.07565  0.56776  0.29340  1.0000
  S   S101      1.0  0.21846  0.62338  0.49575  1.0000
  C   C711      1.0  0.14393  0.55330  0.28025  1.0000
  C   C712      1.0  0.15676  0.56657  0.26777  1.0000
  H   H551      1.0  0.32456  0.69227  0.17215  1.0000
  C   C713      1.0  0.18578  0.59682  0.11218  1.0000
  H   H552      1.0  0.15019  0.54440  0.29374  1.0000
  H   H553      1.0  0.05363  0.62543  0.19754  1.0000
  H   H554      1.0  0.27908  0.59865  0.04871  1.0000
  H   H555      1.0  0.28533  0.52165  0.19720  1.0000
  C   C714      1.0  0.05339  0.61153  0.22908  1.0000
  C   C715      1.0  0.12301  0.55122  0.27530  1.0000
  C   C716      1.0  0.19900  0.53815  0.05732  1.0000
  H   H556      1.0  0.11344  0.54079  0.28519  1.0000
  S   S102      1.0  0.25484  0.67267  0.48554  1.0000
  C   C717      1.0  0.18835  0.55398  0.47696  1.0000
  H   H557      1.0  0.25915  0.51857  0.16233  1.0000
  H   H558      1.0  0.02223  0.66635  0.48931  1.0000
  C   C718      1.0  0.22404  0.53084  0.12449  1.0000
  C   C719      1.0  0.09848  0.69744  0.43743  1.0000
  C   C720      1.0  0.04471  0.70175  0.35541  1.0000
  H   H559      1.0  0.28259  0.54415  0.29130  1.0000
  H   H560      1.0  0.23884  0.55149  0.01604  1.0000
  C   C721      1.0  0.24936  0.55810  0.06722  1.0000
  C   C722      1.0  0.06558  0.74441  0.41916  1.0000
  C   C723      1.0  0.25809  0.52744  0.21859  1.0000
  C   C724      1.0  0.06257  0.68684  0.38587  1.0000
  H   H561      1.0  0.26842  0.55389  0.10393  1.0000
  C   C725      1.0  0.02324  0.73415  0.29629  1.0000
  C   C726      1.0  0.20956  0.57548  0.08928  1.0000
  C   C727      1.0  0.24966  0.59463  0.45665  1.0000
  C   C728      1.0  0.06290  0.70760  0.22976  1.0000
  C   C729      1.0  0.25274  0.52559  0.14804  1.0000
  C   C730      1.0  0.06178  0.59549  0.24245  1.0000
  C   C731      1.0  0.05584  0.68665  0.01873  1.0000
  C   C732      1.0  0.12765  0.57574  0.24534  1.0000
  C   C733      1.0  0.08452  0.58266  0.21330  1.0000
  C   C734      1.0  0.08025  0.68725  0.43313  1.0000
  C   C735      1.0  0.07745  0.58090  0.23466  1.0000
  C   C736      1.0  0.28910  0.73289  0.49966  1.0000
  C   C737      1.0  0.03423  0.71692  0.36796  1.0000
  H   H562      1.0  0.20794  0.52812  0.12099  1.0000
  C   C738      1.0  0.03774  0.71694  0.38948  1.0000
  P   P27       1.0  0.22953  0.53650  0.47611  1.0000
  C   C739      1.0  0.11455  0.70746  0.31474  1.0000
  H   H563      1.0  0.06021  0.69699  0.03066  1.0000
  H   H564      1.0  0.08146  0.60002  0.18350  1.0000
  H   H565      1.0  0.29426  0.74267  0.06290  1.0000
  C   C740      1.0  0.22520  0.56110  0.01123  1.0000
  H   H566      1.0  0.18767  0.61797  0.06198  1.0000
  S   S103      1.0  0.20279  0.62179  0.01789  1.0000
  C   C741      1.0  0.08081  0.66515  0.43415  1.0000
  H   H567      1.0  0.14848  0.51937  0.23612  1.0000
  H   H568      1.0  0.22204  0.51330  0.15437  1.0000
  C   C742      1.0  0.27815  0.54595  0.04306  1.0000
  H   H569      1.0  0.00451  0.61538  0.12376  1.0000
  C   C743      1.0  0.18903  0.52274  0.04726  1.0000
  C   C744      1.0  0.05890  0.68674  0.36435  1.0000
  C   C745      1.0  0.08709  0.71593  0.49547  1.0000
  C   C746      1.0  0.03919  0.74663  0.30244  1.0000
  S   S104      1.0  0.21817  0.71858  0.00581  1.0000
  C   C747      1.0  0.23191  0.52252  0.14343  1.0000
  C   C748      1.0  0.22314  0.58259  0.01572  1.0000
  C   C749      1.0  0.19703  0.50808  0.27010  1.0000
  H   H570      1.0  0.09949  0.63646  0.44081  1.0000
  H   H571      1.0  0.06049  0.68010  0.25050  1.0000
  H   H572      1.0  0.06692  0.65697  0.43099  1.0000
  H   H573      1.0  0.09856  0.71442  0.43705  1.0000
  H   H574      1.0  0.04813  0.72295  0.46674  1.0000
  C   C750      1.0  0.05313  0.73462  0.45484  1.0000
  C   C751      1.0  0.03396  0.69155  0.44184  1.0000
  H   H575      1.0  0.01998  0.56508  0.17161  1.0000
  H   H576      1.0  0.23877  0.73759  0.45199  1.0000
  H   H577      1.0  0.02930  0.72865  0.39903  1.0000
  C   C752      1.0  0.06238  0.69690  0.24947  1.0000
  H   H578      1.0  0.06289  0.69953  0.28299  1.0000
  H   H579      1.0  0.04193  0.70176  0.33873  1.0000
  H   H580      1.0  0.24851  0.59138  0.07312  1.0000
  H   H581      1.0  0.06715  0.50588  0.29340  1.0000
  H   H582      1.0  0.23301  0.51409  0.40226  1.0000
  S   S105      1.0  0.01264  0.65459  0.14321  1.0000
  C   C753      1.0  0.00925  0.57441  0.05438  1.0000
  C   C754      1.0  0.25007  0.74585  0.00994  1.0000
  C   C755      1.0  0.01186  0.67774  0.07984  1.0000
  C   C756      1.0  0.12139  0.69594  0.49401  1.0000
  C   C757      1.0  0.09768  0.50622  0.30705  1.0000
  C   C758      1.0  0.22238  0.52099  0.45480  1.0000
  H   H583      1.0  0.10379  0.71628  0.28401  1.0000
  C   C759      1.0  0.10067  0.71779  0.30083  1.0000
  H   H584      1.0  0.00546  0.56325  0.02342  1.0000
  C   C760      1.0  0.02072  0.58700  0.06647  1.0000
  C   C761      1.0  0.26726  0.69638  0.49097  1.0000
  C   C762      1.0  0.23157  0.52396  0.43431  1.0000
  H   H585      1.0  0.15782  0.57053  0.47656  1.0000
  C   C763      1.0  0.01462  0.63968  0.08138  1.0000
  H   H586      1.0  0.02615  0.72331  0.28377  1.0000
  C   C764      1.0  0.06545  0.72990  0.26654  1.0000
  H   H587      1.0  0.12800  0.69788  0.30865  1.0000
  H   H588      1.0  0.19949  0.50387  0.47420  1.0000
  C   C765      1.0  0.24500  0.52053  0.49454  1.0000
  H   H589      1.0  0.29598  0.56617  0.44735  1.0000
  C   C766      1.0  0.00557  0.57108  0.22334  1.0000
  H   H590      1.0  0.06499  0.73759  0.21304  1.0000
  C   C767      1.0  0.16064  0.50253  0.26335  1.0000
  H   H591      1.0  0.01592  0.60417  0.17111  1.0000
  H   H592      1.0  0.01633  0.58806  0.08310  1.0000
  H   H593      1.0  0.25530  0.73451  0.02200  1.0000
  S   S106      1.0  0.01271  0.50450  0.26424  1.0000
  C   C768      1.0  0.08309  0.73011  0.30860  1.0000
  H   H594      1.0  0.27380  0.53740  0.46103  1.0000
  C   C769      1.0  0.11110  0.67777  0.50058  1.0000
  C   C770      1.0  0.06500  0.72929  0.22835  1.0000
  H   H595      1.0  0.11685  0.72895  0.48544  1.0000
  C   C771      1.0  0.19278  0.50152  0.05307  1.0000
  H   H596      1.0  0.07050  0.74646  0.70465  1.0000
  S   S107      1.0  0.19737  0.66621  0.51786  1.0000
  H   H597      1.0  0.01046  0.60151  0.92154  1.0000
  S   S108      1.0  0.01159  0.69158  0.87104  1.0000
  C   C772      1.0  0.29371  0.66464  0.52571  1.0000
  H   H598      1.0  0.25924  0.52694  0.67669  1.0000
  Fe  Fe54      1.0  0.19253  0.63121  0.52029  1.0000
  S   S109      1.0  0.18239  0.61285  0.55083  1.0000
  H   H599      1.0  0.17737  0.56042  0.63529  1.0000
  S   S110      1.0  0.22603  0.53483  0.60224  1.0000
  C   C773      1.0  0.00713  0.56162  0.78772  1.0000
  Fe  Fe55      1.0  0.15847  0.67670  0.97322  1.0000
  S   S111      1.0  0.14762  0.67487  0.93961  1.0000
  S   S112      1.0  0.19316  0.67079  0.97923  1.0000
  Fe  Fe56      1.0  0.03820  0.66749  0.87736  1.0000
  C   C774      1.0  0.18562  0.55974  0.52029  1.0000
  S   S113      1.0  0.05379  0.66947  0.90897  1.0000
  Fe  Fe57      1.0  0.02747  0.64145  0.83969  1.0000
  S   S114      1.0  0.03952  0.61015  0.82528  1.0000
  Fe  Fe58      1.0  0.02203  0.68984  0.83638  1.0000
  C   C775      1.0  0.14033  0.74439  0.51752  1.0000
  S   S115      1.0  0.05004  0.66732  0.84321  1.0000
  H   H600      1.0  0.14999  0.73706  0.64064  1.0000
  H   H601      1.0  0.07831  0.65122  0.98465  1.0000
  Fe  Fe59      1.0  0.00378  0.51044  0.76126  1.0000
  H   H602      1.0  0.13742  0.70120  0.63812  1.0000
  C   C776      1.0  0.31589  0.68610  0.54456  1.0000
  C   C777      1.0  0.23210  0.74197  0.99894  1.0000
  H   H603      1.0  0.04452  0.59664  0.90077  1.0000
  C   C778      1.0  0.01719  0.72384  0.77548  1.0000
  C   C779      1.0  0.03629  0.72287  0.58251  1.0000
  H   H604      1.0  0.06825  0.71999  0.98888  1.0000
  C   C780      1.0  0.02636  0.59169  0.81111  1.0000
  C   C781      1.0  0.03647  0.57180  0.80745  1.0000
  C   C782      1.0  0.02689  0.55681  0.79599  1.0000
  C   C783      1.0  0.20859  0.61392  0.69410  1.0000
  C   C784      1.0  0.07181  0.71945  0.59493  1.0000
  H   H605      1.0  0.07440  0.53506  0.68895  1.0000
  H   H606      1.0  0.24639  0.51082  0.74030  1.0000
  H   H607      1.0  0.10667  0.71300  0.98113  1.0000
  C   C785      1.0  0.12153  0.67201  0.93155  1.0000
  C   C786      1.0  0.10389  0.67271  0.94583  1.0000
  C   C787      1.0  0.08337  0.67183  0.93854  1.0000
  C   C788      1.0  0.08021  0.66951  0.91707  1.0000
  C   C789      1.0  0.09789  0.66811  0.90287  1.0000
  C   C790      1.0  0.11839  0.66958  0.91006  1.0000
  H   H608      1.0  0.10603  0.67459  0.96237  1.0000
  H   H609      1.0  0.06980  0.67333  0.94954  1.0000
  H   H610      1.0  0.09579  0.66615  0.88633  1.0000
  H   H611      1.0  0.13191  0.66892  0.89888  1.0000
  C   C791      1.0  0.06154  0.73963  0.89066  1.0000
  C   C792      1.0  0.26012  0.50190  0.73392  1.0000
  H   H612      1.0  0.07183  0.50676  0.76999  1.0000
  H   H613      1.0  0.04340  0.72300  0.61518  1.0000
  C   C793      1.0  0.24514  0.66634  0.96126  1.0000
  H   H614      1.0  0.03472  0.54150  0.79366  1.0000
  C   C794      1.0  0.04460  0.72128  0.56179  1.0000
  H   H615      1.0  0.31771  0.69581  0.55778  1.0000
  C   C795      1.0  0.10554  0.50944  0.77208  1.0000
  H   H616      1.0  0.13026  0.50624  0.73058  1.0000
  C   C796      1.0  0.19067  0.60902  0.68373  1.0000
  C   C797      1.0  0.13511  0.71285  0.62537  1.0000
  H   H617      1.0  0.28057  0.51975  0.88788  1.0000
  H   H618      1.0  0.13910  0.50676  0.77718  1.0000
  C   C798      1.0  0.19473  0.59048  0.56396  1.0000
  C   C799      1.0  0.21636  0.58511  0.56104  1.0000
  C   C800      1.0  0.22559  0.56794  0.57276  1.0000
  C   C801      1.0  0.21329  0.55567  0.58723  1.0000
  C   C802      1.0  0.19153  0.56055  0.58953  1.0000
  C   C803      1.0  0.18239  0.57802  0.57820  1.0000
  H   H619      1.0  0.22606  0.59450  0.55014  1.0000
  H   H620      1.0  0.24243  0.56427  0.57077  1.0000
  H   H621      1.0  0.18178  0.55095  0.60012  1.0000
  H   H622      1.0  0.16560  0.58188  0.58046  1.0000
  C   C804      1.0  0.29636  0.67757  0.54238  1.0000
  H   H623      1.0  0.23300  0.62685  0.60694  1.0000
  C   C805      1.0  0.13847  0.68221  0.56305  1.0000
  C   C806      1.0  0.05155  0.54449  0.71357  1.0000
  C   C807      1.0  0.20717  0.62985  0.70860  1.0000
  C   C808      1.0  0.18800  0.64133  0.71247  1.0000
  H   H624      1.0  0.25118  0.53987  0.64040  1.0000
  C   C809      1.0  0.17222  0.53695  0.72351  1.0000
  H   H625      1.0  0.27591  0.51076  0.83659  1.0000
  H   H626      1.0  0.18452  0.56198  0.53707  1.0000
  H   H627      1.0  0.00992  0.72618  0.74261  1.0000
  C   C810      1.0  0.02749  0.74229  0.92146  1.0000
  C   C811      1.0  0.25780  0.71150  0.50437  1.0000
  H   H628      1.0  0.01319  0.56905  0.85204  1.0000
  H   H629      1.0  0.03855  0.54650  0.70318  1.0000
  C   C812      1.0  0.29241  0.50879  0.89437  1.0000
  C   C813      1.0  0.14534  0.66178  0.55779  1.0000
  C   C814      1.0  0.07539  0.71233  0.86740  1.0000
  H   H630      1.0  0.11113  0.53506  0.80447  1.0000
  H   H631      1.0  0.22242  0.56672  0.63480  1.0000
  C   C815      1.0  0.02242  0.72134  0.92596  1.0000
  C   C816      1.0  0.33017  0.66866  0.51336  1.0000
  H   H632      1.0  0.20200  0.63470  0.58528  1.0000
  C   C817      1.0  0.10960  0.65454  0.55036  1.0000
  C   C818      1.0  0.00641  0.59632  0.80321  1.0000
  H   H633      1.0  0.15798  0.61838  0.67843  1.0000
  H   H634      1.0  0.28316  0.68115  0.55346  1.0000
  H   H635      1.0  0.03410  0.72176  0.54893  1.0000
  S   S116      1.0  0.01764  0.64031  0.87428  1.0000
  C   C819      1.0  0.18993  0.58646  0.99883  1.0000
  C   C820      1.0  0.13967  0.51965  0.73197  1.0000
  C   C821      1.0  0.31064  0.66006  0.51131  1.0000
  C   C822      1.0  0.13918  0.74809  0.61033  1.0000
  H   H636      1.0  0.08359  0.60632  0.78109  1.0000
  H   H637      1.0  0.05179  0.56789  0.81363  1.0000
  C   C823      1.0  0.08027  0.71821  0.57403  1.0000
  C   C824      1.0  0.10268  0.67503  0.55543  1.0000
  H   H638      1.0  0.03480  0.70896  0.92732  1.0000
  H   H639      1.0  0.17460  0.56672  0.73761  1.0000
  H   H640      1.0  0.12022  0.66303  0.50270  1.0000
  C   C825      1.0  0.01096  0.59388  0.90663  1.0000
  S   S117      1.0  0.02560  0.72200  0.81845  1.0000
  H   H641      1.0  0.22102  0.63342  0.71670  1.0000
  H   H642      1.0  0.13641  0.63224  0.54701  1.0000
  H   H643      1.0  0.14741  0.53717  0.63752  1.0000
  S   S118      1.0  0.04926  0.69815  0.50931  1.0000
  C   C826      1.0  0.14216  0.73307  0.62679  1.0000
  H   H644      1.0  0.18694  0.65370  0.72368  1.0000
  C   C827      1.0  0.06857  0.72445  0.84996  1.0000
  H   H645      1.0  0.16688  0.62296  0.59797  1.0000
  C   C828      1.0  0.09280  0.73204  0.93258  1.0000
  C   C829      1.0  0.14967  0.51731  0.51003  1.0000
  H   H646      1.0  0.22374  0.60561  0.69089  1.0000
  S   S119      1.0  0.31422  0.51462  0.85592  1.0000
  C   C830      1.0  0.17030  0.63709  0.70161  1.0000
  H   H647      1.0  0.12307  0.53617  0.66934  1.0000
  H   H648      1.0  0.14447  0.71596  0.53628  1.0000
  H   H649      1.0  0.07656  0.70993  0.90103  1.0000
  H   H650      1.0  0.22718  0.52336  0.55192  1.0000
  S   S120      1.0  0.01391  0.50686  0.72697  1.0000
  H   H651      1.0  0.09848  0.64392  0.54507  1.0000
  C   C831      1.0  0.11709  0.68908  0.56176  1.0000
  H   H652      1.0  0.03220  0.55241  0.74140  1.0000
  H   H653      1.0  0.10006  0.73573  0.91709  1.0000
  S   S121      1.0  0.19762  0.51399  0.65838  1.0000
  H   H654      1.0  0.12242  0.72063  0.94518  1.0000
  H   H655      1.0  0.22893  0.60728  0.64131  1.0000
  C   C832      1.0  0.24850  0.66068  0.98235  1.0000
  C   C833      1.0  0.12204  0.72260  0.59084  1.0000
  H   H656      1.0  0.08297  0.69686  0.86526  1.0000
  C   C834      1.0  0.24872  0.63953  0.98922  1.0000
  H   H657      1.0  0.12865  0.55861  0.69918  1.0000
  C   C835      1.0  0.11565  0.73374  0.54623  1.0000
  Fe  Fe60      1.0  0.02204  0.72340  0.50786  1.0000
  H   H658      1.0  0.07079  0.71838  0.83427  1.0000
  H   H659      1.0  0.14304  0.53174  0.51670  1.0000
  C   C836      1.0  0.26865  0.72952  0.50867  1.0000
  H   H660      1.0  0.18777  0.53696  0.71545  1.0000
  C   C837      1.0  0.07501  0.72317  0.97309  1.0000
  H   H661      1.0  0.11955  0.69192  0.60664  1.0000
  H   H662      1.0  0.27974  0.50921  0.75911  1.0000
  H   H663      1.0  0.16240  0.60317  0.63215  1.0000
  C   C838      1.0  0.06607  0.66076  0.99291  1.0000
  C   C839      1.0  0.02301  0.73452  0.79279  1.0000
  P   P28       1.0  0.10854  0.71577  0.56807  1.0000
  C   C840      1.0  0.16155  0.50283  0.52237  1.0000
  C   C841      1.0  0.00940  0.65996  0.95095  1.0000
  C   C842      1.0  0.04797  0.54779  0.73508  1.0000
  H   H664      1.0  0.32468  0.72700  0.53285  1.0000
  C   C843      1.0  0.07090  0.73548  0.93666  1.0000
  H   H665      1.0  0.14995  0.69275  0.56774  1.0000
  H   H666      1.0  0.15539  0.57572  0.51517  1.0000
  C   C844      1.0  0.33273  0.68235  0.52961  1.0000
  H   H667      1.0  0.27843  0.65840  0.52373  1.0000
  C   C845      1.0  0.10559  0.72382  0.94854  1.0000
  H   H668      1.0  0.20946  0.56828  0.70219  1.0000
  C   C846      1.0  0.23104  0.62366  0.87268  1.0000
  C   C847      1.0  0.25008  0.63295  0.86695  1.0000
  C   C848      1.0  0.26472  0.63531  0.88214  1.0000
  C   C849      1.0  0.26033  0.62844  0.90308  1.0000
  C   C850      1.0  0.24118  0.61918  0.90899  1.0000
  C   C851      1.0  0.22661  0.61671  0.89360  1.0000
  P   P29       1.0  0.23600  0.60971  0.93594  1.0000
  C   C852      1.0  0.20810  0.60548  0.94033  1.0000
  C   C853      1.0  0.25122  0.58522  0.94098  1.0000
  C   C854      1.0  0.24553  0.57211  0.95850  1.0000
  C   C855      1.0  0.25656  0.55280  0.96222  1.0000
  C   C856      1.0  0.27347  0.54636  0.94853  1.0000
  C   C857      1.0  0.27924  0.55921  0.93096  1.0000
  C   C858      1.0  0.26819  0.57856  0.92716  1.0000
  C   C859      1.0  0.19378  0.62228  0.94566  1.0000
  C   C860      1.0  0.17221  0.61911  0.94897  1.0000
  C   C861      1.0  0.16471  0.59919  0.94688  1.0000
  C   C862      1.0  0.17879  0.58243  0.94128  1.0000
  C   C863      1.0  0.20038  0.58557  0.93784  1.0000
  C   C864      1.0  0.24214  0.62952  0.95382  1.0000
  C   C865      1.0  0.24174  0.65089  0.94709  1.0000
  H   H669      1.0  0.15455  0.74099  0.50765  1.0000
  S   S122      1.0  0.14758  0.65461  0.99977  1.0000
  C   C866      1.0  0.16475  0.55365  0.73594  1.0000
  H   H670      1.0  0.01930  0.72494  0.58564  1.0000
  H   H671      1.0  0.21969  0.62180  0.86090  1.0000
  H   H672      1.0  0.25351  0.63825  0.85072  1.0000
  H   H673      1.0  0.27954  0.64239  0.87767  1.0000
  H   H674      1.0  0.27189  0.63021  0.91469  1.0000
  H   H675      1.0  0.21182  0.60946  0.89766  1.0000
  H   H676      1.0  0.23225  0.57665  0.96907  1.0000
  H   H677      1.0  0.25176  0.54273  0.97562  1.0000
  H   H678      1.0  0.28200  0.53135  0.95146  1.0000
  H   H679      1.0  0.29221  0.55403  0.92020  1.0000
  H   H680      1.0  0.27287  0.58802  0.91331  1.0000
  H   H681      1.0  0.19917  0.63789  0.94722  1.0000
  H   H682      1.0  0.16129  0.63217  0.95315  1.0000
  H   H683      1.0  0.14799  0.59680  0.94958  1.0000
  H   H684      1.0  0.17302  0.56695  0.93978  1.0000
  H   H685      1.0  0.21097  0.57241  0.93335  1.0000
  H   H686      1.0  0.23806  0.65580  0.93113  1.0000
  H   H687      1.0  0.13914  0.56646  0.75588  1.0000
  S   S123      1.0  0.21134  0.52512  0.99433  1.0000
  H   H688      1.0  0.16375  0.50615  0.53865  1.0000
  H   H689      1.0  0.24519  0.60788  0.98099  1.0000
  C   C867      1.0  0.12508  0.70762  0.60747  1.0000
  H   H690      1.0  0.04100  0.64830  0.97708  1.0000
  H   H691      1.0  0.15553  0.64624  0.70433  1.0000
  H   H692      1.0  0.07255  0.71777  0.54136  1.0000
  C   C868      1.0  0.09671  0.71940  0.96879  1.0000
  C   C869      1.0  0.15961  0.52003  0.72143  1.0000
  C   C870      1.0  0.06216  0.73131  0.95715  1.0000
  C   C871      1.0  0.10085  0.56602  0.81382  1.0000
  C   C872      1.0  0.09298  0.58608  0.80732  1.0000
  C   C873      1.0  0.09012  0.59087  0.78597  1.0000
  C   C874      1.0  0.09495  0.57557  0.77110  1.0000
  C   C875      1.0  0.10221  0.55516  0.77757  1.0000
  C   C876      1.0  0.10548  0.55059  0.79902  1.0000
  P   P30       1.0  0.10640  0.53497  0.75845  1.0000
  C   C877      1.0  0.05816  0.74411  0.85278  1.0000
  C   C878      1.0  0.08501  0.53828  0.74069  1.0000
  C   C879      1.0  0.08841  0.53484  0.71905  1.0000
  C   C880      1.0  0.07175  0.53807  0.70556  1.0000
  C   C881      1.0  0.13445  0.73006  0.53384  1.0000
  Fe  Fe61      1.0  0.21280  0.50970  0.62580  1.0000
  C   C882      1.0  0.06460  0.54471  0.74857  1.0000
  H   H693      1.0  0.01450  0.70725  0.77732  1.0000
  Fe  Fe62      1.0  0.18974  0.69831  0.00045  1.0000
  C   C883      1.0  0.07181  0.71984  0.88769  1.0000
  C   C884      1.0  0.17169  0.62118  0.68709  1.0000
  C   C885      1.0  0.06644  0.71893  0.55755  1.0000
  C   C886      1.0  0.13192  0.53639  0.74434  1.0000
  C   C887      1.0  0.16645  0.56065  0.64902  1.0000
  C   C888      1.0  0.01476  0.73463  0.75572  1.0000
  H   H694      1.0  0.04550  0.73464  0.96092  1.0000
  H   H695      1.0  0.15869  0.58153  0.69744  1.0000
  C   C889      1.0  0.01226  0.57543  0.86752  1.0000
  H   H696      1.0  0.10289  0.56233  0.83042  1.0000
  H   H697      1.0  0.08863  0.59782  0.81886  1.0000
  P   P31       1.0  0.05481  0.74845  0.91687  1.0000
  H   H698      1.0  0.09231  0.57948  0.75464  1.0000
  H   H699      1.0  0.04551  0.58076  0.86582  1.0000
  H   H700      1.0  0.10368  0.52931  0.71246  1.0000
  C   C890      1.0  0.04989  0.72180  0.59910  1.0000
  C   C891      1.0  0.03079  0.58204  0.87536  1.0000
  C   C892      1.0  0.24561  0.62401  0.97505  1.0000
  H   H701      1.0  0.06146  0.54721  0.76520  1.0000
  H   H702      1.0  0.27491  0.50453  0.92444  1.0000
  H   H703      1.0  0.08196  0.71889  0.60804  1.0000
  H   H704      1.0  0.02339  0.66898  0.95054  1.0000
  C   C893      1.0  0.13093  0.64796  0.55141  1.0000
  H   H705      1.0  0.16192  0.65667  0.55831  1.0000
  C   C894      1.0  0.14461  0.55345  0.74626  1.0000
  C   C895      1.0  0.03020  0.59108  0.89498  1.0000
  H   H706      1.0  0.08618  0.67984  0.55394  1.0000
  C   C896      1.0  0.14954  0.54746  0.65026  1.0000
  H   H707      1.0  0.23833  0.54104  0.70738  1.0000
  P   P32       1.0  0.19252  0.58921  0.66425  1.0000
  C   C897      1.0  0.19546  0.60338  0.63909  1.0000
  C   C898      1.0  0.21448  0.57039  0.66817  1.0000
  C   C899      1.0  0.21885  0.56269  0.68862  1.0000
  C   C900      1.0  0.23517  0.54732  0.69165  1.0000
  C   C901      1.0  0.24701  0.53931  0.67431  1.0000
  C   C902      1.0  0.24249  0.54660  0.65390  1.0000
  C   C903      1.0  0.22618  0.56196  0.65080  1.0000
  C   C904      1.0  0.17790  0.60829  0.62694  1.0000
  C   C905      1.0  0.18027  0.61976  0.60771  1.0000
  C   C906      1.0  0.20012  0.62641  0.60052  1.0000
  C   C907      1.0  0.21760  0.62186  0.61268  1.0000
  C   C908      1.0  0.21525  0.61059  0.63202  1.0000
  C   C909      1.0  0.16969  0.57349  0.66572  1.0000
  C   C910      1.0  0.15603  0.57257  0.68392  1.0000
  C   C911      1.0  0.13904  0.55944  0.68507  1.0000
  C   C912      1.0  0.13584  0.54684  0.66827  1.0000
  C   C913      1.0  0.16905  0.56725  0.50798  1.0000
  H   H708      1.0  0.01416  0.65285  0.91819  1.0000
  S   S124      1.0  0.15579  0.70584  0.99222  1.0000
  H   H709      1.0  0.24426  0.68282  0.95617  1.0000
  H   H710      1.0  0.17989  0.55819  0.98586  1.0000
  C   C914      1.0  0.19202  0.56495  0.99425  1.0000
  S   S125      1.0  0.27321  0.50661  0.99733  1.0000
  H   H711      1.0  0.24218  0.70924  0.51155  1.0000
  C   C915      1.0  0.00413  0.65100  0.93243  1.0000
  C   C916      1.0  0.12913  0.74290  0.59240  1.0000
  H   H712      1.0  0.26107  0.74098  0.51908  1.0000
  C   C917      1.0  0.04486  0.65937  0.98844  1.0000
  H   H713      1.0  0.17622  0.59605  0.99417  1.0000
  H   H714      1.0  0.16533  0.50714  0.71167  1.0000
  H   H715      1.0  0.21685  0.54544  0.52068  1.0000
  C   C918      1.0  0.31086  0.50331  0.88195  1.0000
  C   C919      1.0  0.26860  0.51836  0.52350  1.0000
  C   C920      1.0  0.20959  0.55212  0.00048  1.0000
  H   H716      1.0  0.08121  0.66457  0.50989  1.0000
  C   C921      1.0  0.08897  0.67871  0.50464  1.0000
  C   C922      1.0  0.22450  0.50671  0.55344  1.0000
  H   H717      1.0  0.27788  0.50995  0.79766  1.0000
  C   C923      1.0  0.07687  0.69782  0.50241  1.0000
  H   H718      1.0  0.25016  0.67277  0.99351  1.0000
  C   C924      1.0  0.20391  0.55008  0.51089  1.0000
  C   C925      1.0  0.02904  0.67226  0.99855  1.0000
  H   H719      1.0  0.27709  0.52607  0.53498  1.0000
  H   H720      1.0  0.01919  0.71281  0.98242  1.0000
  H   H721      1.0  0.20203  0.50814  0.52952  1.0000
  H   H722      1.0  0.00650  0.74548  0.87541  1.0000
  C   C926      1.0  0.25635  0.53037  0.50927  1.0000
  H   H723      1.0  0.25564  0.54738  0.50981  1.0000
  H   H724      1.0  0.26711  0.92034  0.48838  1.0000
  C   C927      1.0  0.31758  0.86001  0.10836  1.0000
  C   C928      1.0  0.32678  0.99086  0.06073  1.0000
  H   H725      1.0  0.09358  0.82691  0.27229  1.0000
  H   H726      1.0  0.21285  0.98479  0.19778  1.0000
  Fe  Fe63      1.0  0.24871  0.97693  0.47954  1.0000
  S   S126      1.0  0.22798  0.96558  0.45418  1.0000
  S   S127      1.0  0.28429  0.97140  0.47960  1.0000
  Fe  Fe64      1.0  0.32144  0.96398  0.13050  1.0000
  S   S128      1.0  0.29187  0.98520  0.12997  1.0000
  H   H727      1.0  0.27869  0.83257  0.39600  1.0000
  Fe  Fe65      1.0  0.28969  0.98080  0.16569  1.0000
  S   S129      1.0  0.25603  0.97970  0.18157  1.0000
  S   S130      1.0  0.31784  0.95723  0.16583  1.0000
  Fe  Fe66      1.0  0.31145  0.85250  0.02479  1.0000
  S   S131      1.0  0.29692  0.87086  0.05284  1.0000
  H   H728      1.0  0.23212  0.80408  0.43819  1.0000
  S   S132      1.0  0.31253  0.81698  0.02446  1.0000
  C   C929      1.0  0.25590  0.96959  0.22513  1.0000
  P   P33       1.0  0.27886  0.92789  0.41094  1.0000
  S   S133      1.0  0.17859  0.95550  0.32670  1.0000
  H   H729      1.0  0.22887  0.80489  0.13542  1.0000
  S   S134      1.0  0.14585  0.97044  0.29008  1.0000
  Fe  Fe67      1.0  0.14331  0.95556  0.32287  1.0000
  S   S135      1.0  0.12302  0.92835  0.33501  1.0000
  Fe  Fe68      1.0  0.18076  0.97296  0.29479  1.0000
  C   C930      1.0  0.01374  0.76321  0.32748  1.0000
  H   H730      1.0  0.27857  0.87330  0.49130  1.0000
  H   H731      1.0  0.29314  0.78989  0.40680  1.0000
  H   H732      1.0  0.05773  0.81795  0.26345  1.0000
  S   S136      1.0  0.03698  0.81952  0.31180  1.0000
  H   H733      1.0  0.10612  0.76372  0.29657  1.0000
  Fe  Fe69      1.0  0.03023  0.85456  0.30732  1.0000
  S   S137      1.0  0.05344  0.87793  0.29222  1.0000
  C   C931      1.0  0.27628  0.91581  0.19206  1.0000
  H   H734      1.0  0.04084  0.92898  0.28264  1.0000
  H   H735      1.0  0.01898  0.91592  0.43602  1.0000
  C   C932      1.0  0.30723  0.90420  0.38503  1.0000
  C   C933      1.0  0.01536  0.97148  0.36926  1.0000
  H   H736      1.0  0.07166  0.77716  0.41324  1.0000
  S   S138      1.0  0.13668  0.98621  0.33916  1.0000
  H   H737      1.0  0.27440  0.92990  0.05280  1.0000
  H   H738      1.0  0.32955  0.86945  0.43127  1.0000
  C   C934      1.0  0.10376  0.91459  0.32267  1.0000
  C   C935      1.0  0.10124  0.91638  0.30092  1.0000
  C   C936      1.0  0.08601  0.90481  0.29187  1.0000
  C   C937      1.0  0.07293  0.89150  0.30443  1.0000
  C   C938      1.0  0.07541  0.88975  0.32619  1.0000
  C   C939      1.0  0.09080  0.90113  0.33520  1.0000
  H   H739      1.0  0.11116  0.92653  0.29105  1.0000
  H   H740      1.0  0.08427  0.90626  0.27502  1.0000
  H   H741      1.0  0.06558  0.87952  0.33604  1.0000
  H   H742      1.0  0.09274  0.89943  0.35200  1.0000
  H   H743      1.0  0.02825  0.79635  0.23689  1.0000
  C   C940      1.0  0.27663  0.77348  0.44827  1.0000
  H   H744      1.0  0.11770  0.79966  0.28880  1.0000
  C   C941      1.0  0.30907  0.83326  0.20035  1.0000
  C   C942      1.0  0.30903  0.85211  0.18814  1.0000
  C   C943      1.0  0.01826  0.77827  0.40712  1.0000
  H   H745      1.0  0.04588  0.77170  0.32258  1.0000
  Fe  Fe70      1.0  0.17215  0.98708  0.34070  1.0000
  C   C944      1.0  0.24421  0.97618  0.20776  1.0000
  C   C945      1.0  0.22350  0.96987  0.24858  1.0000
  C   C946      1.0  0.21188  0.97677  0.23125  1.0000
  C   C947      1.0  0.22213  0.97974  0.21103  1.0000
  H   H746      1.0  0.19491  0.97933  0.23328  1.0000
  H   H747      1.0  0.16002  0.99651  0.25307  1.0000
  P   P34       1.0  0.22402  0.80238  0.05810  1.0000
  H   H748      1.0  0.28186  0.79620  0.48261  1.0000
  H   H749      1.0  0.31427  0.98275  0.06949  1.0000
  C   C948      1.0  0.30742  0.89178  0.06583  1.0000
  C   C949      1.0  0.29448  0.90256  0.08103  1.0000
  C   C950      1.0  0.30236  0.91859  0.09244  1.0000
  C   C951      1.0  0.29871  0.90694  0.40570  1.0000
  H   H750      1.0  0.27672  0.85984  0.45581  1.0000
  H   H751      1.0  0.27824  0.89847  0.08399  1.0000
  H   H752      1.0  0.29208  0.92696  0.10376  1.0000
  C   C952      1.0  0.21802  0.97563  0.42976  1.0000
  C   C953      1.0  0.20571  0.96280  0.41849  1.0000
  C   C954      1.0  0.19722  0.97005  0.39921  1.0000
  C   C955      1.0  0.22907  0.86029  0.42331  1.0000
  C   C956      1.0  0.24165  0.83964  0.04293  1.0000
  H   H753      1.0  0.02466  0.76472  0.39889  1.0000
  H   H754      1.0  0.20257  0.94718  0.42483  1.0000
  H   H755      1.0  0.18771  0.96002  0.39085  1.0000
  C   C957      1.0  0.25223  0.85460  0.39225  1.0000
  H   H756      1.0  0.02639  0.97761  0.26216  1.0000
  H   H757      1.0  0.21508  0.80821  0.01284  1.0000
  C   C958      1.0  0.20072  0.78929  0.05189  1.0000
  C   C959      1.0  0.06680  0.76520  0.42492  1.0000
  H   H758      1.0  0.01427  0.76112  0.43720  1.0000
  C   C960      1.0  0.23318  0.77080  0.44464  1.0000
  H   H759      1.0  0.28740  0.92993  0.45540  1.0000
  C   C961      1.0  0.00825  0.81539  0.40680  1.0000
  C   C962      1.0  0.28192  0.93939  0.04026  1.0000
  H   H760      1.0  0.19661  0.85831  0.10532  1.0000
  C   C963      1.0  0.22325  0.81300  0.12128  1.0000
  H   H761      1.0  0.04566  0.78228  0.27180  1.0000
  H   H762      1.0  0.30088  0.89596  0.43843  1.0000
  C   C964      1.0  0.24226  0.79029  0.44164  1.0000
  H   H763      1.0  0.28883  0.91325  0.02023  1.0000
  Fe  Fe71      1.0  0.00714  0.81552  0.29512  1.0000
  H   H764      1.0  0.01180  0.91789  0.30783  1.0000
  H   H765      1.0  0.23817  0.90311  0.35370  1.0000
  C   C965      1.0  0.25969  0.83558  0.42532  1.0000
  H   H766      1.0  0.22453  0.87593  0.39300  1.0000
  H   H767      1.0  0.32902  0.78470  0.38983  1.0000
  C   C966      1.0  0.27628  0.92391  0.15446  1.0000
  C   C967      1.0  0.02657  0.93194  0.40609  1.0000
  C   C968      1.0  0.02998  0.89410  0.41241  1.0000
  C   C969      1.0  0.03774  0.89182  0.39156  1.0000
  C   C970      1.0  0.04000  0.90955  0.37798  1.0000
  C   C971      1.0  0.03394  0.92972  0.38501  1.0000
  C   C972      1.0  0.16362  0.78215  0.05865  1.0000
  P   P35       1.0  0.03784  0.95277  0.36794  1.0000
  C   C973      1.0  0.03918  0.94530  0.34088  1.0000
  H   H768      1.0  0.32296  0.94038  0.40174  1.0000
  C   C974      1.0  0.29106  0.98711  0.42753  1.0000
  C   C975      1.0  0.32818  0.86101  0.18154  1.0000
  H   H769      1.0  0.23149  0.96938  0.36312  1.0000
  H   H770      1.0  0.06861  0.95081  0.29462  1.0000
  C   C976      1.0  0.33082  0.87019  0.48893  1.0000
  C   C977      1.0  0.05540  0.95176  0.32651  1.0000
  C   C978      1.0  0.26684  0.92594  0.17473  1.0000
  C   C979      1.0  0.26119  0.76438  0.00575  1.0000
  C   C980      1.0  0.26166  0.93158  0.38914  1.0000
  P   P36       1.0  0.27594  0.81699  0.44061  1.0000
  C   C981      1.0  0.06193  0.96348  0.37544  1.0000
  C   C982      1.0  0.06139  0.98180  0.38699  1.0000
  H   H771      1.0  0.23122  0.90738  0.48718  1.0000
  C   C983      1.0  0.09963  0.97941  0.38737  1.0000
  C   C984      1.0  0.10022  0.96076  0.37663  1.0000
  C   C985      1.0  0.08147  0.95273  0.37080  1.0000
  C   C986      1.0  0.27828  0.82695  0.46651  1.0000
  H   H772      1.0  0.29406  0.85959  0.18374  1.0000
  H   H773      1.0  0.04231  0.87628  0.38596  1.0000
  H   H774      1.0  0.04672  0.90741  0.36211  1.0000
  H   H775      1.0  0.06779  0.99323  0.31061  1.0000
  H   H776      1.0  0.33244  0.89231  0.46224  1.0000
  H   H777      1.0  0.03284  0.99749  0.35572  1.0000
  C   C987      1.0  0.28097  0.96880  0.42400  1.0000
  C   C988      1.0  0.30408  0.90049  0.16864  1.0000
  S   S139      1.0  0.01208  0.85758  0.33876  1.0000
  H   H778      1.0  0.06803  0.96075  0.33145  1.0000
  C   C989      1.0  0.08021  0.98985  0.39269  1.0000
  C   C990      1.0  0.32324  0.88862  0.38102  1.0000
  H   H779      1.0  0.02848  0.88030  0.42295  1.0000
  H   H780      1.0  0.06131  0.78695  0.44988  1.0000
  H   H781      1.0  0.21520  0.86811  0.43085  1.0000
  C   C991      1.0  0.05438  0.75541  0.46054  1.0000
  P   P37       1.0  0.32837  0.88464  0.16478  1.0000
  H   H782      1.0  0.11528  0.95252  0.37269  1.0000
  H   H783      1.0  0.08231  0.93821  0.36251  1.0000
  H   H784      1.0  0.20963  0.83982  0.13769  1.0000
  C   C992      1.0  0.23167  0.90860  0.45317  1.0000
  C   C993      1.0  0.33196  0.87560  0.13824  1.0000
  C   C994      1.0  0.29216  0.95172  0.41461  1.0000
  H   H785      1.0  0.26255  0.89850  0.38281  1.0000
  H   H786      1.0  0.30174  0.91433  0.37206  1.0000
  H   H787      1.0  0.00991  0.77477  0.33925  1.0000
  C   C995      1.0  0.26750  0.75404  0.45109  1.0000
  H   H788      1.0  0.25557  0.96525  0.39205  1.0000
  H   H789      1.0  0.26925  0.91811  0.20781  1.0000
  C   C996      1.0  0.25248  0.95153  0.38361  1.0000
  C   C997      1.0  0.02367  0.92780  0.31288  1.0000
  C   C998      1.0  0.01634  0.79780  0.39597  1.0000
  H   H790      1.0  0.20268  0.84208  0.07082  1.0000
  H   H791      1.0  0.26443  0.96789  0.42879  1.0000
  H   H792      1.0  0.30227  0.89579  0.20267  1.0000
  C   C999      1.0  0.32837  0.89732  0.06212  1.0000
  C   C1000     1.0  0.16537  0.76727  0.04308  1.0000
  C   C1001     1.0  0.30571  0.79916  0.41149  1.0000
  C   C1002     1.0  0.24164  0.84577  0.43494  1.0000
  C   C1003     1.0  0.20097  0.99031  0.39087  1.0000
  C   C1004     1.0  0.26490  0.84013  0.40386  1.0000
  C   C1005     1.0  0.32821  0.82293  0.20562  1.0000
  C   C1006     1.0  0.30185  0.96371  0.00809  1.0000
  H   H793      1.0  0.21708  0.77129  0.02742  1.0000
  H   H794      1.0  0.03705  0.77630  0.20459  1.0000
  S   S140      1.0  0.21140  0.96466  0.27441  1.0000
  C   C1007     1.0  0.23435  0.86471  0.40198  1.0000
  C   C1008     1.0  0.31257  0.98845  0.42198  1.0000
  H   H795      1.0  0.25482  0.96096  0.25850  1.0000
  C   C1009     1.0  0.29986  0.94219  0.00573  1.0000
  C   C1010     1.0  0.24649  0.85526  0.02752  1.0000
  C   C1011     1.0  0.05668  0.96476  0.25080  1.0000
  C   C1012     1.0  0.20859  0.83387  0.08481  1.0000
  C   C1013     1.0  0.00529  0.79397  0.43990  1.0000
  H   H796      1.0  0.32822  0.80827  0.21499  1.0000
  C   C1014     1.0  0.26056  0.91823  0.47329  1.0000
  C   C1015     1.0  0.29364  0.97329  0.02651  1.0000
  C   C1016     1.0  0.24559  0.96632  0.24530  1.0000
  Fe  Fe72      1.0  0.01649  0.82213  0.34194  1.0000
  C   C1017     1.0  0.28424  0.77513  0.05677  1.0000
  C   C1018     1.0  0.26702  0.78976  0.05523  1.0000
  C   C1019     1.0  0.03993  0.93418  0.29868  1.0000
  H   H797      1.0  0.29915  0.86854  0.13632  1.0000
  C   C1020     1.0  0.24628  0.78336  0.05906  1.0000
  H   H798      1.0  0.30019  0.78011  0.05347  1.0000
  C   C1021     1.0  0.22994  0.82262  0.03805  1.0000
  C   C1022     1.0  0.22345  0.82139  0.01741  1.0000
  H   H799      1.0  0.21630  0.76972  0.44348  1.0000
  C   C1023     1.0  0.26411  0.79177  0.44330  1.0000
  H   H800      1.0  0.02203  0.98393  0.31785  1.0000
  C   C1024     1.0  0.31586  0.90658  0.48900  1.0000
  C   C1025     1.0  0.03415  0.76138  0.31796  1.0000
  H   H801      1.0  0.32978  0.88660  0.36506  1.0000
  H   H802      1.0  0.23522  0.78849  0.10110  1.0000
  S   S141      1.0  0.02639  0.79961  0.36925  1.0000
  H   H803      1.0  0.27827  0.96752  0.05751  1.0000
  C   C1026     1.0  0.27780  0.84875  0.46919  1.0000
  C   C1027     1.0  0.24036  0.91080  0.47261  1.0000
  H   H804      1.0  0.27475  0.76703  0.01457  1.0000
  C   C1028     1.0  0.21963  0.81420  0.08336  1.0000
  H   H805      1.0  0.06703  0.75733  0.24498  1.0000
  C   C1029     1.0  0.24322  0.91376  0.43438  1.0000
  H   H806      1.0  0.00682  0.83056  0.39848  1.0000
  H   H807      1.0  0.25248  0.93584  0.17710  1.0000
  C   C1030     1.0  0.06104  0.77072  0.44557  1.0000
  C   C1031     1.0  0.07496  0.77028  0.28462  1.0000
  C   C1032     1.0  0.09539  0.77532  0.28932  1.0000
  C   C1033     1.0  0.10209  0.79569  0.28484  1.0000
  C   C1034     1.0  0.08856  0.81104  0.27546  1.0000
  C   C1035     1.0  0.06837  0.80601  0.27047  1.0000
  C   C1036     1.0  0.06152  0.78580  0.27527  1.0000
  H   H808      1.0  0.25593  0.86808  0.03129  1.0000
  H   H809      1.0  0.27001  0.80596  0.05080  1.0000
  C   C1037     1.0  0.07856  0.96674  0.24968  1.0000
  C   C1038     1.0  0.27199  0.92369  0.45458  1.0000
  H   H810      1.0  0.18613  0.75187  0.01979  1.0000
  H   H811      1.0  0.29341  0.77423  0.45037  1.0000
  C   C1039     1.0  0.29492  0.90321  0.18906  1.0000
  H   H812      1.0  0.23727  0.84248  0.45147  1.0000
  C   C1040     1.0  0.23364  0.93658  0.35634  1.0000
  C   C1041     1.0  0.26352  0.92133  0.43496  1.0000
  C   C1042     1.0  0.28080  0.81306  0.48414  1.0000
  H   H813      1.0  0.17949  0.80441  0.07532  1.0000
  H   H814      1.0  0.14864  0.78502  0.06741  1.0000
  H   H815      1.0  0.26938  0.93250  0.14118  1.0000
  H   H816      1.0  0.30419  0.85478  0.10056  1.0000
  H   H817      1.0  0.10395  0.98535  0.25800  1.0000
  C   C1043     1.0  0.02642  0.76994  0.21688  1.0000
  C   C1044     1.0  0.23870  0.95399  0.36717  1.0000
  C   C1045     1.0  0.01758  0.99231  0.36161  1.0000
  H   H818      1.0  0.31315  0.92168  0.48085  1.0000
  H   H819      1.0  0.22273  0.93860  0.34377  1.0000
  C   C1046     1.0  0.32598  0.79624  0.40176  1.0000
  C   C1047     1.0  0.22684  0.80376  0.10176  1.0000
  C   C1048     1.0  0.18121  0.79314  0.06307  1.0000
  C   C1049     1.0  0.29494  0.91136  0.15144  1.0000
  H   H820      1.0  0.04655  0.98986  0.39179  1.0000
  H   H821      1.0  0.25626  0.85796  0.37568  1.0000
  C   C1050     1.0  0.31477  0.86809  0.12847  1.0000
  C   C1051     1.0  0.01246  0.77624  0.42886  1.0000
  C   C1052     1.0  0.02315  0.93351  0.33384  1.0000
  H   H822      1.0  0.30251  0.91055  0.13581  1.0000
  C   C1053     1.0  0.20506  0.84308  0.10433  1.0000
  H   H823      1.0  0.05019  0.95160  0.24370  1.0000
  H   H824      1.0  0.31580  0.83671  0.44533  1.0000
  C   C1054     1.0  0.28395  0.96084  0.04273  1.0000
  C   C1055     1.0  0.02148  0.78138  0.23527  1.0000
  C   C1056     1.0  0.31837  0.82559  0.43300  1.0000
  C   C1057     1.0  0.28998  0.93002  0.02185  1.0000
  C   C1058     1.0  0.21240  0.83266  0.12256  1.0000
  C   C1059     1.0  0.05566  0.94632  0.30546  1.0000
  C   C1060     1.0  0.08699  0.98372  0.25874  1.0000
  C   C1061     1.0  0.33115  0.87595  0.39764  1.0000
  H   H825      1.0  0.23599  0.91239  0.41956  1.0000
  C   C1062     1.0  0.32357  0.92345  0.08945  1.0000
  C   C1063     1.0  0.31377  0.95327  0.40885  1.0000
  C   C1064     1.0  0.25620  0.91409  0.37839  1.0000
  H   H826      1.0  0.11427  0.98565  0.39165  1.0000
  C   C1065     1.0  0.27888  0.85647  0.48930  1.0000
  H   H827      1.0  0.08901  0.95511  0.24186  1.0000
  H   H828      1.0  0.21569  0.90363  0.45271  1.0000
  H   H829      1.0  0.27284  0.96676  0.22299  1.0000
  C   C1066     1.0  0.30674  0.89408  0.42229  1.0000
  H   H830      1.0  0.04982  0.75974  0.47651  1.0000
  C   C1067     1.0  0.04325  0.97953  0.26134  1.0000
  C   C1068     1.0  0.24234  0.91661  0.36198  1.0000
  H   H831      1.0  0.29423  0.82656  0.20555  1.0000
  C   C1069     1.0  0.30184  0.81371  0.42739  1.0000
  C   C1070     1.0  0.32687  0.88988  0.47851  1.0000
  H   H832      1.0  0.13183  0.77324  0.50030  1.0000
  C   C1071     1.0  0.02453  0.91416  0.41971  1.0000
  C   C1072     1.0  0.22837  0.83703  0.00203  1.0000
  H   H833      1.0  0.02267  0.94742  0.41204  1.0000
  C   C1073     1.0  0.32301  0.87881  0.41826  1.0000
  C   C1074     1.0  0.00837  0.98834  0.30889  1.0000
  H   H834      1.0  0.24748  0.84069  0.05851  1.0000
  C   C1075     1.0  0.32391  0.97156  0.41258  1.0000
  S   S142      1.0  0.33508  0.94193  0.10491  1.0000
  H   H835      1.0  0.01045  0.92837  0.34466  1.0000
  C   C1076     1.0  0.00767  0.77352  0.25138  1.0000
  C   C1077     1.0  0.22203  0.99575  0.42128  1.0000
  H   H836      1.0  0.24090  0.98593  0.30353  1.0000
  Fe  Fe73      1.0  0.33411  0.77103  0.49750  1.0000
  C   C1078     1.0  0.18466  0.76349  0.03180  1.0000
  C   C1079     1.0  0.24311  0.76220  0.06500  1.0000
  H   H837      1.0  0.33625  0.93573  0.25904  1.0000
  C   C1080     1.0  0.20222  0.77447  0.03617  1.0000
  H   H838      1.0  0.25174  0.99730  0.03460  1.0000
  C   C1081     1.0  0.05167  0.99637  0.27093  1.0000
  C   C1082     1.0  0.07358  0.99859  0.26904  1.0000
  H   H839      1.0  0.00496  0.90516  0.27355  1.0000
  H   H840      1.0  0.15184  0.75855  0.03980  1.0000
  H   H841      1.0  0.22734  0.75686  0.06843  1.0000
  C   C1083     1.0  0.23982  0.85397  0.00708  1.0000
  C   C1084     1.0  0.28091  0.75403  0.06213  1.0000
  P   P38       1.0  0.29743  0.00072  0.03048  1.0000
  S   S143      1.0  0.19071  0.00052  0.36662  1.0000
  C   C1085     1.0  0.33643  0.91287  0.07404  1.0000
  H   H842      1.0  0.28226  0.00008  0.43507  1.0000
  C   C1086     1.0  0.24579  0.75268  0.44938  1.0000
  H   H843      1.0  0.03707  0.86732  0.75787  1.0000
  C   C1087     1.0  0.03357  0.88280  0.75071  1.0000
  C   C1088     1.0  0.01114  0.75783  0.91869  1.0000
  H   H844      1.0  0.08824  0.75530  0.55113  1.0000
  Fe  Fe74      1.0  0.01517  0.80303  0.71327  1.0000
  S   S144      1.0  0.29416  0.85644  0.99475  1.0000
  H   H845      1.0  0.03155  0.76454  0.80295  1.0000
  C   C1089     1.0  0.04185  0.00030  0.73903  1.0000
  H   H846      1.0  0.31670  0.94648  0.95593  1.0000
  C   C1090     1.0  0.12745  0.76244  0.51329  1.0000
  Fe  Fe75      1.0  0.32646  0.85699  0.97840  1.0000
  C   C1091     1.0  0.17060  0.79082  0.64170  1.0000
  H   H847      1.0  0.03592  0.97307  0.67977  1.0000
  S   S145      1.0  0.27807  0.99277  0.85504  1.0000
  S   S146      1.0  0.31410  0.96197  0.83158  1.0000
  C   C1092     1.0  0.00745  0.79149  0.58078  1.0000
  Fe  Fe76      1.0  0.30092  0.96612  0.86491  1.0000
  S   S147      1.0  0.28815  0.93996  0.88711  1.0000
  C   C1093     1.0  0.02123  0.92236  0.68068  1.0000
  C   C1094     1.0  0.01420  0.80607  0.59470  1.0000
  Fe  Fe77      1.0  0.17972  0.98088  0.67353  1.0000
  S   S148      1.0  0.17391  0.95581  0.69936  1.0000
  H   H848      1.0  0.12999  0.77070  0.67190  1.0000
  C   C1095     1.0  0.04542  0.91647  0.73701  1.0000
  H   H849      1.0  0.29845  0.77687  0.94941  1.0000
  Fe  Fe78      1.0  0.17123  0.98290  0.72138  1.0000
  H   H850      1.0  0.28431  0.80999  0.51763  1.0000
  Fe  Fe79      1.0  0.13887  0.96227  0.69487  1.0000
  S   S149      1.0  0.10972  0.94406  0.68863  1.0000
  C   C1096     1.0  0.29180  0.96249  0.93937  1.0000
  S   S150      1.0  0.14540  0.98500  0.66738  1.0000
  S   S151      1.0  0.04066  0.81102  0.68848  1.0000
  C   C1097     1.0  0.02660  0.91806  0.65962  1.0000
  H   H851      1.0  0.08839  0.97937  0.71765  1.0000
  Fe  Fe80      1.0  0.04131  0.84222  0.70369  1.0000
  S   S152      1.0  0.07274  0.85421  0.71272  1.0000
  H   H852      1.0  0.22555  0.95879  0.70465  1.0000
  H   H853      1.0  0.30167  0.76590  0.98687  1.0000
  C   C1098     1.0  0.03317  0.95766  0.67437  1.0000
  H   H854      1.0  0.31267  0.99552  0.59910  1.0000
  H   H855      1.0  0.01464  0.91010  0.69099  1.0000
  C   C1099     1.0  0.09985  0.91899  0.69590  1.0000
  C   C1100     1.0  0.11087  0.90385  0.70832  1.0000
  C   C1101     1.0  0.10231  0.88416  0.71340  1.0000
  C   C1102     1.0  0.08260  0.87942  0.70629  1.0000
  C   C1103     1.0  0.07146  0.89465  0.69412  1.0000
  C   C1104     1.0  0.08013  0.91421  0.68880  1.0000
  H   H856      1.0  0.12603  0.90728  0.71391  1.0000
  H   H857      1.0  0.11105  0.87251  0.72289  1.0000
  H   H858      1.0  0.05629  0.89123  0.68862  1.0000
  H   H859      1.0  0.07152  0.92573  0.67910  1.0000
  C   C1105     1.0  0.02499  0.92237  0.73061  1.0000
  Fe  Fe81      1.0  0.27883  0.95544  0.51154  1.0000
  C   C1106     1.0  0.33220  0.77520  0.94208  1.0000
  C   C1107     1.0  0.21452  0.98326  0.78541  1.0000
  H   H860      1.0  0.25152  0.85259  0.73685  1.0000
  H   H861      1.0  0.06561  0.89203  0.75114  1.0000
  C   C1108     1.0  0.31918  0.99504  0.93128  1.0000
  C   C1109     1.0  0.31399  0.77304  0.95531  1.0000
  H   H862      1.0  0.27027  0.92658  0.85037  1.0000
  H   H863      1.0  0.29197  0.94849  0.78744  1.0000
  H   H864      1.0  0.28149  0.94951  0.94172  1.0000
  C   C1110     1.0  0.23689  0.77541  0.97911  1.0000
  C   C1111     1.0  0.08483  0.78795  0.63306  1.0000
  H   H865      1.0  0.14469  0.76375  0.61144  1.0000
  H   H866      1.0  0.27494  0.90841  0.91805  1.0000
  C   C1112     1.0  0.07681  0.76190  0.70247  1.0000
  H   H867      1.0  0.23424  0.94330  0.85524  1.0000
  C   C1113     1.0  0.29177  0.90961  0.91921  1.0000
  C   C1114     1.0  0.30258  0.92396  0.90563  1.0000
  C   C1115     1.0  0.32434  0.92532  0.90728  1.0000
  C   C1116     1.0  0.04964  0.89677  0.74697  1.0000
  C   C1117     1.0  0.00751  0.80534  0.61626  1.0000
  S   S153      1.0  0.26879  0.80275  0.98338  1.0000
  C   C1118     1.0  0.22556  0.75701  0.98350  1.0000
  H   H868      1.0  0.30811  0.88211  0.53720  1.0000
  H   H869      1.0  0.17844  0.99328  0.61783  1.0000
  C   C1119     1.0  0.23435  0.98598  0.58970  1.0000
  C   C1120     1.0  0.23114  0.98087  0.61149  1.0000
  C   C1121     1.0  0.21103  0.98363  0.62193  1.0000
  H   H870      1.0  0.01265  0.79237  0.56426  1.0000
  C   C1122     1.0  0.30253  0.89678  0.93430  1.0000
  C   C1123     1.0  0.22895  0.99128  0.75024  1.0000
  S   S154      1.0  0.01748  0.85809  0.68253  1.0000
  S   S155      1.0  0.32851  0.82185  0.97435  1.0000
  S   S156      1.0  0.20820  0.97738  0.64962  1.0000
  H   H871      1.0  0.32713  0.98174  0.72727  1.0000
  S   S157      1.0  0.01656  0.82424  0.63299  1.0000
  H   H872      1.0  0.06500  0.95261  0.70796  1.0000
  C   C1124     1.0  0.10869  0.76623  0.52548  1.0000
  H   H873      1.0  0.32232  0.76219  0.54724  1.0000
  H   H874      1.0  0.12892  0.82146  0.62440  1.0000
  S   S158      1.0  0.01397  0.76909  0.72761  1.0000
  C   C1125     1.0  0.32569  0.97722  0.94368  1.0000
  H   H875      1.0  0.05349  0.76722  0.58809  1.0000
  C   C1126     1.0  0.28098  0.84254  0.50680  1.0000
  H   H876      1.0  0.33003  0.91499  0.55500  1.0000
  H   H877      1.0  0.07053  0.76927  0.73508  1.0000
  S   S159      1.0  0.18620  0.98109  0.75394  1.0000
  C   C1127     1.0  0.01316  0.88858  0.74465  1.0000
  H   H878      1.0  0.24743  0.83005  0.76962  1.0000
  C   C1128     1.0  0.25757  0.88026  0.75322  1.0000
  C   C1129     1.0  0.32426  0.86760  0.51025  1.0000
  H   H879      1.0  0.20125  0.97927  0.79600  1.0000
  S   S160      1.0  0.29465  0.92431  0.52411  1.0000
  H   H880      1.0  0.00998  0.99183  0.64771  1.0000
  C   C1130     1.0  0.31329  0.88434  0.52076  1.0000
  C   C1131     1.0  0.13740  0.80919  0.63344  1.0000
  H   H881      1.0  0.32951  0.98376  0.56507  1.0000
  H   H882      1.0  0.20540  0.93475  0.72891  1.0000
  H   H883      1.0  0.09853  0.78007  0.52199  1.0000
  H   H884      1.0  0.16764  0.81644  0.61850  1.0000
  H   H885      1.0  0.30029  0.89085  0.75410  1.0000
  H   H886      1.0  0.18764  0.78882  0.63920  1.0000
  P   P39       1.0  0.01962  0.94700  0.71597  1.0000
  C   C1132     1.0  0.33599  0.98797  0.75844  1.0000
  H   H887      1.0  0.28214  0.84860  0.52231  1.0000
  C   C1133     1.0  0.30877  0.90384  0.51014  1.0000
  H   H888      1.0  0.24409  0.86576  0.99497  1.0000
  C   C1134     1.0  0.31187  0.96088  0.94750  1.0000
  H   H889      1.0  0.12695  0.75476  0.57984  1.0000
  C   C1135     1.0  0.08407  0.76928  0.68240  1.0000
  H   H890      1.0  0.03990  0.92996  0.62975  1.0000
  C   C1136     1.0  0.07167  0.98092  0.72235  1.0000
  H   H891      1.0  0.08121  0.77815  0.89197  1.0000
  S   S161      1.0  0.02133  0.75733  0.51666  1.0000
  H   H892      1.0  0.22448  0.93727  0.78969  1.0000
  H   H893      1.0  0.33268  0.81369  0.59562  1.0000
  H   H894      1.0  0.23169  0.78673  0.96701  1.0000
  C   C1137     1.0  0.15992  0.77803  0.65675  1.0000
  H   H895      1.0  0.32733  0.85263  0.51855  1.0000
  C   C1138     1.0  0.07690  0.77472  0.71970  1.0000
  S   S162      1.0  0.32597  0.98728  0.87305  1.0000
  Fe  Fe82      1.0  0.29302  0.99029  0.82216  1.0000
  C   C1139     1.0  0.23444  0.98578  0.79373  1.0000
  H   H896      1.0  0.33059  0.78092  0.92590  1.0000
  C   C1140     1.0  0.28218  0.82085  0.50418  1.0000
  C   C1141     1.0  0.25321  0.85911  0.75207  1.0000
  C   C1142     1.0  0.15934  0.80637  0.63003  1.0000
  H   H897      1.0  0.27963  0.99559  0.98886  1.0000
  C   C1143     1.0  0.02491  0.94205  0.68834  1.0000
  S   S163      1.0  0.01725  0.83329  0.72960  1.0000
  S   S164      1.0  0.24335  0.95927  0.51088  1.0000
  C   C1144     1.0  0.02847  0.98478  0.73398  1.0000
  H   H898      1.0  0.21129  0.94819  0.82478  1.0000
  H   H899      1.0  0.25122  0.84506  0.80445  1.0000
  H   H900      1.0  0.05838  0.92660  0.73390  1.0000
  C   C1145     1.0  0.13795  0.78072  0.66012  1.0000
  C   C1146     1.0  0.25303  0.85488  0.79013  1.0000
  H   H901      1.0  0.03668  0.76990  0.62406  1.0000
  H   H902      1.0  0.01461  0.77391  0.91424  1.0000
  C   C1147     1.0  0.05831  0.96561  0.71700  1.0000
  H   H903      1.0  0.22400  0.83556  0.98596  1.0000
  C   C1148     1.0  0.06388  0.78211  0.63698  1.0000
  C   C1149     1.0  0.03852  0.95328  0.65330  1.0000
  H   H904      1.0  0.24995  0.98391  0.58201  1.0000
  C   C1150     1.0  0.31574  0.76697  0.97656  1.0000
  C   C1151     1.0  0.02463  0.76683  0.76998  1.0000
  H   H905      1.0  0.25935  0.88986  0.73875  1.0000
  H   H906      1.0  0.25891  0.88223  0.80670  1.0000
  C   C1152     1.0  0.21161  0.98567  0.76356  1.0000
  C   C1153     1.0  0.05448  0.75163  0.87306  1.0000
  C   C1154     1.0  0.02687  0.75606  0.78980  1.0000
  C   C1155     1.0  0.23137  0.92708  0.74880  1.0000
  H   H907      1.0  0.02435  0.90258  0.65414  1.0000
  C   C1156     1.0  0.09428  0.78627  0.61260  1.0000
  C   C1157     1.0  0.05847  0.77613  0.91873  1.0000
  C   C1158     1.0  0.07252  0.78651  0.90446  1.0000
  C   C1159     1.0  0.07578  0.80783  0.90645  1.0000
  C   C1160     1.0  0.06533  0.81880  0.92288  1.0000
  C   C1161     1.0  0.05175  0.80842  0.93746  1.0000
  C   C1162     1.0  0.04846  0.78711  0.93551  1.0000
  S   S165      1.0  0.28069  0.98528  0.52900  1.0000
  C   C1163     1.0  0.06239  0.77265  0.60066  1.0000
  H   H908      1.0  0.27956  0.94834  0.74213  1.0000
  H   H909      1.0  0.08660  0.81579  0.89536  1.0000
  H   H910      1.0  0.26258  0.96553  0.71144  1.0000
  H   H911      1.0  0.06797  0.83529  0.92446  1.0000
  H   H912      1.0  0.04393  0.81686  0.95041  1.0000
  H   H913      1.0  0.03822  0.77916  0.94717  1.0000
  C   C1164     1.0  0.25956  0.88893  0.77289  1.0000
  C   C1165     1.0  0.01835  0.75622  0.75279  1.0000
  C   C1166     1.0  0.24894  0.99350  0.75853  1.0000
  H   H914      1.0  0.31006  0.97274  0.99567  1.0000
  C   C1167     1.0  0.32430  0.89808  0.93591  1.0000
  H   H915      1.0  0.29400  0.88580  0.94460  1.0000
  H   H916      1.0  0.22235  0.91641  0.75902  1.0000
  C   C1168     1.0  0.32389  0.93836  0.77834  1.0000
  H   H917      1.0  0.32048  0.99476  0.76337  1.0000
  S   S166      1.0  0.27796  0.99267  0.78968  1.0000
  P   P40       1.0  0.09823  0.80042  0.65314  1.0000
  C   C1169     1.0  0.09096  0.78983  0.67933  1.0000
  C   C1170     1.0  0.12653  0.79641  0.64854  1.0000
  C   C1171     1.0  0.25486  0.77929  0.99012  1.0000
  C   C1172     1.0  0.25090  0.84642  0.77052  1.0000
  C   C1173     1.0  0.29914  0.99651  0.92309  1.0000
  C   C1174     1.0  0.08309  0.77865  0.59651  1.0000
  H   H918      1.0  0.09028  0.77791  0.58069  1.0000
  C   C1175     1.0  0.09187  0.80224  0.69690  1.0000
  C   C1176     1.0  0.08473  0.79476  0.71696  1.0000
  H   H919      1.0  0.16870  0.76613  0.66596  1.0000
  C   C1177     1.0  0.09111  0.82834  0.65154  1.0000
  C   C1178     1.0  0.07204  0.83584  0.64299  1.0000
  C   C1179     1.0  0.06659  0.85740  0.64161  1.0000
  C   C1180     1.0  0.08018  0.87169  0.64868  1.0000
  C   C1181     1.0  0.09913  0.86439  0.65735  1.0000
  C   C1182     1.0  0.10455  0.84281  0.65889  1.0000
  C   C1183     1.0  0.05290  0.77416  0.62094  1.0000
  H   H920      1.0  0.28366  0.91496  0.81551  1.0000
  H   H921      1.0  0.02474  0.81798  0.58873  1.0000
  H   H922      1.0  0.02747  0.78340  0.76809  1.0000
  H   H923      1.0  0.27033  0.98094  0.91992  1.0000
  H   H924      1.0  0.09724  0.81805  0.69515  1.0000
  H   H925      1.0  0.08452  0.80492  0.73020  1.0000
  Fe  Fe83      1.0  0.29719  0.82084  0.99340  1.0000
  H   H926      1.0  0.06117  0.82514  0.63752  1.0000
  H   H927      1.0  0.05168  0.86290  0.63526  1.0000
  H   H928      1.0  0.07587  0.88840  0.64793  1.0000
  H   H929      1.0  0.10932  0.87549  0.66346  1.0000
  H   H930      1.0  0.11905  0.83748  0.66612  1.0000
  H   H931      1.0  0.24438  0.97474  0.62035  1.0000
  H   H932      1.0  0.23628  0.98382  0.81053  1.0000
  C   C1184     1.0  0.03664  0.96713  0.72308  1.0000
  C   C1185     1.0  0.25737  0.87603  0.79134  1.0000
  C   C1186     1.0  0.03535  0.93345  0.64595  1.0000
  C   C1187     1.0  0.28550  0.98021  0.92704  1.0000
  H   H933      1.0  0.05569  0.78433  0.65220  1.0000
  C   C1188     1.0  0.22704  0.94079  0.82271  1.0000
  C   C1189     1.0  0.23994  0.93808  0.83984  1.0000
  C   C1190     1.0  0.26030  0.92876  0.83707  1.0000
  C   C1191     1.0  0.26789  0.92235  0.81718  1.0000
  C   C1192     1.0  0.25526  0.92553  0.79971  1.0000
  C   C1193     1.0  0.23464  0.93454  0.80272  1.0000
  P   P41       1.0  0.26504  0.91632  0.77424  1.0000
  C   C1194     1.0  0.25234  0.93080  0.75283  1.0000
  C   C1195     1.0  0.29325  0.91920  0.77131  1.0000
  C   C1196     1.0  0.30202  0.93652  0.77964  1.0000
  H   H934      1.0  0.08371  0.75914  0.66926  1.0000
  C   C1197     1.0  0.00887  0.90819  0.73456  1.0000
  Fe  Fe84      1.0  0.24563  0.99018  0.52597  1.0000
  C   C1198     1.0  0.30664  0.90422  0.76087  1.0000
  C   C1199     1.0  0.26355  0.94479  0.73925  1.0000
  C   C1200     1.0  0.25401  0.95456  0.72174  1.0000
  C   C1201     1.0  0.23313  0.95078  0.71790  1.0000
  C   C1202     1.0  0.22178  0.93719  0.73153  1.0000
  C   C1203     1.0  0.21747  0.99417  0.57804  1.0000
  H   H935      1.0  0.04556  0.96516  0.64282  1.0000
  H   H936      1.0  0.00899  0.87051  0.63798  1.0000
  C   C1204     1.0  0.25197  0.99053  0.78031  1.0000
  H   H937      1.0  0.11004  0.79133  0.60882  1.0000
  S   S167      1.0  0.13555  0.98765  0.71858  1.0000
  Fe  Fe85      1.0  0.01489  0.82605  0.66910  1.0000
  H   H938      1.0  0.26221  0.99743  0.74791  1.0000
  H   H939      1.0  0.22703  0.99362  0.73349  1.0000
  C   C1205     1.0  0.32852  0.90636  0.75920  1.0000
  C   C1206     1.0  0.33513  0.91246  0.92233  1.0000
  C   C1207     1.0  0.19406  0.99142  0.61017  1.0000
  H   H940      1.0  0.01184  0.98679  0.73847  1.0000
  H   H941      1.0  0.30629  0.93475  0.99161  1.0000
  H   H942      1.0  0.01120  0.90300  0.61505  1.0000
  S   S168      1.0  0.30192  0.75618  0.50565  1.0000
  H   H943      1.0  0.33283  0.93617  0.89683  1.0000
  H   H944      1.0  0.33402  0.81652  0.55659  1.0000
  C   C1208     1.0  0.06347  0.99830  0.73335  1.0000
  C   C1209     1.0  0.10285  0.75202  0.54194  1.0000
  H   H945      1.0  0.33051  0.95137  0.78552  1.0000
  H   H946      1.0  0.12255  0.99002  0.58836  1.0000
  H   H947      1.0  0.12660  0.99527  0.62628  1.0000
  C   C1210     1.0  0.19733  0.99686  0.58845  1.0000
  H   H948      1.0  0.21178  0.75448  0.97490  1.0000
  H   H949      1.0  0.04576  0.76658  0.87503  1.0000
  H   H950      1.0  0.01445  0.77038  0.84516  1.0000
  H   H951      1.0  0.05239  0.75312  0.83919  1.0000
  C   C1211     1.0  0.33629  0.75190  0.54961  1.0000
  C   C1212     1.0  0.32081  0.99887  0.56578  1.0000
  C   C1213     1.0  0.33565  0.76338  0.98471  1.0000
  C   C1214     1.0  0.46793  0.11674  0.12566  1.0000
  Fe  Fe86      1.0  0.63226  0.18391  0.46860  1.0000
  S   S169      1.0  0.60089  0.18985  0.45238  1.0000
  Fe  Fe87      1.0  0.38771  0.16759  0.47447  1.0000
  S   S170      1.0  0.41566  0.15859  0.45133  1.0000
  Fe  Fe88      1.0  0.54312  0.18615  0.34393  1.0000
  S   S171      1.0  0.51942  0.21368  0.33941  1.0000
  S   S172      1.0  0.57639  0.18439  0.35644  1.0000
  Fe  Fe89      1.0  0.51545  0.15531  0.32382  1.0000
  S   S173      1.0  0.48941  0.18030  0.31841  1.0000
  S   S174      1.0  0.51935  0.11980  0.31865  1.0000
  Fe  Fe90      1.0  0.51526  0.20200  0.30696  1.0000
  S   S175      1.0  0.51008  0.22019  0.27494  1.0000
  Fe  Fe91      1.0  0.49499  0.19062  0.35107  1.0000
  S   S176      1.0  0.46862  0.20271  0.37441  1.0000
  S   S177      1.0  0.54089  0.17612  0.31056  1.0000
  S   S178      1.0  0.51901  0.16418  0.35736  1.0000
  S   S179      1.0  0.50342  0.01812  0.21176  1.0000
  S   S180      1.0  0.48671  0.05333  0.25706  1.0000
  H   H952      1.0  0.53452  0.10903  0.22730  1.0000
  H   H953      1.0  0.56062  0.06607  0.17630  1.0000
  S   S181      1.0  0.52847  0.21763  0.01284  1.0000
  H   H954      1.0  0.59678  0.14455  0.44721  1.0000
  H   H955      1.0  0.60163  0.15156  0.26398  1.0000
  H   H956      1.0  0.52887  0.17689  0.20537  1.0000
  H   H957      1.0  0.56802  0.04811  0.26668  1.0000
  C   C1215     1.0  0.41340  0.03997  0.07142  1.0000
  H   H958      1.0  0.44467  0.00905  0.14316  1.0000
  H   H959      1.0  0.59035  0.20098  0.01259  1.0000
  C   C1216     1.0  0.37407  0.04210  0.13086  1.0000
  C   C1217     1.0  0.34554  0.15761  0.37391  1.0000
  C   C1218     1.0  0.34502  0.22183  0.43044  1.0000
  Fe  Fe92      1.0  0.49772  0.02013  0.24680  1.0000
  S   S182      1.0  0.63252  0.15860  0.49452  1.0000
  C   C1219     1.0  0.63021  0.09270  0.27269  1.0000
  C   C1220     1.0  0.45101  0.05558  0.11548  1.0000
  H   H960      1.0  0.59286  0.14380  0.33114  1.0000
  S   S183      1.0  0.35285  0.17019  0.46878  1.0000
  C   C1221     1.0  0.65766  0.23693  0.43572  1.0000
  C   C1222     1.0  0.58955  0.13908  0.31553  1.0000
  H   H961      1.0  0.50649  0.19018  0.23586  1.0000
  H   H962      1.0  0.58189  0.08324  0.26884  1.0000
  C   C1223     1.0  0.59946  0.14857  0.29763  1.0000
  H   H963      1.0  0.53654  0.14419  0.27714  1.0000
  H   H964      1.0  0.52151  0.07344  0.22482  1.0000
  C   C1224     1.0  0.51041  0.10189  0.30085  1.0000
  C   C1225     1.0  0.49419  0.10736  0.28730  1.0000
  C   C1226     1.0  0.48714  0.09226  0.27414  1.0000
  C   C1227     1.0  0.49641  0.07162  0.27405  1.0000
  C   C1228     1.0  0.51274  0.06622  0.28751  1.0000
  C   C1229     1.0  0.51962  0.08124  0.30084  1.0000
  H   H965      1.0  0.48673  0.12305  0.28736  1.0000
  H   H966      1.0  0.47422  0.09652  0.26415  1.0000
  H   H967      1.0  0.51990  0.05039  0.28783  1.0000
  H   H968      1.0  0.53208  0.07676  0.31135  1.0000
  C   C1230     1.0  0.43070  0.17141  0.43049  1.0000
  C   C1231     1.0  0.44507  0.15919  0.41777  1.0000
  C   C1232     1.0  0.45730  0.16849  0.40094  1.0000
  C   C1233     1.0  0.45506  0.19019  0.39646  1.0000
  C   C1234     1.0  0.44084  0.20243  0.40933  1.0000
  C   C1235     1.0  0.42884  0.19315  0.42633  1.0000
  H   H969      1.0  0.44655  0.14235  0.42079  1.0000
  H   H970      1.0  0.46803  0.15885  0.39110  1.0000
  H   H971      1.0  0.43897  0.21921  0.40600  1.0000
  H   H972      1.0  0.41805  0.20281  0.43607  1.0000
  C   C1236     1.0  0.59475  0.18836  0.42549  1.0000
  C   C1237     1.0  0.57396  0.19387  0.41986  1.0000
  C   C1238     1.0  0.56800  0.19236  0.39896  1.0000
  C   C1239     1.0  0.58292  0.18573  0.38324  1.0000
  C   C1240     1.0  0.60381  0.18044  0.38881  1.0000
  C   C1241     1.0  0.60968  0.18159  0.40983  1.0000
  H   H973      1.0  0.56236  0.19933  0.43177  1.0000
  H   H974      1.0  0.55196  0.19669  0.39490  1.0000
  H   H975      1.0  0.61552  0.17538  0.37678  1.0000
  H   H976      1.0  0.62574  0.17729  0.41387  1.0000
  H   H977      1.0  0.47802  0.12318  0.11288  1.0000
  H   H978      1.0  0.41560  0.02866  0.16132  1.0000
  H   H979      1.0  0.53829  0.04320  0.24394  1.0000
  C   C1242     1.0  0.61660  0.10982  0.20409  1.0000
  H   H980      1.0  0.35278  0.08592  0.49788  1.0000
  C   C1243     1.0  0.60041  0.10818  0.21990  1.0000
  H   H981      1.0  0.59101  0.16034  0.22887  1.0000
  H   H982      1.0  0.36125  0.10149  0.46268  1.0000
  C   C1244     1.0  0.59813  0.14609  0.22219  1.0000
  H   H983      1.0  0.34059  0.23551  0.43955  1.0000
  C   C1245     1.0  0.39897  0.07257  0.05544  1.0000
  C   C1246     1.0  0.38391  0.03579  0.17304  1.0000
  C   C1247     1.0  0.38177  0.13331  0.42313  1.0000
  H   H984      1.0  0.59828  0.04066  0.23482  1.0000
  C   C1248     1.0  0.39512  0.03685  0.13576  1.0000
  C   C1249     1.0  0.62482  0.07265  0.28020  1.0000
  H   H985      1.0  0.63626  0.13073  0.18521  1.0000
  H   H986      1.0  0.55699  0.10828  0.29188  1.0000
  H   H987      1.0  0.59541  0.09268  0.22482  1.0000
  C   C1250     1.0  0.37086  0.19425  0.42009  1.0000
  C   C1251     1.0  0.54215  0.09590  0.23582  1.0000
  C   C1252     1.0  0.62641  0.04728  0.19257  1.0000
  H   H988      1.0  0.34196  0.04818  0.14300  1.0000
  P   P42       1.0  0.41523  0.03176  0.11492  1.0000
  H   H989      1.0  0.39694  0.13868  0.41718  1.0000
  C   C1253     1.0  0.39776  0.18268  0.37500  1.0000
  C   C1254     1.0  0.57921  0.12849  0.27502  1.0000
  H   H990      1.0  0.55577  0.14781  0.21077  1.0000
  H   H991      1.0  0.38639  0.18651  0.42152  1.0000
  C   C1255     1.0  0.53485  0.07581  0.23416  1.0000
  H   H992      1.0  0.51007  0.17331  0.27138  1.0000
  C   C1256     1.0  0.43333  0.10693  0.13940  1.0000
  C   C1257     1.0  0.44169  0.10082  0.15879  1.0000
  C   C1258     1.0  0.46337  0.10220  0.16161  1.0000
  C   C1259     1.0  0.47639  0.11046  0.14497  1.0000
  P   P43       1.0  0.47397  0.09502  0.18693  1.0000
  C   C1260     1.0  0.47280  0.11757  0.20323  1.0000
  C   C1261     1.0  0.45887  0.07425  0.19965  1.0000
  C   C1262     1.0  0.45276  0.07444  0.22124  1.0000
  C   C1263     1.0  0.44165  0.05796  0.23096  1.0000
  C   C1264     1.0  0.43664  0.04113  0.21928  1.0000
  C   C1265     1.0  0.44243  0.04092  0.19776  1.0000
  C   C1266     1.0  0.45322  0.05752  0.18792  1.0000
  C   C1267     1.0  0.48467  0.11698  0.22126  1.0000
  C   C1268     1.0  0.48411  0.13436  0.23391  1.0000
  C   C1269     1.0  0.47161  0.15243  0.22877  1.0000
  C   C1270     1.0  0.45973  0.15316  0.21087  1.0000
  C   C1271     1.0  0.46029  0.13580  0.19811  1.0000
  C   C1272     1.0  0.50142  0.08585  0.18292  1.0000
  C   C1273     1.0  0.51748  0.10023  0.18207  1.0000
  C   C1274     1.0  0.53876  0.09316  0.17960  1.0000
  C   C1275     1.0  0.54417  0.07172  0.17787  1.0000
  C   C1276     1.0  0.52831  0.05740  0.17830  1.0000
  C   C1277     1.0  0.50704  0.06441  0.18075  1.0000
  H   H993      1.0  0.41661  0.10573  0.13730  1.0000
  H   H994      1.0  0.43118  0.09512  0.17158  1.0000
  H   H995      1.0  0.49303  0.11217  0.14686  1.0000
  H   H996      1.0  0.45694  0.08687  0.23091  1.0000
  H   H997      1.0  0.43775  0.05786  0.24780  1.0000
  H   H998      1.0  0.42860  0.02810  0.22701  1.0000
  H   H999      1.0  0.43901  0.02762  0.18885  1.0000
  H   H1000     1.0  0.45754  0.05710  0.17124  1.0000
  H   H1001     1.0  0.49403  0.10289  0.22578  1.0000
  H   H1002     1.0  0.49321  0.13370  0.24787  1.0000
  H   H1003     1.0  0.47102  0.16580  0.23877  1.0000
  H   H1004     1.0  0.44997  0.16717  0.20695  1.0000
  H   H1005     1.0  0.45089  0.13666  0.18439  1.0000
  H   H1006     1.0  0.51360  0.11690  0.18344  1.0000
  H   H1007     1.0  0.55108  0.10426  0.17921  1.0000
  H   H1008     1.0  0.52235  0.10805  0.47497  1.0000
  H   H1009     1.0  0.63488  0.21830  0.42241  1.0000
  H   H1010     1.0  0.49517  0.05292  0.18122  1.0000
  C   C1278     1.0  0.35621  0.18589  0.40757  1.0000
  H   H1011     1.0  0.38951  0.19730  0.37938  1.0000
  H   H1012     1.0  0.56637  0.11737  0.32712  1.0000
  C   C1279     1.0  0.46628  0.13570  0.47594  1.0000
  C   C1280     1.0  0.42850  0.16490  0.35800  1.0000
  H   H1013     1.0  0.39571  0.11298  0.44719  1.0000
  C   C1281     1.0  0.50682  0.11589  0.47492  1.0000
  C   C1282     1.0  0.50172  0.13147  0.45936  1.0000
  C   C1283     1.0  0.48141  0.14156  0.46023  1.0000
  P   P44       1.0  0.52029  0.13814  0.43771  1.0000
  C   C1284     1.0  0.51842  0.16648  0.43477  1.0000
  C   C1285     1.0  0.54701  0.12822  0.44252  1.0000
  C   C1286     1.0  0.56342  0.14188  0.44394  1.0000
  C   C1287     1.0  0.58417  0.13385  0.44640  1.0000
  C   C1288     1.0  0.58878  0.11216  0.44736  1.0000
  C   C1289     1.0  0.57264  0.09843  0.44567  1.0000
  C   C1290     1.0  0.55189  0.10642  0.44304  1.0000
  C   C1291     1.0  0.51138  0.17671  0.41621  1.0000
  C   C1292     1.0  0.50923  0.19867  0.41454  1.0000
  C   C1293     1.0  0.51393  0.21056  0.43138  1.0000
  C   C1294     1.0  0.52067  0.20050  0.45002  1.0000
  C   C1295     1.0  0.52277  0.17853  0.45176  1.0000
  C   C1296     1.0  0.51341  0.12652  0.41379  1.0000
  C   C1297     1.0  0.49305  0.11963  0.41161  1.0000
  C   C1298     1.0  0.48799  0.11103  0.39281  1.0000
  C   C1299     1.0  0.50325  0.10904  0.37615  1.0000
  C   C1300     1.0  0.52359  0.11563  0.37829  1.0000
  C   C1301     1.0  0.52862  0.12455  0.39692  1.0000
  C   C1302     1.0  0.61442  0.14765  0.20647  1.0000
  C   C1303     1.0  0.44644  0.11489  0.12284  1.0000
  C   C1304     1.0  0.59101  0.12633  0.22911  1.0000
  C   C1305     1.0  0.64643  0.05890  0.16090  1.0000
  H   H1014     1.0  0.47707  0.15371  0.44850  1.0000
  H   H1015     1.0  0.56052  0.15873  0.44276  1.0000
  H   H1016     1.0  0.63341  0.00559  0.16642  1.0000
  H   H1017     1.0  0.53967  0.09560  0.44107  1.0000
  H   H1018     1.0  0.50733  0.16790  0.40304  1.0000
  H   H1019     1.0  0.50395  0.20647  0.40009  1.0000
  H   H1020     1.0  0.51240  0.22758  0.42988  1.0000
  H   H1021     1.0  0.52451  0.20973  0.46301  1.0000
  H   H1022     1.0  0.52794  0.17089  0.46628  1.0000
  H   H1023     1.0  0.48093  0.12100  0.42421  1.0000
  H   H1024     1.0  0.47216  0.10609  0.39106  1.0000
  H   H1025     1.0  0.49929  0.10272  0.36141  1.0000
  H   H1026     1.0  0.53522  0.11452  0.36512  1.0000
  H   H1027     1.0  0.54428  0.13027  0.39797  1.0000
  C   C1306     1.0  0.35962  0.01147  0.03881  1.0000
  H   H1028     1.0  0.54946  0.23578  0.20036  1.0000
  C   C1307     1.0  0.60106  0.23214  0.16468  1.0000
  H   H1029     1.0  0.62519  0.03987  0.27379  1.0000
  H   H1030     1.0  0.63118  0.10940  0.48804  1.0000
  H   H1031     1.0  0.37662  0.21847  0.44125  1.0000
  C   C1308     1.0  0.62418  0.01715  0.23739  1.0000
  Fe  Fe93      1.0  0.34992  0.19526  0.49303  1.0000
  C   C1309     1.0  0.44109  0.03741  0.12321  1.0000
  H   H1032     1.0  0.64021  0.05557  0.01528  1.0000
  C   C1310     1.0  0.40018  0.06842  0.09345  1.0000
  C   C1311     1.0  0.38114  0.11875  0.44028  1.0000
  H   H1033     1.0  0.61058  0.16053  0.29950  1.0000
  S   S184      1.0  0.34817  0.09265  0.03856  1.0000
  H   H1034     1.0  0.56808  0.19397  0.49526  1.0000
  H   H1035     1.0  0.58347  0.24363  0.02368  1.0000
  H   H1036     1.0  0.50016  0.18826  0.49068  1.0000
  C   C1312     1.0  0.61834  0.22054  0.15556  1.0000
  C   C1313     1.0  0.55107  0.14427  0.49950  1.0000
  C   C1314     1.0  0.66424  0.05022  0.19310  1.0000
  S   S185      1.0  0.56061  0.00784  0.19778  1.0000
  C   C1315     1.0  0.51485  0.24568  0.26288  1.0000
  C   C1316     1.0  0.63916  0.05798  0.24737  1.0000
  C   C1317     1.0  0.62715  0.05427  0.17132  1.0000
  H   H1037     1.0  0.57873  0.15815  0.48444  1.0000
  S   S186      1.0  0.38315  0.14240  0.50023  1.0000
  C   C1318     1.0  0.64041  0.07181  0.00943  1.0000
  C   C1319     1.0  0.64035  0.09541  0.25270  1.0000
  C   C1320     1.0  0.36175  0.11241  0.44912  1.0000
  H   H1038     1.0  0.61139  0.04325  0.20003  1.0000
  S   S187      1.0  0.64308  0.20845  0.48941  1.0000
  C   C1321     1.0  0.59429  0.14338  0.27747  1.0000
  H   H1039     1.0  0.38756  0.03266  0.18939  1.0000
  C   C1322     1.0  0.33986  0.01133  0.03012  1.0000
  C   C1323     1.0  0.55537  0.22678  0.23245  1.0000
  H   H1040     1.0  0.65208  0.21880  0.14882  1.0000
  C   C1324     1.0  0.41740  0.18345  0.36391  1.0000
  C   C1325     1.0  0.64855  0.08679  0.02160  1.0000
  H   H1041     1.0  0.42052  0.02429  0.06951  1.0000
  C   C1326     1.0  0.39984  0.03356  0.15701  1.0000
  H   H1042     1.0  0.34285  0.03328  0.09058  1.0000
  C   C1327     1.0  0.36535  0.21227  0.43133  1.0000
  C   C1328     1.0  0.36308  0.04105  0.16800  1.0000
  C   C1329     1.0  0.34349  0.13546  0.42392  1.0000
  C   C1330     1.0  0.57467  0.12418  0.31326  1.0000
  C   C1331     1.0  0.56944  0.11898  0.29315  1.0000
  P   P45       1.0  0.56969  0.12444  0.24925  1.0000
  C   C1332     1.0  0.54886  0.14440  0.24454  1.0000
  C   C1333     1.0  0.54605  0.15332  0.22416  1.0000
  C   C1334     1.0  0.53073  0.16971  0.22099  1.0000
  C   C1335     1.0  0.51798  0.17709  0.23807  1.0000
  C   C1336     1.0  0.52007  0.16765  0.25816  1.0000
  C   C1337     1.0  0.53530  0.15126  0.26139  1.0000
  C   C1338     1.0  0.55914  0.09883  0.24838  1.0000
  C   C1339     1.0  0.56866  0.08140  0.25923  1.0000
  C   C1340     1.0  0.56110  0.06141  0.25776  1.0000
  C   C1341     1.0  0.54436  0.05860  0.24503  1.0000
  H   H1043     1.0  0.62362  0.18601  0.02766  1.0000
  C   C1342     1.0  0.64886  0.10771  0.01407  1.0000
  H   H1044     1.0  0.43990  0.11983  0.10788  1.0000
  H   H1045     1.0  0.56402  0.22127  0.26458  1.0000
  H   H1046     1.0  0.64471  0.11093  0.24695  1.0000
  C   C1343     1.0  0.33730  0.08052  0.49544  1.0000
  C   C1344     1.0  0.62932  0.05534  0.26764  1.0000
  C   C1345     1.0  0.62365  0.12952  0.19743  1.0000
  H   H1047     1.0  0.62375  0.09576  0.19702  1.0000
  C   C1346     1.0  0.36296  0.00132  0.05841  1.0000
  H   H1048     1.0  0.41836  0.00420  0.28072  1.0000
  P   P46       1.0  0.64451  0.03563  0.23102  1.0000
  H   H1049     1.0  0.45052  0.14329  0.47624  1.0000
  H   H1050     1.0  0.42841  0.13115  0.35822  1.0000
  C   C1347     1.0  0.41978  0.14551  0.36285  1.0000
  C   C1348     1.0  0.56777  0.22932  0.24950  1.0000
  H   H1051     1.0  0.57628  0.08160  0.44600  1.0000
  P   P47       1.0  0.36341  0.16204  0.39409  1.0000
  H   H1052     1.0  0.39685  0.07492  0.10881  1.0000
  C   C1349     1.0  0.47150  0.05913  0.12104  1.0000
  H   H1053     1.0  0.65477  0.08220  0.03679  1.0000
  H   H1054     1.0  0.44400  0.16563  0.34991  1.0000
  C   C1350     1.0  0.40002  0.14468  0.37379  1.0000
  C   C1351     1.0  0.47233  0.02675  0.14248  1.0000
  H   H1055     1.0  0.39337  0.12956  0.37732  1.0000
  H   H1056     1.0  0.57057  0.01597  0.24479  1.0000
  H   H1057     1.0  0.54215  0.21670  0.23444  1.0000
  C   C1352     1.0  0.39490  0.08060  0.07543  1.0000
  C   C1353     1.0  0.40919  0.04787  0.09160  1.0000
  H   H1058     1.0  0.47046  0.19452  0.46733  1.0000
  C   C1354     1.0  0.38908  0.16324  0.38035  1.0000
  H   H1059     1.0  0.49813  0.04733  0.13858  1.0000
  H   H1060     1.0  0.36970  0.04402  0.11464  1.0000
  S   S188      1.0  0.66089  0.16418  0.00992  1.0000
  H   H1061     1.0  0.44316  0.06692  0.10494  1.0000
  H   H1062     1.0  0.61987  0.16295  0.20126  1.0000
  C   C1355     1.0  0.63869  0.22779  0.15591  1.0000
  H   H1063     1.0  0.60494  0.10605  0.44906  1.0000
  H   H1064     1.0  0.45026  0.00221  0.30168  1.0000
  H   H1065     1.0  0.61596  0.20592  0.14822  1.0000
  C   C1356     1.0  0.45189  0.02315  0.13692  1.0000
  C   C1357     1.0  0.64178  0.24653  0.16558  1.0000
  C   C1358     1.0  0.34445  0.05915  0.06725  1.0000
  C   C1359     1.0  0.48219  0.04468  0.13444  1.0000
  H   H1066     1.0  0.47919  0.07299  0.11476  1.0000
  H   H1067     1.0  0.39448  0.08197  0.04155  1.0000
  H   H1068     1.0  0.33782  0.01908  0.01483  1.0000
  C   C1360     1.0  0.66918  0.01281  0.06678  1.0000
  C   C1361     1.0  0.66492  0.05709  0.17186  1.0000
  H   H1069     1.0  0.38716  0.09614  0.07686  1.0000
  C   C1362     1.0  0.64505  0.04469  0.20353  1.0000
  C   C1363     1.0  0.58454  0.24266  0.24726  1.0000
  H   H1070     1.0  0.61718  0.07051  0.29581  1.0000
  H   H1071     1.0  0.37820  0.00159  0.06522  1.0000
  H   H1072     1.0  0.41132  0.04614  0.03788  1.0000
  C   C1364     1.0  0.47131  0.11992  0.49107  1.0000
  H   H1073     1.0  0.65334  0.03080  0.09147  1.0000
  C   C1365     1.0  0.40829  0.05231  0.05343  1.0000
  H   H1074     1.0  0.43379  0.18904  0.48120  1.0000
  C   C1366     1.0  0.36296  0.14150  0.41458  1.0000
  H   H1075     1.0  0.49655  0.24059  0.23621  1.0000
  H   H1076     1.0  0.42435  0.19845  0.36030  1.0000
  C   C1367     1.0  0.64490  0.07811  0.24010  1.0000
  C   C1368     1.0  0.35819  0.04434  0.14692  1.0000
  H   H1077     1.0  0.37129  0.24028  0.49147  1.0000
  Fe  Fe94      1.0  0.33703  0.11911  0.01528  1.0000
  C   C1369     1.0  0.46748  0.18958  0.48376  1.0000
  S   S189      1.0  0.66541  0.17506  0.45635  1.0000
  H   H1078     1.0  0.64725  0.06347  0.14421  1.0000
  C   C1370     1.0  0.63725  0.23097  0.43267  1.0000
  H   H1079     1.0  0.59644  0.02060  0.17193  1.0000
  H   H1080     1.0  0.58540  0.22620  0.16458  1.0000
  H   H1081     1.0  0.61286  0.05542  0.16271  1.0000
  Fe  Fe95      1.0  0.34823  0.14676  0.49614  1.0000
  H   H1082     1.0  0.34789  0.04764  0.49573  1.0000
  H   H1083     1.0  0.53258  0.04073  0.17710  1.0000
  C   C1371     1.0  0.55803  0.18115  0.49996  1.0000
  H   H1084     1.0  0.44943  0.16113  0.00532  1.0000
  C   C1372     1.0  0.55941  0.23788  0.21327  1.0000
  Fe  Fe96      1.0  0.66650  0.15098  0.48365  1.0000
  H   H1085     1.0  0.35063  0.04210  0.18040  1.0000
  H   H1086     1.0  0.35895  0.05295  0.05954  1.0000
  H   H1087     1.0  0.48048  0.01554  0.15305  1.0000
  C   C1373     1.0  0.60107  0.00571  0.17961  1.0000
  H   H1088     1.0  0.65293  0.08049  0.22474  1.0000
  C   C1374     1.0  0.65608  0.01535  0.08505  1.0000
  C   C1375     1.0  0.62135  0.18469  0.01104  1.0000
  H   H1089     1.0  0.62671  0.10610  0.28247  1.0000
  H   H1090     1.0  0.38095  0.00331  0.11356  1.0000
  H   H1091     1.0  0.37225  0.01969  0.03042  1.0000
  C   C1376     1.0  0.33807  0.13757  0.37163  1.0000
  C   C1377     1.0  0.58704  0.01057  0.24480  1.0000
  C   C1378     1.0  0.34293  0.12076  0.44096  1.0000
  C   C1379     1.0  0.60281  0.02437  0.23863  1.0000
  H   H1092     1.0  0.60416  0.23570  0.44154  1.0000
  C   C1380     1.0  0.41483  0.00435  0.10880  1.0000
  C   C1381     1.0  0.56404  0.16085  0.49379  1.0000
  H   H1093     1.0  0.34612  0.18946  0.36061  1.0000
  C   C1382     1.0  0.49164  0.11018  0.49073  1.0000
  H   H1094     1.0  0.34276  0.12441  0.38205  1.0000
  C   C1383     1.0  0.44679  0.18657  0.49158  1.0000
  H   H1095     1.0  0.65522  0.11938  0.02346  1.0000
  H   H1096     1.0  0.59402  0.24473  0.26057  1.0000
  S   S190      1.0  0.38549  0.19420  0.49677  1.0000
  H   H1097     1.0  0.55550  0.12864  0.49428  1.0000
  C   C1384     1.0  0.48430  0.18586  0.49700  1.0000
  H   H1098     1.0  0.59224  0.11414  0.49374  1.0000
  C   C1385     1.0  0.61990  0.24082  0.44349  1.0000
  C   C1386     1.0  0.33997  0.17407  0.35948  1.0000
  H   H1099     1.0  0.66960  0.00229  0.20976  1.0000
  C   C1387     1.0  0.60248  0.19326  0.00253  1.0000
  Fe  Fe97      1.0  0.64537  0.18235  0.51444  1.0000
  S   S191      1.0  0.63436  0.18889  0.54851  1.0000
  C   C1388     1.0  0.39039  0.09420  0.87296  1.0000
  Fe  Fe98      1.0  0.52917  0.17561  0.62839  1.0000
  S   S192      1.0  0.51449  0.20859  0.63102  1.0000
  S   S193      1.0  0.55168  0.16153  0.60241  1.0000
  Fe  Fe99      1.0  0.49910  0.15764  0.66376  1.0000
  S   S194      1.0  0.48171  0.18932  0.66778  1.0000
  S   S195      1.0  0.48904  0.13086  0.68701  1.0000
  Fe  Fe100     1.0  0.48331  0.19281  0.63215  1.0000
  S   S196      1.0  0.45738  0.20779  0.61140  1.0000
  Fe  Fe101     1.0  0.51384  0.20285  0.66665  1.0000
  S   S197      1.0  0.52230  0.22160  0.69536  1.0000
  S   S198      1.0  0.49795  0.16027  0.62841  1.0000
  S   S199      1.0  0.53113  0.17084  0.66369  1.0000
  Fe  Fe102     1.0  0.37949  0.16915  0.52234  1.0000
  C   C1389     1.0  0.35847  0.07472  0.84909  1.0000
  S   S200      1.0  0.39723  0.16181  0.55260  1.0000
  C   C1390     1.0  0.48057  0.17899  0.51814  1.0000
  H   H1100     1.0  0.58418  0.10633  0.93298  1.0000
  H   H1101     1.0  0.59468  0.07196  0.95498  1.0000
  H   H1102     1.0  0.41194  0.23160  0.70277  1.0000
  C   C1391     1.0  0.39236  0.00756  0.80881  1.0000
  H   H1103     1.0  0.40788  0.11082  0.84763  1.0000
  C   C1392     1.0  0.34218  0.08415  0.86195  1.0000
  S   S201      1.0  0.51881  0.22547  0.96274  1.0000
  H   H1104     1.0  0.64616  0.07708  0.60581  1.0000
  S   S202      1.0  0.51109  0.01804  0.76014  1.0000
  S   S203      1.0  0.51953  0.03347  0.69827  1.0000
  H   H1105     1.0  0.59603  0.04054  0.93345  1.0000
  C   C1393     1.0  0.44288  0.18015  0.51271  1.0000
  H   H1106     1.0  0.41476  0.14072  0.86885  1.0000
  C   C1394     1.0  0.63405  0.17284  0.97684  1.0000
  C   C1395     1.0  0.59930  0.19169  0.98107  1.0000
  C   C1396     1.0  0.37316  0.04140  0.96360  1.0000
  C   C1397     1.0  0.44786  0.19346  0.99367  1.0000
  C   C1398     1.0  0.45496  0.24037  0.85003  1.0000
  S   S204      1.0  0.47496  0.19691  0.99856  1.0000
  C   C1399     1.0  0.66636  0.11401  0.56114  1.0000
  C   C1400     1.0  0.57238  0.14349  0.97929  1.0000
  C   C1401     1.0  0.60756  0.06953  0.94324  1.0000
  S   S205      1.0  0.57575  0.20183  0.96936  1.0000
  S   S206      1.0  0.45091  0.01630  0.78037  1.0000
  C   C1402     1.0  0.39188  0.23843  0.61350  1.0000
  C   C1403     1.0  0.49046  0.11301  0.57679  1.0000
  C   C1404     1.0  0.53924  0.18487  0.51218  1.0000
  C   C1405     1.0  0.48094  0.11612  0.55752  1.0000
  H   H1107     1.0  0.40348  0.21835  0.97422  1.0000
  H   H1108     1.0  0.63569  0.02112  0.57547  1.0000
  C   C1406     1.0  0.40977  0.01615  0.79727  1.0000
  H   H1109     1.0  0.45940  0.11532  0.50307  1.0000
  C   C1407     1.0  0.44236  0.19443  0.59379  1.0000
  C   C1408     1.0  0.43173  0.20609  0.57780  1.0000
  C   C1409     1.0  0.41835  0.19638  0.56461  1.0000
  C   C1410     1.0  0.41520  0.17485  0.56744  1.0000
  C   C1411     1.0  0.42623  0.16313  0.58307  1.0000
  C   C1412     1.0  0.43985  0.17278  0.59602  1.0000
  H   H1110     1.0  0.43378  0.22276  0.57567  1.0000
  H   H1111     1.0  0.41019  0.20562  0.55256  1.0000
  H   H1112     1.0  0.42403  0.14646  0.58539  1.0000
  H   H1113     1.0  0.44789  0.16354  0.60818  1.0000
  C   C1413     1.0  0.49781  0.10381  0.68965  1.0000
  C   C1414     1.0  0.51135  0.09396  0.67450  1.0000
  C   C1415     1.0  0.51745  0.07235  0.67717  1.0000
  C   C1416     1.0  0.51035  0.06036  0.69512  1.0000
  C   C1417     1.0  0.49688  0.07025  0.71032  1.0000
  C   C1418     1.0  0.49063  0.09179  0.70754  1.0000
  H   H1114     1.0  0.51688  0.10291  0.66060  1.0000
  H   H1115     1.0  0.52777  0.06487  0.66528  1.0000
  H   H1116     1.0  0.49130  0.06131  0.72423  1.0000
  H   H1117     1.0  0.48011  0.09920  0.71935  1.0000
  C   C1419     1.0  0.61000  0.18270  0.56198  1.0000
  C   C1420     1.0  0.60412  0.19220  0.58116  1.0000
  C   C1421     1.0  0.58570  0.18673  0.59321  1.0000
  C   C1422     1.0  0.57320  0.17130  0.58643  1.0000
  C   C1423     1.0  0.57892  0.16196  0.56711  1.0000
  C   C1424     1.0  0.59706  0.16782  0.55479  1.0000
  H   H1118     1.0  0.61406  0.20365  0.58691  1.0000
  H   H1119     1.0  0.58164  0.19389  0.60812  1.0000
  H   H1120     1.0  0.56942  0.14992  0.56177  1.0000
  H   H1121     1.0  0.60140  0.16031  0.54012  1.0000
  H   H1122     1.0  0.45629  0.17157  0.54236  1.0000
  S   S207      1.0  0.34529  0.09142  0.94423  1.0000
  H   H1123     1.0  0.35752  0.17555  0.57121  1.0000
  H   H1124     1.0  0.66735  0.01088  0.55258  1.0000
  C   C1425     1.0  0.59642  0.24047  0.93693  1.0000
  C   C1426     1.0  0.58091  0.11611  0.94637  1.0000
  H   H1125     1.0  0.57341  0.22304  0.92261  1.0000
  H   H1126     1.0  0.37769  0.05734  0.96549  1.0000
  C   C1427     1.0  0.66070  0.12543  0.94455  1.0000
  C   C1428     1.0  0.50722  0.14607  0.57063  1.0000
  C   C1429     1.0  0.66366  0.21416  0.93677  1.0000
  H   H1127     1.0  0.64620  0.16521  0.96680  1.0000
  C   C1430     1.0  0.40969  0.24368  0.80542  1.0000
  C   C1431     1.0  0.35340  0.06569  0.83039  1.0000
  P   P48       1.0  0.38521  0.07193  0.85767  1.0000
  C   C1432     1.0  0.38812  0.04751  0.87311  1.0000
  C   C1433     1.0  0.37780  0.02980  0.86764  1.0000
  C   C1434     1.0  0.44507  0.23370  0.69421  1.0000
  H   H1128     1.0  0.47422  0.22610  0.75529  1.0000
  C   C1435     1.0  0.59206  0.13251  0.97719  1.0000
  C   C1436     1.0  0.40217  0.04546  0.88947  1.0000
  C   C1437     1.0  0.40370  0.07069  0.83492  1.0000
  C   C1438     1.0  0.42157  0.05659  0.83504  1.0000
  C   C1439     1.0  0.43568  0.05550  0.81734  1.0000
  C   C1440     1.0  0.43205  0.06834  0.79935  1.0000
  C   C1441     1.0  0.41441  0.08252  0.79912  1.0000
  C   C1442     1.0  0.40030  0.08376  0.81685  1.0000
  C   C1443     1.0  0.63538  0.09084  0.60679  1.0000
  H   H1129     1.0  0.36546  0.05742  0.82067  1.0000
  P   P49       1.0  0.44967  0.22666  0.91376  1.0000
  H   H1130     1.0  0.62942  0.08634  0.64043  1.0000
  Fe  Fe103     1.0  0.35516  0.15579  0.98704  1.0000
  H   H1131     1.0  0.66738  0.01868  0.96671  1.0000
  H   H1132     1.0  0.41090  0.05866  0.89351  1.0000
  H   H1133     1.0  0.44276  0.06690  0.78547  1.0000
  H   H1134     1.0  0.41158  0.09233  0.78506  1.0000
  H   H1135     1.0  0.38666  0.09477  0.81640  1.0000
  C   C1444     1.0  0.48463  0.13417  0.54476  1.0000
  C   C1445     1.0  0.40578  0.12797  0.87589  1.0000
  P   P50       1.0  0.64407  0.09761  0.56339  1.0000
  C   C1446     1.0  0.62735  0.10383  0.54171  1.0000
  C   C1447     1.0  0.62349  0.08399  0.94035  1.0000
  S   S208      1.0  0.37829  0.18226  0.98004  1.0000
  H   H1136     1.0  0.43126  0.00331  0.67726  1.0000
  C   C1448     1.0  0.41823  0.17002  0.99475  1.0000
  C   C1449     1.0  0.56114  0.12697  0.94868  1.0000
  H   H1137     1.0  0.40156  0.14164  0.90638  1.0000
  H   H1138     1.0  0.54923  0.12508  0.93748  1.0000
  Fe  Fe104     1.0  0.49941  0.22251  0.99358  1.0000
  C   C1450     1.0  0.64145  0.11359  0.99422  1.0000
  C   C1451     1.0  0.64938  0.23169  0.93779  1.0000
  H   H1139     1.0  0.41009  0.23136  0.89196  1.0000
  C   C1452     1.0  0.57761  0.23841  0.92699  1.0000
  H   H1140     1.0  0.60634  0.22644  0.94020  1.0000
  C   C1453     1.0  0.45269  0.24069  0.88840  1.0000
  H   H1141     1.0  0.33955  0.10750  0.53696  1.0000
  H   H1142     1.0  0.42419  0.24654  0.61536  1.0000
  H   H1143     1.0  0.65356  0.10333  0.51825  1.0000
  H   H1144     1.0  0.37411  0.08240  0.90158  1.0000
  C   C1454     1.0  0.42933  0.01622  0.72866  1.0000
  C   C1455     1.0  0.64032  0.08009  0.92539  1.0000
  C   C1456     1.0  0.33727  0.10834  0.57091  1.0000
  C   C1457     1.0  0.49882  0.22799  0.77673  1.0000
  C   C1458     1.0  0.66907  0.06410  0.54695  1.0000
  H   H1145     1.0  0.47718  0.23524  0.57469  1.0000
  H   H1146     1.0  0.66030  0.13331  0.71266  1.0000
  H   H1147     1.0  0.34529  0.09026  0.87696  1.0000
  H   H1148     1.0  0.50574  0.21246  0.77347  1.0000
  H   H1149     1.0  0.66888  0.20798  0.92166  1.0000
  H   H1150     1.0  0.37747  0.01663  0.81051  1.0000
  S   S209      1.0  0.64906  0.00174  0.80507  1.0000
  H   H1151     1.0  0.53478  0.20077  0.51667  1.0000
  H   H1152     1.0  0.41211  0.15474  0.99861  1.0000
  H   H1153     1.0  0.62534  0.05867  0.58010  1.0000
  H   H1154     1.0  0.56029  0.08992  0.62449  1.0000
  C   C1459     1.0  0.52527  0.24817  0.72835  1.0000
  C   C1460     1.0  0.64218  0.23946  0.95740  1.0000
  C   C1461     1.0  0.62618  0.09621  0.62652  1.0000
  C   C1462     1.0  0.40505  0.18607  0.98594  1.0000
  C   C1463     1.0  0.38170  0.00591  0.95243  1.0000
  H   H1155     1.0  0.49555  0.09804  0.50260  1.0000
  C   C1464     1.0  0.38784  0.02624  0.95551  1.0000
  C   C1465     1.0  0.63654  0.10506  0.52110  1.0000
  H   H1156     1.0  0.63702  0.23310  0.55675  1.0000
  C   C1466     1.0  0.60523  0.10585  0.54484  1.0000
  C   C1467     1.0  0.66322  0.13545  0.55543  1.0000
  C   C1468     1.0  0.60920  0.12747  0.61050  1.0000
  C   C1469     1.0  0.61304  0.11448  0.62834  1.0000
  H   H1157     1.0  0.36008  0.23208  0.60719  1.0000
  C   C1470     1.0  0.35475  0.20940  0.56866  1.0000
  C   C1471     1.0  0.63098  0.10342  0.58865  1.0000
  C   C1472     1.0  0.61841  0.12216  0.59081  1.0000
  H   H1158     1.0  0.40807  0.03186  0.79016  1.0000
  C   C1473     1.0  0.63871  0.12637  0.94298  1.0000
  H   H1159     1.0  0.51177  0.23945  0.58973  1.0000
  C   C1474     1.0  0.65179  0.07008  0.56063  1.0000
  H   H1160     1.0  0.66847  0.11276  0.95360  1.0000
  C   C1475     1.0  0.64098  0.06226  0.91335  1.0000
  P   P51       1.0  0.62289  0.10668  0.95652  1.0000
  C   C1476     1.0  0.42493  0.24954  0.94360  1.0000
  C   C1477     1.0  0.34030  0.05954  0.91736  1.0000
  C   C1478     1.0  0.48826  0.20852  0.55682  1.0000
  C   C1479     1.0  0.45966  0.17652  0.52600  1.0000
  H   H1161     1.0  0.65312  0.09060  0.92297  1.0000
  H   H1162     1.0  0.59924  0.14183  0.61193  1.0000
  H   H1163     1.0  0.60601  0.11879  0.64358  1.0000
  C   C1480     1.0  0.38697  0.11202  0.90614  1.0000
  H   H1164     1.0  0.37754  0.21182  0.89525  1.0000
  C   C1481     1.0  0.62504  0.04803  0.91623  1.0000
  H   H1165     1.0  0.41670  0.02449  0.91269  1.0000
  C   C1482     1.0  0.63281  0.07769  0.98963  1.0000
  C   C1483     1.0  0.40560  0.02607  0.90033  1.0000
  C   C1484     1.0  0.40183  0.11091  0.86388  1.0000
  S   S210      1.0  0.36218  0.12096  0.98881  1.0000
  C   C1485     1.0  0.52491  0.19675  0.56059  1.0000
  C   C1486     1.0  0.50376  0.12789  0.58323  1.0000
  H   H1166     1.0  0.58995  0.06194  0.76920  1.0000
  H   H1167     1.0  0.54180  0.14953  0.96667  1.0000
  C   C1487     1.0  0.38955  0.18884  0.91807  1.0000
  C   C1488     1.0  0.40669  0.18213  0.92995  1.0000
  C   C1489     1.0  0.42528  0.19297  0.92804  1.0000
  C   C1490     1.0  0.42700  0.21059  0.91401  1.0000
  C   C1491     1.0  0.63947  0.05445  0.57050  1.0000
  H   H1168     1.0  0.64216  0.12981  0.98858  1.0000
  C   C1492     1.0  0.42682  0.23703  0.70730  1.0000
  C   C1493     1.0  0.47347  0.21040  0.91844  1.0000
  C   C1494     1.0  0.47660  0.20139  0.93868  1.0000
  C   C1495     1.0  0.49444  0.18813  0.94243  1.0000
  C   C1496     1.0  0.50988  0.18454  0.92624  1.0000
  C   C1497     1.0  0.50730  0.19398  0.90618  1.0000
  C   C1498     1.0  0.48916  0.20682  0.90224  1.0000
  C   C1499     1.0  0.55690  0.14070  0.96510  1.0000
  C   C1500     1.0  0.39517  0.00858  0.89486  1.0000
  Fe  Fe105     1.0  0.54753  0.22262  0.98232  1.0000
  H   H1169     1.0  0.35672  0.05508  0.91977  1.0000
  C   C1501     1.0  0.63343  0.09865  0.98175  1.0000
  C   C1502     1.0  0.43345  0.01795  0.70683  1.0000
  H   H1170     1.0  0.39202  0.22844  0.62778  1.0000
  C   C1503     1.0  0.39837  0.12852  0.89701  1.0000
  C   C1504     1.0  0.64515  0.03316  0.56774  1.0000
  H   H1171     1.0  0.44108  0.03157  0.69977  1.0000
  H   H1172     1.0  0.37490  0.18085  0.92030  1.0000
  H   H1173     1.0  0.40524  0.16909  0.94146  1.0000
  H   H1174     1.0  0.43781  0.18788  0.93822  1.0000
  H   H1175     1.0  0.62666  0.06575  0.98057  1.0000
  H   H1176     1.0  0.46535  0.20472  0.95171  1.0000
  H   H1177     1.0  0.49659  0.18132  0.95819  1.0000
  H   H1178     1.0  0.51946  0.19150  0.89373  1.0000
  H   H1179     1.0  0.48775  0.21408  0.88666  1.0000
  H   H1180     1.0  0.56934  0.15470  0.99160  1.0000
  H   H1181     1.0  0.54218  0.21437  0.58122  1.0000
  C   C1505     1.0  0.62385  0.10841  0.50388  1.0000
  H   H1182     1.0  0.44914  0.04418  0.81726  1.0000
  C   C1506     1.0  0.48105  0.23591  0.76626  1.0000
  C   C1507     1.0  0.42802  0.00195  0.69419  1.0000
  S   S211      1.0  0.34386  0.17193  0.52019  1.0000
  C   C1508     1.0  0.52168  0.14809  0.72441  1.0000
  C   C1509     1.0  0.52844  0.16849  0.72109  1.0000
  C   C1510     1.0  0.54944  0.17162  0.71447  1.0000
  C   C1511     1.0  0.56366  0.15435  0.71104  1.0000
  C   C1512     1.0  0.55710  0.13372  0.71474  1.0000
  C   C1513     1.0  0.53588  0.13078  0.72119  1.0000
  P   P52       1.0  0.57489  0.11140  0.70827  1.0000
  C   C1514     1.0  0.57032  0.10446  0.68172  1.0000
  C   C1515     1.0  0.60200  0.11832  0.70957  1.0000
  C   C1516     1.0  0.61743  0.11202  0.69403  1.0000
  C   C1517     1.0  0.63836  0.11749  0.69513  1.0000
  C   C1518     1.0  0.64407  0.12912  0.71181  1.0000
  C   C1519     1.0  0.62884  0.13528  0.72743  1.0000
  C   C1520     1.0  0.60788  0.12990  0.72634  1.0000
  C   C1521     1.0  0.57381  0.08359  0.67562  1.0000
  C   C1522     1.0  0.57030  0.07839  0.65500  1.0000
  C   C1523     1.0  0.56335  0.09396  0.64036  1.0000
  C   C1524     1.0  0.56011  0.11478  0.64625  1.0000
  C   C1525     1.0  0.56369  0.12003  0.66680  1.0000
  C   C1526     1.0  0.56989  0.08938  0.72661  1.0000
  C   C1527     1.0  0.55238  0.07741  0.72432  1.0000
  C   C1528     1.0  0.54839  0.06017  0.73807  1.0000
  C   C1529     1.0  0.56189  0.05461  0.75426  1.0000
  C   C1530     1.0  0.57944  0.06635  0.75667  1.0000
  C   C1531     1.0  0.58346  0.08369  0.74294  1.0000
  H   H1183     1.0  0.50516  0.14563  0.72857  1.0000
  H   H1184     1.0  0.51725  0.18189  0.72285  1.0000
  H   H1185     1.0  0.55437  0.18750  0.71113  1.0000
  H   H1186     1.0  0.57952  0.15722  0.70484  1.0000
  H   H1187     1.0  0.52992  0.11523  0.72307  1.0000
  H   H1188     1.0  0.61339  0.10287  0.68110  1.0000
  C   C1532     1.0  0.46430  0.24052  0.70008  1.0000
  C   C1533     1.0  0.52649  0.16816  0.51865  1.0000
  H   H1189     1.0  0.63327  0.14422  0.74041  1.0000
  H   H1190     1.0  0.59625  0.13470  0.73861  1.0000
  H   H1191     1.0  0.57894  0.07126  0.68681  1.0000
  H   H1192     1.0  0.57245  0.06217  0.65055  1.0000
  C   C1534     1.0  0.49747  0.14954  0.55141  1.0000
  H   H1193     1.0  0.51736  0.15743  0.57614  1.0000
  H   H1194     1.0  0.56116  0.13623  0.67101  1.0000
  H   H1195     1.0  0.54184  0.08134  0.71178  1.0000
  H   H1196     1.0  0.53483  0.05106  0.73604  1.0000
  H   H1197     1.0  0.55872  0.04119  0.76488  1.0000
  H   H1198     1.0  0.63402  0.17004  0.91000  1.0000
  H   H1199     1.0  0.59718  0.09241  0.74516  1.0000
  H   H1200     1.0  0.42684  0.17779  0.51880  1.0000
  H   H1201     1.0  0.64378  0.23911  0.92331  1.0000
  C   C1535     1.0  0.49068  0.22486  0.57025  1.0000
  H   H1202     1.0  0.37174  0.21071  0.56778  1.0000
  C   C1536     1.0  0.62920  0.14249  0.93029  1.0000
  H   H1203     1.0  0.52890  0.23383  0.73752  1.0000
  H   H1204     1.0  0.53823  0.18569  0.55752  1.0000
  H   H1205     1.0  0.47287  0.20677  0.55090  1.0000
  C   C1537     1.0  0.65799  0.24102  0.53006  1.0000
  H   H1206     1.0  0.52178  0.23423  0.79905  1.0000
  H   H1207     1.0  0.61588  0.13285  0.57733  1.0000
  C   C1538     1.0  0.61206  0.00491  0.78381  1.0000
  H   H1208     1.0  0.43375  0.02848  0.73855  1.0000
  C   C1539     1.0  0.41348  0.20581  0.98102  1.0000
  C   C1540     1.0  0.64149  0.15761  0.91966  1.0000
  H   H1209     1.0  0.52403  0.17483  0.92941  1.0000
  C   C1541     1.0  0.43944  0.17371  0.99853  1.0000
  H   H1210     1.0  0.52263  0.13485  0.51639  1.0000
  H   H1211     1.0  0.48744  0.09916  0.58683  1.0000
  C   C1542     1.0  0.39104  0.20633  0.90407  1.0000
  C   C1543     1.0  0.35244  0.03616  0.96901  1.0000
  H   H1212     1.0  0.60089  0.23682  0.98871  1.0000
  C   C1544     1.0  0.59260  0.10983  0.52760  1.0000
  H   H1213     1.0  0.57559  0.11189  0.53017  1.0000
  P   P53       1.0  0.50244  0.17284  0.53488  1.0000
  C   C1545     1.0  0.53240  0.14787  0.51197  1.0000
  H   H1214     1.0  0.47720  0.13627  0.52991  1.0000
  C   C1546     1.0  0.38298  0.09498  0.89419  1.0000
  H   H1215     1.0  0.35001  0.11892  0.57146  1.0000
  H   H1216     1.0  0.47050  0.10465  0.55259  1.0000
  H   H1217     1.0  0.65401  0.05935  0.90182  1.0000
  H   H1218     1.0  0.36736  0.03066  0.85472  1.0000
  H   H1219     1.0  0.65020  0.11269  0.68306  1.0000
  C   C1547     1.0  0.50542  0.19440  0.55176  1.0000
  H   H1220     1.0  0.61230  0.14356  0.92861  1.0000
  H   H1221     1.0  0.61296  0.18027  0.95171  1.0000
  H   H1222     1.0  0.40392  0.03037  0.95141  1.0000
  C   C1548     1.0  0.37388  0.24043  0.60169  1.0000
  C   C1549     1.0  0.51014  0.22715  0.57884  1.0000
  H   H1223     1.0  0.51122  0.12555  0.59815  1.0000
  H   H1224     1.0  0.42459  0.04614  0.84857  1.0000
  C   C1550     1.0  0.38130  0.01046  0.87851  1.0000
  C   C1551     1.0  0.34092  0.22743  0.56793  1.0000
  Fe  Fe106     1.0  0.51089  0.01047  0.72589  1.0000
  C   C1552     1.0  0.59648  0.11859  0.96079  1.0000
  H   H1225     1.0  0.34111  0.04814  0.97499  1.0000
  C   C1553     1.0  0.61523  0.18148  0.96831  1.0000
  C   C1554     1.0  0.60192  0.11107  0.50712  1.0000
  C   C1555     1.0  0.43465  0.20953  0.98493  1.0000
  C   C1556     1.0  0.50787  0.24023  0.79112  1.0000
  C   C1557     1.0  0.40961  0.21727  0.90215  1.0000
  H   H1226     1.0  0.55461  0.12688  0.63494  1.0000
  C   C1558     1.0  0.52724  0.21306  0.57405  1.0000
  C   C1559     1.0  0.36308  0.24573  0.52421  1.0000
  H   H1227     1.0  0.59763  0.10428  0.56047  1.0000
  H   H1228     1.0  0.36147  0.22917  0.52813  1.0000
  C   C1560     1.0  0.34676  0.18939  0.57059  1.0000
  H   H1229     1.0  0.62579  0.03417  0.90689  1.0000
  H   H1230     1.0  0.64508  0.23571  0.99126  1.0000
  H   H1231     1.0  0.64775  0.14206  0.55145  1.0000
  H   H1232     1.0  0.44077  0.22483  0.98124  1.0000
  C   C1561     1.0  0.60833  0.05165  0.93118  1.0000
  H   H1233     1.0  0.38122  0.11236  0.92256  1.0000
  C   C1562     1.0  0.65011  0.22997  0.97592  1.0000
  H   H1234     1.0  0.61989  0.01675  0.77398  1.0000
  H   H1235     1.0  0.45475  0.23189  0.83569  1.0000
  H   H1236     1.0  0.41089  0.23253  0.81876  1.0000
  C   C1563     1.0  0.34628  0.01582  0.96620  1.0000
  H   H1237     1.0  0.44215  0.23828  0.79478  1.0000
  C   C1564     1.0  0.66291  0.02736  0.55478  1.0000
  C   C1565     1.0  0.42781  0.24713  0.72629  1.0000
  H   H1238     1.0  0.47851  0.23778  0.69002  1.0000
  H   H1239     1.0  0.58360  0.00755  0.76626  1.0000
  C   C1566     1.0  0.66454  0.21259  0.97480  1.0000
  C   C1567     1.0  0.52137  0.24697  0.70679  1.0000
  H   H1240     1.0  0.44440  0.22571  0.67959  1.0000
  C   C1568     1.0  0.63902  0.24273  0.54233  1.0000
  H   H1241     1.0  0.35066  0.13515  0.88140  1.0000
  C   C1569     1.0  0.66334  0.15668  0.92153  1.0000
  H   H1242     1.0  0.44883  0.21329  0.87045  1.0000
  C   C1570     1.0  0.63726  0.17438  0.99829  1.0000
  H   H1243     1.0  0.60394  0.13557  0.98800  1.0000
  C   C1571     1.0  0.42928  0.00452  0.79465  1.0000
  H   H1244     1.0  0.34085  0.13140  0.91966  1.0000
  H   H1245     1.0  0.33758  0.03622  0.89406  1.0000
  C   C1572     1.0  0.44536  0.24498  0.93462  1.0000
  H   H1246     1.0  0.41142  0.24192  0.93855  1.0000
  C   C1573     1.0  0.45166  0.22990  0.86972  1.0000
  H   H1247     1.0  0.41350  0.24930  0.73617  1.0000
  C   C1574     1.0  0.42742  0.24703  0.79178  1.0000
  C   C1575     1.0  0.41002  0.24870  0.60653  1.0000
  C   C1576     1.0  0.46534  0.25060  0.71903  1.0000
  C   C1577     1.0  0.41625  0.39220  0.08029  1.0000
  C   C1578     1.0  0.64338  0.26287  0.46032  1.0000
  Fe  Fe107     1.0  0.65335  0.46797  0.19256  1.0000
  S   S212      1.0  0.63051  0.44281  0.20444  1.0000
  H   H1248     1.0  0.53747  0.27799  0.19547  1.0000
  Fe  Fe108     1.0  0.36981  0.46733  0.18656  1.0000
  H   H1249     1.0  0.54502  0.26305  0.11944  1.0000
  S   S213      1.0  0.38713  0.43632  0.17714  1.0000
  P   P54       1.0  0.64725  0.28177  0.47979  1.0000
  C   C1579     1.0  0.53445  0.46353  0.16934  1.0000
  H   H1250     1.0  0.54180  0.28992  0.26770  1.0000
  H   H1251     1.0  0.46014  0.30494  0.26597  1.0000
  C   C1580     1.0  0.44059  0.33119  0.17893  1.0000
  Fe  Fe109     1.0  0.52498  0.32965  0.19719  1.0000
  S   S214      1.0  0.54441  0.32716  0.16619  1.0000
  S   S215      1.0  0.52995  0.30948  0.22802  1.0000
  Fe  Fe110     1.0  0.50101  0.37096  0.18152  1.0000
  S   S216      1.0  0.51840  0.37068  0.14966  1.0000
  S   S217      1.0  0.48115  0.39979  0.19346  1.0000
  Fe  Fe111     1.0  0.51385  0.33576  0.15057  1.0000
  S   S218      1.0  0.49944  0.31964  0.12347  1.0000
  Fe  Fe112     1.0  0.54777  0.36232  0.16733  1.0000
  S   S219      1.0  0.57762  0.37937  0.15597  1.0000
  S   S220      1.0  0.49422  0.33657  0.18159  1.0000
  S   S221      1.0  0.53073  0.36423  0.19910  1.0000
  C   C1581     1.0  0.60035  0.33956  0.47493  1.0000
  C   C1582     1.0  0.60420  0.32673  0.45773  1.0000
  C   C1583     1.0  0.64707  0.45426  0.11388  1.0000
  C   C1584     1.0  0.51088  0.30608  0.10113  1.0000
  C   C1585     1.0  0.49744  0.29759  0.08722  1.0000
  C   C1586     1.0  0.50567  0.28629  0.06963  1.0000
  C   C1587     1.0  0.52755  0.28317  0.06572  1.0000
  C   C1588     1.0  0.54100  0.29169  0.07963  1.0000
  C   C1589     1.0  0.53277  0.30312  0.09713  1.0000
  H   H1252     1.0  0.48050  0.29971  0.09008  1.0000
  C   C1590     1.0  0.61827  0.30906  0.45916  1.0000
  H   H1253     1.0  0.54336  0.30946  0.10764  1.0000
  C   C1591     1.0  0.41373  0.42718  0.18096  1.0000
  C   C1592     1.0  0.42140  0.40824  0.17209  1.0000
  C   C1593     1.0  0.44205  0.39972  0.17543  1.0000
  C   C1594     1.0  0.45525  0.41006  0.18790  1.0000
  C   C1595     1.0  0.44764  0.42915  0.19660  1.0000
  C   C1596     1.0  0.42709  0.43778  0.19301  1.0000
  H   H1254     1.0  0.41120  0.40012  0.16260  1.0000
  H   H1255     1.0  0.44769  0.38508  0.16857  1.0000
  H   H1256     1.0  0.45771  0.43728  0.20621  1.0000
  H   H1257     1.0  0.42143  0.45242  0.19983  1.0000
  H   H1258     1.0  0.57580  0.46700  0.13283  1.0000
  C   C1597     1.0  0.61459  0.42670  0.19040  1.0000
  C   C1598     1.0  0.61684  0.42538  0.16848  1.0000
  C   C1599     1.0  0.60532  0.41096  0.15821  1.0000
  C   C1600     1.0  0.59078  0.39823  0.16957  1.0000
  C   C1601     1.0  0.58779  0.40028  0.19139  1.0000
  C   C1602     1.0  0.59981  0.41423  0.20174  1.0000
  H   H1259     1.0  0.62787  0.43509  0.15955  1.0000
  H   H1260     1.0  0.60773  0.40965  0.14135  1.0000
  H   H1261     1.0  0.57664  0.39070  0.20040  1.0000
  H   H1262     1.0  0.59783  0.41517  0.21870  1.0000
  C   C1603     1.0  0.52347  0.28485  0.24106  1.0000
  C   C1604     1.0  0.38012  0.29530  0.21617  1.0000
  H   H1263     1.0  0.53162  0.42484  0.23573  1.0000
  H   H1264     1.0  0.37356  0.46365  0.12503  1.0000
  H   H1265     1.0  0.35572  0.28679  0.23953  1.0000
  C   C1605     1.0  0.64870  0.39617  0.10639  1.0000
  S   S222      1.0  0.37639  0.49006  0.21120  1.0000
  H   H1266     1.0  0.66845  0.40683  0.18218  1.0000
  C   C1606     1.0  0.61731  0.36692  0.11364  1.0000
  C   C1607     1.0  0.61264  0.38620  0.10308  1.0000
  C   C1608     1.0  0.62824  0.40078  0.09943  1.0000
  C   C1609     1.0  0.40265  0.41602  0.11485  1.0000
  C   C1610     1.0  0.66705  0.47663  0.26909  1.0000
  C   C1611     1.0  0.56116  0.26388  0.14837  1.0000
  H   H1267     1.0  0.44044  0.47591  0.14247  1.0000
  H   H1268     1.0  0.58567  0.27813  0.03932  1.0000
  H   H1269     1.0  0.60492  0.35603  0.11714  1.0000
  H   H1270     1.0  0.59667  0.39007  0.09840  1.0000
  H   H1271     1.0  0.62399  0.41582  0.09177  1.0000
  H   H1272     1.0  0.40504  0.30728  0.19561  1.0000
  P   P55       1.0  0.58164  0.26575  0.18616  1.0000
  C   C1612     1.0  0.52360  0.27186  0.14541  1.0000
  H   H1273     1.0  0.35975  0.40242  0.21568  1.0000
  H   H1274     1.0  0.60940  0.26338  0.46637  1.0000
  C   C1613     1.0  0.37497  0.46925  0.10867  1.0000
  C   C1614     1.0  0.48611  0.45584  0.23424  1.0000
  H   H1275     1.0  0.49507  0.27986  0.05919  1.0000
  C   C1615     1.0  0.59291  0.25550  0.01554  1.0000
  C   C1616     1.0  0.49434  0.47473  0.22610  1.0000
  H   H1276     1.0  0.52318  0.48952  0.21499  1.0000
  C   C1617     1.0  0.38466  0.37786  0.21540  1.0000
  H   H1277     1.0  0.42715  0.31465  0.24840  1.0000
  H   H1278     1.0  0.37503  0.36676  0.20860  1.0000
  H   H1279     1.0  0.37855  0.28170  0.20690  1.0000
  H   H1280     1.0  0.34925  0.39833  0.17071  1.0000
  C   C1618     1.0  0.38093  0.48980  0.10380  1.0000
  C   C1619     1.0  0.39642  0.40308  0.08063  1.0000
  H   H1281     1.0  0.51969  0.43467  0.17921  1.0000
  H   H1282     1.0  0.53423  0.25589  0.28666  1.0000
  H   H1283     1.0  0.45953  0.32013  0.15192  1.0000
  C   C1620     1.0  0.41697  0.35498  0.14961  1.0000
  H   H1284     1.0  0.43280  0.40640  0.12728  1.0000
  C   C1621     1.0  0.40581  0.37229  0.21969  1.0000
  C   C1622     1.0  0.55904  0.26753  0.17005  1.0000
  C   C1623     1.0  0.36728  0.29815  0.23457  1.0000
  C   C1624     1.0  0.54990  0.47303  0.15601  1.0000
  C   C1625     1.0  0.60541  0.29071  0.01343  1.0000
  H   H1285     1.0  0.40607  0.47829  0.24795  1.0000
  C   C1626     1.0  0.51632  0.47546  0.22190  1.0000
  H   H1286     1.0  0.43825  0.47343  0.22468  1.0000
  H   H1287     1.0  0.50997  0.27385  0.13582  1.0000
  C   C1627     1.0  0.44602  0.33010  0.15734  1.0000
  H   H1288     1.0  0.36830  0.39985  0.13591  1.0000
  H   H1289     1.0  0.35966  0.31769  0.26103  1.0000
  H   H1290     1.0  0.57644  0.25999  0.14069  1.0000
  C   C1628     1.0  0.41150  0.35611  0.17121  1.0000
  C   C1629     1.0  0.63772  0.36200  0.12020  1.0000
  H   H1291     1.0  0.43887  0.34142  0.12600  1.0000
  H   H1292     1.0  0.54262  0.41284  0.15500  1.0000
  H   H1293     1.0  0.37129  0.45333  0.05859  1.0000
  C   C1630     1.0  0.44100  0.32332  0.24404  1.0000
  C   C1631     1.0  0.44800  0.48041  0.15631  1.0000
  C   C1632     1.0  0.66857  0.41058  0.14829  1.0000
  C   C1633     1.0  0.42923  0.39317  0.09722  1.0000
  H   H1294     1.0  0.65261  0.40556  0.14795  1.0000
  C   C1634     1.0  0.49952  0.43795  0.23767  1.0000
  H   H1295     1.0  0.38120  0.42830  0.23108  1.0000
  H   H1296     1.0  0.45924  0.36243  0.21051  1.0000
  H   H1297     1.0  0.38616  0.34347  0.25001  1.0000
  C   C1635     1.0  0.47796  0.32844  0.24874  1.0000
  C   C1636     1.0  0.34586  0.42124  0.08010  1.0000
  C   C1637     1.0  0.52131  0.43883  0.23336  1.0000
  C   C1638     1.0  0.47508  0.47407  0.18158  1.0000
  C   C1639     1.0  0.37372  0.46342  0.07137  1.0000
  C   C1640     1.0  0.54342  0.26578  0.13619  1.0000
  C   C1641     1.0  0.58040  0.48793  0.19096  1.0000
  H   H1298     1.0  0.54662  0.45822  0.22205  1.0000
  H   H1299     1.0  0.63981  0.47144  0.05521  1.0000
  S   S223      1.0  0.53906  0.26851  0.04414  1.0000
  C   C1642     1.0  0.44055  0.33960  0.22831  1.0000
  C   C1643     1.0  0.66553  0.27446  0.01840  1.0000
  C   C1644     1.0  0.46581  0.46875  0.16325  1.0000
  C   C1645     1.0  0.45968  0.31774  0.25412  1.0000
  H   H1300     1.0  0.41830  0.41858  0.23940  1.0000
  H   H1301     1.0  0.60172  0.47858  0.21530  1.0000
  H   H1302     1.0  0.65760  0.25198  0.16613  1.0000
  C   C1646     1.0  0.58740  0.29279  0.18939  1.0000
  C   C1647     1.0  0.58116  0.30280  0.20813  1.0000
  C   C1648     1.0  0.58416  0.32419  0.20986  1.0000
  C   C1649     1.0  0.59334  0.33579  0.19288  1.0000
  C   C1650     1.0  0.59943  0.32602  0.17409  1.0000
  C   C1651     1.0  0.59635  0.30463  0.17227  1.0000
  C   C1652     1.0  0.62451  0.25820  0.17464  1.0000
  S   S224      1.0  0.65314  0.49669  0.21228  1.0000
  H   H1303     1.0  0.47198  0.45507  0.15490  1.0000
  H   H1304     1.0  0.65084  0.26870  0.02540  1.0000
  C   C1653     1.0  0.38297  0.49724  0.08279  1.0000
  C   C1654     1.0  0.35003  0.42736  0.12421  1.0000
  H   H1305     1.0  0.59642  0.33058  0.44319  1.0000
  H   H1306     1.0  0.64122  0.34715  0.12862  1.0000
  S   S225      1.0  0.36708  0.49212  0.16043  1.0000
  C   C1655     1.0  0.52151  0.27616  0.16680  1.0000
  C   C1656     1.0  0.53917  0.27406  0.17906  1.0000
  H   H1307     1.0  0.42172  0.38325  0.06675  1.0000
  C   C1657     1.0  0.39715  0.32763  0.22166  1.0000
  C   C1658     1.0  0.65521  0.44112  0.09789  1.0000
  C   C1659     1.0  0.65338  0.37652  0.11655  1.0000
  C   C1660     1.0  0.37094  0.45606  0.09248  1.0000
  H   H1308     1.0  0.57320  0.29441  0.22119  1.0000
  H   H1309     1.0  0.57864  0.33192  0.22415  1.0000
  H   H1310     1.0  0.59514  0.35250  0.19402  1.0000
  H   H1311     1.0  0.60574  0.33533  0.16071  1.0000
  H   H1312     1.0  0.60035  0.29748  0.15733  1.0000
  H   H1313     1.0  0.64914  0.44982  0.13031  1.0000
  P   P56       1.0  0.66824  0.41589  0.10440  1.0000
  H   H1314     1.0  0.44466  0.38487  0.09689  1.0000
  H   H1315     1.0  0.40791  0.36430  0.13824  1.0000
  H   H1316     1.0  0.57050  0.42901  0.13192  1.0000
  H   H1317     1.0  0.66699  0.44909  0.29006  1.0000
  H   H1318     1.0  0.63001  0.48349  0.12112  1.0000
  C   C1661     1.0  0.52749  0.25991  0.27165  1.0000
  H   H1319     1.0  0.50630  0.28164  0.17376  1.0000
  C   C1662     1.0  0.37947  0.48402  0.06657  1.0000
  H   H1320     1.0  0.44985  0.32166  0.18998  1.0000
  H   H1321     1.0  0.49184  0.35290  0.22898  1.0000
  H   H1322     1.0  0.52466  0.47288  0.18018  1.0000
  H   H1323     1.0  0.43410  0.38356  0.23206  1.0000
  C   C1663     1.0  0.38791  0.41256  0.22837  1.0000
  C   C1664     1.0  0.46665  0.49121  0.19309  1.0000
  C   C1665     1.0  0.35547  0.41132  0.13919  1.0000
  H   H1324     1.0  0.46930  0.45460  0.23733  1.0000
  H   H1325     1.0  0.55793  0.28941  0.07685  1.0000
  C   C1666     1.0  0.43723  0.48593  0.23569  1.0000
  C   C1667     1.0  0.39509  0.30992  0.20977  1.0000
  H   H1326     1.0  0.50366  0.27484  0.21753  1.0000
  P   P57       1.0  0.47672  0.49675  0.21823  1.0000
  C   C1668     1.0  0.62823  0.30384  0.47803  1.0000
  C   C1669     1.0  0.41780  0.38711  0.22860  1.0000
  P   P58       1.0  0.41696  0.34617  0.21411  1.0000
  C   C1670     1.0  0.41888  0.48871  0.24878  1.0000
  H   H1327     1.0  0.38106  0.48978  0.05027  1.0000
  C   C1671     1.0  0.65230  0.44735  0.07670  1.0000
  H   H1328     1.0  0.62145  0.29962  0.44549  1.0000
  C   C1672     1.0  0.63365  0.47959  0.08760  1.0000
  C   C1673     1.0  0.37583  0.39794  0.21960  1.0000
  C   C1674     1.0  0.45905  0.35015  0.22291  1.0000
  C   C1675     1.0  0.52973  0.45763  0.22565  1.0000
  H   H1329     1.0  0.39812  0.36629  0.17616  1.0000
  C   C1676     1.0  0.43434  0.34211  0.14269  1.0000
  C   C1677     1.0  0.59413  0.27501  0.02435  1.0000
  S   S226      1.0  0.65188  0.48622  0.16149  1.0000
  C   C1678     1.0  0.53181  0.27924  0.26078  1.0000
  C   C1679     1.0  0.42251  0.40523  0.11439  1.0000
  H   H1330     1.0  0.38699  0.40276  0.06702  1.0000
  C   C1680     1.0  0.40882  0.40709  0.23298  1.0000
  C   C1681     1.0  0.47758  0.34474  0.23327  1.0000
  H   H1331     1.0  0.39785  0.42559  0.12818  1.0000
  H   H1332     1.0  0.49296  0.42321  0.24320  1.0000
  C   C1682     1.0  0.51050  0.27079  0.23247  1.0000
  H   H1333     1.0  0.49253  0.32392  0.25632  1.0000
  C   C1683     1.0  0.36948  0.31556  0.24666  1.0000
  C   C1684     1.0  0.63623  0.47338  0.10872  1.0000
  H   H1334     1.0  0.48824  0.46418  0.18705  1.0000
  C   C1685     1.0  0.38444  0.33020  0.24032  1.0000
  H   H1335     1.0  0.58592  0.47490  0.18133  1.0000
  C   C1686     1.0  0.42357  0.34458  0.18609  1.0000
  C   C1687     1.0  0.38921  0.41459  0.09821  1.0000
  C   C1688     1.0  0.64168  0.46658  0.07160  1.0000
  C   C1689     1.0  0.54453  0.42963  0.15517  1.0000
  C   C1690     1.0  0.56022  0.43883  0.14207  1.0000
  C   C1691     1.0  0.56306  0.46041  0.14258  1.0000
  C   C1692     1.0  0.53164  0.44197  0.16883  1.0000
  H   H1336     1.0  0.60576  0.30601  0.02008  1.0000
  H   H1337     1.0  0.66466  0.46804  0.25516  1.0000
  C   C1693     1.0  0.58945  0.48996  0.21024  1.0000
  Fe  Fe113     1.0  0.34058  0.49371  0.21724  1.0000
  H   H1338     1.0  0.65825  0.43739  0.06409  1.0000
  P   P59       1.0  0.36399  0.42935  0.09869  1.0000
  H   H1339     1.0  0.62554  0.49452  0.08361  1.0000
  H   H1340     1.0  0.65371  0.30683  0.01672  1.0000
  C   C1694     1.0  0.62294  0.25654  0.45745  1.0000
  C   C1695     1.0  0.50637  0.25135  0.24322  1.0000
  C   C1696     1.0  0.66073  0.25281  0.44950  1.0000
  H   H1341     1.0  0.58951  0.35330  0.47377  1.0000
  H   H1342     1.0  0.60187  0.26388  0.22651  1.0000
  C   C1697     1.0  0.66843  0.46596  0.28872  1.0000
  H   H1343     1.0  0.62728  0.27245  0.18243  1.0000
  C   C1698     1.0  0.57594  0.25171  0.21103  1.0000
  C   C1699     1.0  0.45380  0.49954  0.23644  1.0000
  H   H1344     1.0  0.50938  0.49303  0.15118  1.0000
  C   C1700     1.0  0.34444  0.41015  0.15889  1.0000
  C   C1701     1.0  0.43956  0.49751  0.16759  1.0000
  C   C1702     1.0  0.66712  0.29592  0.01345  1.0000
  H   H1345     1.0  0.35426  0.38798  0.08446  1.0000
  H   H1346     1.0  0.38379  0.50004  0.11634  1.0000
  C   C1703     1.0  0.60395  0.25136  0.17374  1.0000
  C   C1704     1.0  0.62478  0.31716  0.49501  1.0000
  C   C1705     1.0  0.61072  0.33484  0.49353  1.0000
  C   C1706     1.0  0.34429  0.39983  0.07650  1.0000
  C   C1707     1.0  0.66932  0.49833  0.26723  1.0000
  C   C1708     1.0  0.58879  0.25363  0.22802  1.0000
  Fe  Fe114     1.0  0.52700  0.25302  0.01523  1.0000
  H   H1347     1.0  0.37420  0.27793  0.48122  1.0000
  C   C1709     1.0  0.37028  0.27324  0.49753  1.0000
  H   H1348     1.0  0.66896  0.37271  0.12229  1.0000
  P   P60       1.0  0.55438  0.50057  0.15841  1.0000
  Fe  Fe115     1.0  0.51790  0.32781  0.77019  1.0000
  S   S227      1.0  0.48836  0.32524  0.79111  1.0000
  S   S228      1.0  0.51982  0.31200  0.73783  1.0000
  Fe  Fe116     1.0  0.53463  0.36115  0.79933  1.0000
  S   S229      1.0  0.50570  0.35953  0.82177  1.0000
  S   S230      1.0  0.55795  0.38403  0.81098  1.0000
  Fe  Fe117     1.0  0.50958  0.32434  0.81858  1.0000
  S   S231      1.0  0.50702  0.29636  0.84273  1.0000
  Fe  Fe118     1.0  0.48719  0.36053  0.79249  1.0000
  S   S232      1.0  0.46012  0.38266  0.78096  1.0000
  S   S233      1.0  0.53944  0.32565  0.79753  1.0000
  S   S234      1.0  0.51590  0.36350  0.77027  1.0000
  H   H1349     1.0  0.54330  0.46245  0.79512  1.0000
  C   C1710     1.0  0.64403  0.26709  0.50462  1.0000
  C   C1711     1.0  0.48131  0.26827  0.78469  1.0000
  Fe  Fe119     1.0  0.36904  0.46937  0.81278  1.0000
  S   S235      1.0  0.38572  0.43907  0.82562  1.0000
  C   C1712     1.0  0.34392  0.41447  0.80239  1.0000
  C   C1713     1.0  0.66578  0.28245  0.78144  1.0000
  Fe  Fe120     1.0  0.64779  0.47249  0.79313  1.0000
  C   C1714     1.0  0.51669  0.26580  0.69528  1.0000
  S   S236      1.0  0.62510  0.45138  0.77807  1.0000
  C   C1715     1.0  0.44138  0.46472  0.75227  1.0000
  S   S237      1.0  0.51287  0.28732  0.94328  1.0000
  C   C1716     1.0  0.57554  0.40373  0.80148  1.0000
  C   C1717     1.0  0.58718  0.41357  0.81607  1.0000
  C   C1718     1.0  0.60189  0.42867  0.80936  1.0000
  C   C1719     1.0  0.60534  0.43400  0.78785  1.0000
  C   C1720     1.0  0.59328  0.42458  0.77332  1.0000
  C   C1721     1.0  0.57840  0.40967  0.78006  1.0000
  H   H1350     1.0  0.58500  0.40925  0.83268  1.0000
  H   H1351     1.0  0.61097  0.43575  0.82075  1.0000
  H   H1352     1.0  0.59571  0.42862  0.75667  1.0000
  H   H1353     1.0  0.56943  0.40254  0.76862  1.0000
  C   C1722     1.0  0.44091  0.39940  0.79428  1.0000
  C   C1723     1.0  0.42979  0.41514  0.78241  1.0000
  C   C1724     1.0  0.41358  0.42815  0.79195  1.0000
  C   C1725     1.0  0.40779  0.42504  0.81341  1.0000
  C   C1726     1.0  0.41903  0.40941  0.82533  1.0000
  C   C1727     1.0  0.43569  0.39683  0.81590  1.0000
  H   H1354     1.0  0.43358  0.41709  0.76565  1.0000
  H   H1355     1.0  0.40512  0.44013  0.78260  1.0000
  H   H1356     1.0  0.41467  0.40688  0.84193  1.0000
  H   H1357     1.0  0.44402  0.38472  0.82521  1.0000
  C   C1728     1.0  0.50918  0.29419  0.87065  1.0000
  C   C1729     1.0  0.50933  0.27410  0.88095  1.0000
  C   C1730     1.0  0.51042  0.27161  0.90309  1.0000
  C   C1731     1.0  0.51153  0.28922  0.91525  1.0000
  C   C1732     1.0  0.51146  0.30927  0.90492  1.0000
  C   C1733     1.0  0.51032  0.31177  0.88280  1.0000
  C   C1734     1.0  0.61439  0.46816  0.91635  1.0000
  H   H1358     1.0  0.42434  0.26882  0.58233  1.0000
  H   H1359     1.0  0.51219  0.32303  0.91414  1.0000
  H   H1360     1.0  0.51012  0.32732  0.87519  1.0000
  C   C1735     1.0  0.56840  0.27543  0.93080  1.0000
  C   C1736     1.0  0.52004  0.28656  0.72665  1.0000
  C   C1737     1.0  0.51625  0.28536  0.70508  1.0000
  C   C1738     1.0  0.61538  0.28695  0.99361  1.0000
  H   H1361     1.0  0.51292  0.29973  0.69582  1.0000
  C   C1739     1.0  0.64054  0.28385  0.94772  1.0000
  H   H1362     1.0  0.49449  0.41048  0.77995  1.0000
  H   H1363     1.0  0.60748  0.25698  0.54483  1.0000
  H   H1364     1.0  0.37453  0.33722  0.55635  1.0000
  H   H1365     1.0  0.45782  0.27095  0.90105  1.0000
  H   H1366     1.0  0.66561  0.29430  0.74911  1.0000
  C   C1740     1.0  0.35345  0.42255  0.78359  1.0000
  C   C1741     1.0  0.58985  0.31546  0.76056  1.0000
  C   C1742     1.0  0.57627  0.31718  0.74391  1.0000
  C   C1743     1.0  0.56601  0.33653  0.73861  1.0000
  C   C1744     1.0  0.56889  0.35407  0.75026  1.0000
  H   H1367     1.0  0.63303  0.31389  0.50937  1.0000
  C   C1745     1.0  0.60146  0.26012  0.94369  1.0000
  S   S238      1.0  0.49663  0.25764  0.99814  1.0000
  H   H1368     1.0  0.59735  0.30026  0.76470  1.0000
  H   H1369     1.0  0.34063  0.48537  0.88153  1.0000
  H   H1370     1.0  0.55528  0.33776  0.72587  1.0000
  H   H1371     1.0  0.56039  0.36889  0.74657  1.0000
  H   H1372     1.0  0.58365  0.36579  0.77644  1.0000
  H   H1373     1.0  0.46880  0.44018  0.78661  1.0000
  C   C1746     1.0  0.56393  0.31078  0.84870  1.0000
  C   C1747     1.0  0.49841  0.42628  0.77467  1.0000
  H   H1374     1.0  0.56814  0.27988  0.83645  1.0000
  C   C1748     1.0  0.43384  0.49275  0.83148  1.0000
  H   H1375     1.0  0.46320  0.28910  0.86638  1.0000
  H   H1376     1.0  0.59370  0.29045  0.80757  1.0000
  C   C1749     1.0  0.62698  0.36928  0.78008  1.0000
  H   H1377     1.0  0.47459  0.28376  0.78817  1.0000
  H   H1378     1.0  0.51754  0.44320  0.86831  1.0000
  C   C1750     1.0  0.63892  0.37880  0.82003  1.0000
  C   C1751     1.0  0.36645  0.28839  0.51267  1.0000
  H   H1379     1.0  0.62329  0.29958  0.98507  1.0000
  H   H1380     1.0  0.34845  0.44008  0.75428  1.0000
  H   H1381     1.0  0.41911  0.44887  0.73520  1.0000
  C   C1752     1.0  0.36873  0.25196  0.50334  1.0000
  C   C1753     1.0  0.62478  0.26829  0.51671  1.0000
  H   H1382     1.0  0.52870  0.47928  0.85959  1.0000
  C   C1754     1.0  0.53718  0.45880  0.81103  1.0000
  C   C1755     1.0  0.61423  0.26733  0.98470  1.0000
  C   C1756     1.0  0.44160  0.30887  0.76672  1.0000
  P   P61       1.0  0.62469  0.26277  0.95821  1.0000
  C   C1757     1.0  0.64144  0.31024  0.76868  1.0000
  C   C1758     1.0  0.41026  0.48187  0.73723  1.0000
  C   C1759     1.0  0.43887  0.27388  0.96667  1.0000
  H   H1383     1.0  0.66244  0.27420  0.81469  1.0000
  C   C1760     1.0  0.44714  0.25402  0.73233  1.0000
  C   C1761     1.0  0.36098  0.28224  0.53359  1.0000
  C   C1762     1.0  0.35914  0.26085  0.53951  1.0000
  C   C1763     1.0  0.48386  0.44320  0.77836  1.0000
  H   H1384     1.0  0.34102  0.27267  0.60750  1.0000
  C   C1764     1.0  0.56934  0.33172  0.84620  1.0000
  H   H1385     1.0  0.53858  0.45275  0.75019  1.0000
  C   C1765     1.0  0.45905  0.26171  0.84885  1.0000
  H   H1386     1.0  0.52925  0.41649  0.76154  1.0000
  C   C1766     1.0  0.50862  0.46709  0.76146  1.0000
  C   C1767     1.0  0.63663  0.38805  0.78285  1.0000
  H   H1387     1.0  0.51985  0.41672  0.84069  1.0000
  C   C1768     1.0  0.45965  0.27263  0.86733  1.0000
  C   C1769     1.0  0.57298  0.29592  0.83490  1.0000
  C   C1770     1.0  0.64245  0.39289  0.80284  1.0000
  H   H1388     1.0  0.39592  0.48105  0.72890  1.0000
  H   H1389     1.0  0.37050  0.42121  0.78103  1.0000
  H   H1390     1.0  0.48044  0.25550  0.72344  1.0000
  H   H1391     1.0  0.64353  0.38257  0.83549  1.0000
  C   C1771     1.0  0.52318  0.45010  0.75783  1.0000
  P   P62       1.0  0.44895  0.26650  0.75716  1.0000
  C   C1772     1.0  0.58220  0.35231  0.76708  1.0000
  H   H1392     1.0  0.35795  0.29418  0.54512  1.0000
  H   H1393     1.0  0.51321  0.48269  0.75661  1.0000
  H   H1394     1.0  0.55225  0.30619  0.86092  1.0000
  C   C1773     1.0  0.35842  0.34264  0.55336  1.0000
  H   H1395     1.0  0.47592  0.46485  0.85157  1.0000
  C   C1774     1.0  0.65123  0.48370  0.89668  1.0000
  C   C1775     1.0  0.65897  0.28792  0.95766  1.0000
  H   H1396     1.0  0.35376  0.40698  0.81428  1.0000
  H   H1397     1.0  0.66333  0.27872  0.97167  1.0000
  S   S239      1.0  0.37320  0.48585  0.78099  1.0000
  H   H1398     1.0  0.47154  0.29187  0.72388  1.0000
  H   H1399     1.0  0.63926  0.39912  0.76959  1.0000
  C   C1776     1.0  0.66044  0.25304  0.51119  1.0000
  H   H1400     1.0  0.63597  0.32043  0.75574  1.0000
  C   C1777     1.0  0.58389  0.33780  0.82999  1.0000
  H   H1401     1.0  0.36750  0.30490  0.50811  1.0000
  H   H1402     1.0  0.60037  0.48988  0.76256  1.0000
  H   H1403     1.0  0.57321  0.30344  0.73537  1.0000
  H   H1404     1.0  0.54885  0.25415  0.91669  1.0000
  C   C1778     1.0  0.42176  0.26384  0.95967  1.0000
  C   C1779     1.0  0.63562  0.29536  0.92907  1.0000
  H   H1405     1.0  0.48863  0.46708  0.81423  1.0000
  C   C1780     1.0  0.42602  0.26159  0.77455  1.0000
  H   H1406     1.0  0.62286  0.36577  0.76439  1.0000
  C   C1781     1.0  0.35407  0.35401  0.53460  1.0000
  C   C1782     1.0  0.64857  0.31120  0.92096  1.0000
  C   C1783     1.0  0.45106  0.29458  0.75230  1.0000
  C   C1784     1.0  0.66668  0.31540  0.93117  1.0000
  C   C1785     1.0  0.44658  0.48384  0.76024  1.0000
  C   C1786     1.0  0.62237  0.25623  0.53559  1.0000
  C   C1787     1.0  0.42327  0.46376  0.74088  1.0000
  H   H1407     1.0  0.34527  0.42505  0.84886  1.0000
  H   H1408     1.0  0.34532  0.32938  0.58275  1.0000
  C   C1788     1.0  0.46035  0.48417  0.80357  1.0000
  P   P63       1.0  0.35132  0.25334  0.56650  1.0000
  C   C1789     1.0  0.44384  0.33050  0.76332  1.0000
  H   H1409     1.0  0.47586  0.32969  0.71856  1.0000
  H   H1410     1.0  0.36680  0.35736  0.52302  1.0000
  C   C1790     1.0  0.45662  0.26218  0.88704  1.0000
  H   H1411     1.0  0.62677  0.34920  0.83077  1.0000
  C   C1791     1.0  0.62921  0.36003  0.81732  1.0000
  H   H1412     1.0  0.60025  0.46200  0.92414  1.0000
  H   H1413     1.0  0.45100  0.45044  0.75492  1.0000
  H   H1414     1.0  0.45835  0.35471  0.74370  1.0000
  H   H1415     1.0  0.43692  0.34149  0.77466  1.0000
  H   H1416     1.0  0.56170  0.34341  0.85637  1.0000
  H   H1417     1.0  0.65322  0.45550  0.87914  1.0000
  H   H1418     1.0  0.58721  0.35423  0.82788  1.0000
  P   P64       1.0  0.61030  0.33101  0.79386  1.0000
  C   C1792     1.0  0.45597  0.33802  0.74584  1.0000
  H   H1419     1.0  0.62201  0.29205  0.92056  1.0000
  C   C1793     1.0  0.44648  0.48233  0.84639  1.0000
  C   C1794     1.0  0.58706  0.27750  0.94098  1.0000
  C   C1795     1.0  0.64418  0.46448  0.89101  1.0000
  H   H1420     1.0  0.53302  0.42642  0.80455  1.0000
  H   H1421     1.0  0.61268  0.49587  0.93446  1.0000
  C   C1796     1.0  0.46571  0.32394  0.73164  1.0000
  C   C1797     1.0  0.62575  0.45673  0.90079  1.0000
  H   H1422     1.0  0.52746  0.26822  0.75477  1.0000
  C   C1798     1.0  0.46327  0.30234  0.73481  1.0000
  C   C1799     1.0  0.46248  0.25505  0.94184  1.0000
  H   H1423     1.0  0.61148  0.27814  0.51144  1.0000
  H   H1424     1.0  0.51028  0.25608  0.91071  1.0000
  P   P65       1.0  0.46930  0.48539  0.77599  1.0000
  C   C1800     1.0  0.62142  0.48738  0.92208  1.0000
  H   H1425     1.0  0.59000  0.29254  0.94714  1.0000
  C   C1801     1.0  0.60280  0.25170  0.99575  1.0000
  C   C1802     1.0  0.59327  0.33319  0.77198  1.0000
  C   C1803     1.0  0.38889  0.26913  0.78468  1.0000
  H   H1426     1.0  0.60595  0.47082  0.86109  1.0000
  H   H1427     1.0  0.57494  0.46812  0.84033  1.0000
  H   H1428     1.0  0.58683  0.48692  0.79947  1.0000
  C   C1804     1.0  0.62245  0.35547  0.79746  1.0000
  H   H1429     1.0  0.64460  0.32014  0.90666  1.0000
  C   C1805     1.0  0.34105  0.43305  0.76852  1.0000
  C   C1806     1.0  0.59696  0.48499  0.85615  1.0000
  C   C1807     1.0  0.57923  0.48357  0.84438  1.0000
  Fe  Fe121     1.0  0.51761  0.26007  0.96799  1.0000
  H   H1430     1.0  0.63282  0.30029  0.82160  1.0000
  H   H1431     1.0  0.50601  0.26986  0.80633  1.0000
  C   C1808     1.0  0.45916  0.26960  0.95765  1.0000
  H   H1432     1.0  0.46217  0.26981  0.83368  1.0000
  H   H1433     1.0  0.64949  0.40770  0.80496  1.0000
  C   C1809     1.0  0.63176  0.31176  0.78903  1.0000
  C   C1810     1.0  0.48863  0.46374  0.77138  1.0000
  H   H1434     1.0  0.62044  0.44176  0.89642  1.0000
  C   C1811     1.0  0.53587  0.47397  0.82646  1.0000
  C   C1812     1.0  0.52895  0.46812  0.84722  1.0000
  C   C1813     1.0  0.52283  0.44767  0.85228  1.0000
  C   C1814     1.0  0.52407  0.43275  0.83679  1.0000
  C   C1815     1.0  0.53135  0.43830  0.81626  1.0000
  C   C1816     1.0  0.59323  0.32296  0.81618  1.0000
  C   C1817     1.0  0.37405  0.25241  0.58253  1.0000
  C   C1818     1.0  0.58748  0.30198  0.81862  1.0000
  H   H1435     1.0  0.37674  0.25217  0.81249  1.0000
  H   H1436     1.0  0.43300  0.30343  0.78094  1.0000
  H   H1437     1.0  0.47839  0.25187  0.93518  1.0000
  S   S240      1.0  0.64391  0.48578  0.82536  1.0000
  C   C1819     1.0  0.46619  0.47308  0.84003  1.0000
  H   H1438     1.0  0.47238  0.27758  0.96293  1.0000
  H   H1439     1.0  0.43648  0.28492  0.97916  1.0000
  P   P66       1.0  0.54586  0.49976  0.82064  1.0000
  H   H1440     1.0  0.39295  0.27221  0.56110  1.0000
  C   C1820     1.0  0.47323  0.47419  0.81875  1.0000
  C   C1821     1.0  0.52440  0.26772  0.73825  1.0000
  C   C1822     1.0  0.51799  0.42968  0.76425  1.0000
  C   C1823     1.0  0.44065  0.49361  0.81016  1.0000
  H   H1441     1.0  0.66582  0.48912  0.88924  1.0000
  C   C1824     1.0  0.34199  0.33828  0.56824  1.0000
  C   C1825     1.0  0.63964  0.29891  0.80567  1.0000
  H   H1442     1.0  0.51366  0.26533  0.67874  1.0000
  H   H1443     1.0  0.55720  0.28882  0.92898  1.0000
  H   H1444     1.0  0.50833  0.26038  0.87176  1.0000
  H   H1445     1.0  0.44087  0.48131  0.86282  1.0000
  H   H1446     1.0  0.40519  0.28380  0.75779  1.0000
  Fe  Fe122     1.0  0.33755  0.49192  0.78194  1.0000
  C   C1826     1.0  0.65831  0.29552  0.76489  1.0000
  H   H1447     1.0  0.37399  0.27773  0.78194  1.0000
  C   C1827     1.0  0.63968  0.49548  0.91198  1.0000
  H   H1448     1.0  0.40605  0.26697  0.96685  1.0000
  C   C1828     1.0  0.57662  0.49423  0.78782  1.0000
  C   C1829     1.0  0.40659  0.27254  0.77104  1.0000
  C   C1830     1.0  0.49903  0.26031  0.79518  1.0000
  C   C1831     1.0  0.58438  0.49581  0.76679  1.0000
  C   C1832     1.0  0.39045  0.25474  0.80189  1.0000
  H   H1449     1.0  0.60802  0.34497  0.50675  1.0000
  S   S241      1.0  0.54770  0.25761  0.98532  1.0000
  C   C1833     1.0  0.47245  0.25634  0.76981  1.0000
  S   S242      1.0  0.37232  0.49853  0.83077  1.0000
  C   C1834     1.0  0.56366  0.25589  0.92385  1.0000
  C   C1835     1.0  0.65651  0.28420  0.80183  1.0000
  C   C1836     1.0  0.41012  0.26114  0.58782  1.0000
  C   C1837     1.0  0.39224  0.26299  0.57582  1.0000
  H   H1450     1.0  0.41858  0.50004  0.83636  1.0000
  Fe  Fe123     1.0  0.48401  0.61713  0.20652  1.0000
  S   S243      1.0  0.51015  0.61085  0.18185  1.0000
  S   S244      1.0  0.45971  0.59385  0.21972  1.0000
  Fe  Fe124     1.0  0.50232  0.65934  0.21872  1.0000
  S   S245      1.0  0.53000  0.65563  0.19460  1.0000
  S   S246      1.0  0.49080  0.68813  0.23833  1.0000
  Fe  Fe125     1.0  0.50627  0.64556  0.17225  1.0000
  S   S247      1.0  0.49968  0.65487  0.13764  1.0000
  Fe  Fe126     1.0  0.53199  0.62105  0.20556  1.0000
  S   S248      1.0  0.55954  0.59981  0.21777  1.0000
  S   S249      1.0  0.47860  0.65102  0.19568  1.0000
  S   S250      1.0  0.50593  0.62574  0.23093  1.0000
  S   S251      1.0  0.63288  0.54361  0.17064  1.0000
  S   S252      1.0  0.39461  0.54075  0.17418  1.0000
  C   C1838     1.0  0.38645  0.58778  0.23256  1.0000
  S   S253      1.0  0.49583  0.71847  0.00525  1.0000
  H   H1451     1.0  0.53463  0.68374  0.13193  1.0000
  Fe  Fe127     1.0  0.52384  0.72310  0.02488  1.0000
  S   S254      1.0  0.53261  0.71399  0.05906  1.0000
  H   H1452     1.0  0.36888  0.61352  0.17945  1.0000
  C   C1839     1.0  0.61588  0.55155  0.30965  1.0000
  C   C1840     1.0  0.61131  0.57208  0.30184  1.0000
  H   H1453     1.0  0.38462  0.67907  0.22269  1.0000
  C   C1841     1.0  0.50009  0.70327  0.25871  1.0000
  C   C1842     1.0  0.51689  0.69614  0.27098  1.0000
  C   C1843     1.0  0.52313  0.70840  0.28731  1.0000
  C   C1844     1.0  0.51323  0.72831  0.29128  1.0000
  C   C1845     1.0  0.49633  0.73541  0.27910  1.0000
  C   C1846     1.0  0.48972  0.72291  0.26310  1.0000
  H   H1454     1.0  0.52499  0.68106  0.26806  1.0000
  H   H1455     1.0  0.53599  0.70250  0.29678  1.0000
  H   H1456     1.0  0.60433  0.54367  0.31995  1.0000
  H   H1457     1.0  0.47661  0.72862  0.25388  1.0000
  C   C1847     1.0  0.57864  0.58299  0.20421  1.0000
  C   C1848     1.0  0.58111  0.58326  0.18217  1.0000
  C   C1849     1.0  0.59746  0.57070  0.17220  1.0000
  C   C1850     1.0  0.61128  0.55741  0.18405  1.0000
  C   C1851     1.0  0.60832  0.55652  0.20606  1.0000
  C   C1852     1.0  0.59224  0.56942  0.21605  1.0000
  H   H1458     1.0  0.57086  0.59365  0.17284  1.0000
  H   H1459     1.0  0.59964  0.57157  0.15517  1.0000
  H   H1460     1.0  0.61878  0.54641  0.21540  1.0000
  H   H1461     1.0  0.59049  0.56908  0.23310  1.0000
  C   C1853     1.0  0.44336  0.57765  0.20641  1.0000
  C   C1854     1.0  0.44126  0.57977  0.18464  1.0000
  C   C1855     1.0  0.42662  0.56797  0.17504  1.0000
  C   C1856     1.0  0.41407  0.55374  0.18701  1.0000
  C   C1857     1.0  0.41706  0.55074  0.20862  1.0000
  C   C1858     1.0  0.43156  0.56272  0.21824  1.0000
  H   H1462     1.0  0.45050  0.59094  0.17532  1.0000
  H   H1463     1.0  0.42467  0.57020  0.15827  1.0000
  H   H1464     1.0  0.40777  0.53966  0.21802  1.0000
  H   H1465     1.0  0.43323  0.56080  0.23507  1.0000
  C   C1859     1.0  0.50907  0.67172  0.11619  1.0000
  C   C1860     1.0  0.49868  0.67248  0.09712  1.0000
  C   C1861     1.0  0.50550  0.68533  0.07956  1.0000
  C   C1862     1.0  0.52290  0.69766  0.08078  1.0000
  C   C1863     1.0  0.53321  0.69701  0.09991  1.0000
  C   C1864     1.0  0.52638  0.68416  0.11749  1.0000
  H   H1466     1.0  0.48528  0.66296  0.09586  1.0000
  H   H1467     1.0  0.49737  0.68560  0.06505  1.0000
  H   H1468     1.0  0.54670  0.70641  0.10108  1.0000
  C   C1865     1.0  0.56781  0.50997  0.11686  1.0000
  H   H1469     1.0  0.47946  0.67065  0.28449  1.0000
  H   H1470     1.0  0.62265  0.59818  0.28250  1.0000
  C   C1866     1.0  0.44047  0.65773  0.23785  1.0000
  C   C1867     1.0  0.62984  0.72868  0.49675  1.0000
  H   H1471     1.0  0.39773  0.73400  0.40093  1.0000
  H   H1472     1.0  0.34454  0.70392  0.49001  1.0000
  C   C1868     1.0  0.37390  0.60651  0.19432  1.0000
  C   C1869     1.0  0.46397  0.71426  0.35295  1.0000
  H   H1473     1.0  0.48191  0.55578  0.14450  1.0000
  H   H1474     1.0  0.43332  0.74780  0.41734  1.0000
  H   H1475     1.0  0.35355  0.64663  0.21491  1.0000
  H   H1476     1.0  0.59123  0.74405  0.20986  1.0000
  C   C1870     1.0  0.58144  0.51827  0.10090  1.0000
  H   H1477     1.0  0.35632  0.57885  0.19175  1.0000
  C   C1871     1.0  0.41698  0.72553  0.37317  1.0000
  H   H1478     1.0  0.49226  0.56816  0.18954  1.0000
  Fe  Fe128     1.0  0.65336  0.51471  0.18104  1.0000
  H   H1479     1.0  0.64992  0.54447  0.24568  1.0000
  C   C1872     1.0  0.57241  0.69729  0.24118  1.0000
  H   H1480     1.0  0.56283  0.53503  0.22556  1.0000
  H   H1481     1.0  0.40376  0.69735  0.24841  1.0000
  H   H1482     1.0  0.50029  0.70009  0.19173  1.0000
  H   H1483     1.0  0.42551  0.50637  0.16245  1.0000
  H   H1484     1.0  0.46372  0.52723  0.25099  1.0000
  C   C1873     1.0  0.53283  0.53963  0.15347  1.0000
  H   H1485     1.0  0.43736  0.63357  0.21601  1.0000
  C   C1874     1.0  0.49620  0.55573  0.20110  1.0000
  C   C1875     1.0  0.45090  0.65712  0.29736  1.0000
  C   C1876     1.0  0.49367  0.52342  0.14782  1.0000
  H   H1486     1.0  0.57096  0.72467  0.28598  1.0000
  H   H1487     1.0  0.51680  0.71872  0.21910  1.0000
  H   H1488     1.0  0.43140  0.53186  0.27387  1.0000
  H   H1489     1.0  0.61097  0.53292  0.09370  1.0000
  H   H1490     1.0  0.38727  0.51326  0.07909  1.0000
  C   C1877     1.0  0.38802  0.61662  0.20617  1.0000
  C   C1878     1.0  0.35481  0.65697  0.20090  1.0000
  C   C1879     1.0  0.58309  0.50689  0.22273  1.0000
  S   S255      1.0  0.52283  0.74354  0.31141  1.0000
  C   C1880     1.0  0.37405  0.65792  0.18888  1.0000
  C   C1881     1.0  0.46282  0.69048  0.30729  1.0000
  C   C1882     1.0  0.51061  0.55909  0.21622  1.0000
  C   C1883     1.0  0.46570  0.67257  0.29533  1.0000
  C   C1884     1.0  0.37272  0.70881  0.47056  1.0000
  C   C1885     1.0  0.48611  0.53679  0.20142  1.0000
  C   C1886     1.0  0.36649  0.58702  0.20136  1.0000
  H   H1491     1.0  0.36394  0.72816  0.38511  1.0000
  C   C1887     1.0  0.56483  0.50286  0.18402  1.0000
  H   H1492     1.0  0.44401  0.72539  0.29001  1.0000
  C   C1888     1.0  0.51128  0.50973  0.15139  1.0000
  H   H1493     1.0  0.39166  0.58027  0.24715  1.0000
  H   H1494     1.0  0.36423  0.71359  0.45665  1.0000
  H   H1495     1.0  0.48226  0.73716  0.33471  1.0000
  C   C1889     1.0  0.57537  0.70161  0.26212  1.0000
  C   C1890     1.0  0.56916  0.72141  0.26960  1.0000
  S   S256      1.0  0.33689  0.52035  0.19279  1.0000
  C   C1891     1.0  0.35753  0.68400  0.16499  1.0000
  H   H1496     1.0  0.35859  0.69445  0.15105  1.0000
  H   H1497     1.0  0.51320  0.70631  0.38680  1.0000
  C   C1892     1.0  0.40567  0.70425  0.48803  1.0000
  C   C1893     1.0  0.60871  0.73459  0.49337  1.0000
  C   C1894     1.0  0.55826  0.51965  0.19686  1.0000
  H   H1498     1.0  0.43147  0.72892  0.38021  1.0000
  C   C1895     1.0  0.49943  0.70848  0.37743  1.0000
  C   C1896     1.0  0.48180  0.69664  0.38228  1.0000
  C   C1897     1.0  0.46421  0.69934  0.36994  1.0000
  H   H1499     1.0  0.41707  0.67846  0.33490  1.0000
  C   C1898     1.0  0.39782  0.72868  0.38494  1.0000
  C   C1899     1.0  0.41090  0.68326  0.24150  1.0000
  C   C1900     1.0  0.56745  0.52166  0.21608  1.0000
  H   H1500     1.0  0.52549  0.54650  0.24394  1.0000
  C   C1901     1.0  0.44879  0.50285  0.18591  1.0000
  H   H1501     1.0  0.39768  0.71255  0.32686  1.0000
  C   C1902     1.0  0.37874  0.72554  0.37596  1.0000
  C   C1903     1.0  0.53578  0.74646  0.17570  1.0000
  H   H1502     1.0  0.44160  0.51575  0.19478  1.0000
  H   H1503     1.0  0.62097  0.53145  0.13083  1.0000
  H   H1504     1.0  0.45321  0.64326  0.28804  1.0000
  H   H1505     1.0  0.42211  0.64723  0.31340  1.0000
  C   C1904     1.0  0.48177  0.72599  0.34810  1.0000
  H   H1506     1.0  0.56136  0.70916  0.21146  1.0000
  C   C1905     1.0  0.63528  0.54112  0.30408  1.0000
  C   C1906     1.0  0.45157  0.51610  0.25038  1.0000
  H   H1507     1.0  0.36395  0.71756  0.34799  1.0000
  C   C1907     1.0  0.60056  0.52607  0.10595  1.0000
  H   H1508     1.0  0.56845  0.74288  0.04059  1.0000
  H   H1509     1.0  0.50678  0.71054  0.15389  1.0000
  C   C1908     1.0  0.40009  0.67280  0.22689  1.0000
  P   P67       1.0  0.39694  0.64212  0.19709  1.0000
  H   H1510     1.0  0.47456  0.53496  0.18991  1.0000
  P   P68       1.0  0.44173  0.71658  0.33644  1.0000
  H   H1511     1.0  0.47464  0.70216  0.30572  1.0000
  C   C1909     1.0  0.50461  0.52464  0.23236  1.0000
  H   H1512     1.0  0.58459  0.73894  0.07514  1.0000
  C   C1910     1.0  0.44485  0.69330  0.32109  1.0000
  H   H1513     1.0  0.40537  0.61419  0.23473  1.0000
  C   C1911     1.0  0.51521  0.55327  0.14983  1.0000
  C   C1912     1.0  0.39429  0.60705  0.22535  1.0000
  C   C1913     1.0  0.57325  0.50936  0.13800  1.0000
  C   C1914     1.0  0.51010  0.71312  0.18721  1.0000
  C   C1915     1.0  0.37878  0.71952  0.35509  1.0000
  C   C1916     1.0  0.66610  0.54788  0.24099  1.0000
  H   H1514     1.0  0.51676  0.57015  0.14921  1.0000
  H   H1515     1.0  0.54795  0.54623  0.15537  1.0000
  H   H1516     1.0  0.45630  0.65211  0.24175  1.0000
  C   C1917     1.0  0.49561  0.54517  0.14712  1.0000
  C   C1918     1.0  0.51374  0.71904  0.16592  1.0000
  C   C1919     1.0  0.64567  0.57194  0.28309  1.0000
  C   C1920     1.0  0.37535  0.67169  0.17098  1.0000
  H   H1517     1.0  0.42266  0.70533  0.48758  1.0000
  C   C1921     1.0  0.41593  0.63971  0.17485  1.0000
  C   C1922     1.0  0.43006  0.65567  0.17010  1.0000
  C   C1923     1.0  0.44468  0.65423  0.15285  1.0000
  C   C1924     1.0  0.44546  0.63684  0.14024  1.0000
  C   C1925     1.0  0.43134  0.62100  0.14468  1.0000
  C   C1926     1.0  0.41659  0.62241  0.16189  1.0000
  C   C1927     1.0  0.44191  0.74049  0.32006  1.0000
  H   H1518     1.0  0.57697  0.51902  0.08467  1.0000
  H   H1519     1.0  0.38999  0.67292  0.16151  1.0000
  H   H1520     1.0  0.54635  0.53144  0.19212  1.0000
  C   C1928     1.0  0.39474  0.70931  0.46984  1.0000
  H   H1521     1.0  0.42993  0.66921  0.17977  1.0000
  H   H1522     1.0  0.45578  0.66643  0.14945  1.0000
  H   H1523     1.0  0.45722  0.63562  0.12719  1.0000
  H   H1524     1.0  0.43205  0.60742  0.13498  1.0000
  C   C1929     1.0  0.43116  0.67582  0.24683  1.0000
  C   C1930     1.0  0.62622  0.58228  0.28861  1.0000
  H   H1525     1.0  0.43986  0.68422  0.25763  1.0000
  C   C1931     1.0  0.56329  0.71279  0.22769  1.0000
  C   C1932     1.0  0.43040  0.67736  0.32356  1.0000
  C   C1933     1.0  0.37265  0.57772  0.22053  1.0000
  C   C1934     1.0  0.36161  0.70325  0.48947  1.0000
  H   H1526     1.0  0.64106  0.72633  0.48341  1.0000
  Fe  Fe129     1.0  0.37203  0.51512  0.18538  1.0000
  H   H1527     1.0  0.47848  0.51718  0.14553  1.0000
  C   C1935     1.0  0.60619  0.52527  0.12689  1.0000
  C   C1936     1.0  0.51473  0.54358  0.23192  1.0000
  C   C1937     1.0  0.40953  0.65477  0.21754  1.0000
  H   H1528     1.0  0.65705  0.58011  0.27283  1.0000
  H   H1529     1.0  0.40610  0.60977  0.16512  1.0000
  C   C1938     1.0  0.49055  0.52088  0.21680  1.0000
  H   H1530     1.0  0.58220  0.68953  0.27264  1.0000
  H   H1531     1.0  0.59620  0.58009  0.30600  1.0000
  H   H1532     1.0  0.51819  0.57394  0.21610  1.0000
  H   H1533     1.0  0.57703  0.68186  0.23541  1.0000
  C   C1939     1.0  0.42973  0.64728  0.22325  1.0000
  H   H1534     1.0  0.36721  0.56241  0.22573  1.0000
  C   C1940     1.0  0.43314  0.51887  0.26339  1.0000
  H   H1535     1.0  0.45083  0.68974  0.37357  1.0000
  H   H1536     1.0  0.63840  0.52521  0.31023  1.0000
  H   H1537     1.0  0.40323  0.71435  0.45535  1.0000
  C   C1941     1.0  0.59260  0.51703  0.14292  1.0000
  C   C1942     1.0  0.39793  0.71645  0.34325  1.0000
  C   C1943     1.0  0.53097  0.51772  0.15465  1.0000
  H   H1538     1.0  0.51335  0.73179  0.35618  1.0000
  H   H1539     1.0  0.59051  0.50871  0.23742  1.0000
  C   C1944     1.0  0.65023  0.55115  0.29053  1.0000
  H   H1540     1.0  0.48188  0.68522  0.39545  1.0000
  H   H1541     1.0  0.60352  0.73656  0.47740  1.0000
  C   C1945     1.0  0.44273  0.74007  0.29792  1.0000
  C   C1946     1.0  0.52652  0.73574  0.16017  1.0000
  H   H1542     1.0  0.47068  0.74825  0.48246  1.0000
  H   H1543     1.0  0.50755  0.51303  0.24500  1.0000
  C   C1947     1.0  0.43334  0.65944  0.31156  1.0000
  C   C1948     1.0  0.41723  0.71876  0.35241  1.0000
  C   C1949     1.0  0.49946  0.72299  0.36026  1.0000
  H   H1544     1.0  0.55281  0.50440  0.11281  1.0000
  C   C1950     1.0  0.51940  0.72374  0.20272  1.0000
  H   H1545     1.0  0.59716  0.51719  0.15908  1.0000
  C   C1951     1.0  0.41680  0.50521  0.26257  1.0000
  C   C1952     1.0  0.53234  0.74045  0.19716  1.0000
  H   H1546     1.0  0.40240  0.50752  0.27245  1.0000
  C   C1953     1.0  0.55669  0.73266  0.23517  1.0000
  H   H1547     1.0  0.66892  0.50610  0.25180  1.0000
  H   H1548     1.0  0.52941  0.74017  0.14361  1.0000
  H   H1549     1.0  0.65897  0.55509  0.20855  1.0000
  C   C1954     1.0  0.55970  0.73682  0.25627  1.0000
  C   C1955     1.0  0.33837  0.68278  0.17689  1.0000
  H   H1550     1.0  0.48846  0.75058  0.28198  1.0000
  C   C1956     1.0  0.33702  0.66930  0.19486  1.0000
  H   H1551     1.0  0.65636  0.71500  0.00189  1.0000
  H   H1552     1.0  0.48596  0.71899  0.94558  1.0000
  S   S257      1.0  0.40054  0.53746  0.78665  1.0000
  C   C1957     1.0  0.59185  0.55313  0.91434  1.0000
  Fe  Fe130     1.0  0.49754  0.65884  0.78393  1.0000
  S   S258      1.0  0.47954  0.65927  0.81567  1.0000
  S   S259      1.0  0.48536  0.68072  0.75646  1.0000
  Fe  Fe131     1.0  0.52764  0.62172  0.79964  1.0000
  S   S260      1.0  0.51203  0.62093  0.83233  1.0000
  S   S261      1.0  0.55025  0.59478  0.78789  1.0000
  Fe  Fe132     1.0  0.48136  0.62379  0.81584  1.0000
  S   S262      1.0  0.45535  0.60311  0.83028  1.0000
  Fe  Fe133     1.0  0.51138  0.65636  0.82984  1.0000
  S   S263      1.0  0.51831  0.68023  0.85447  1.0000
  S   S264      1.0  0.49686  0.62333  0.78325  1.0000
  S   S265      1.0  0.52948  0.65717  0.79782  1.0000
  H   H1553     1.0  0.44623  0.74007  0.88233  1.0000
  S   S266      1.0  0.63425  0.54698  0.82136  1.0000
  H   H1554     1.0  0.47373  0.73751  0.70200  1.0000
  C   C1958     1.0  0.60905  0.59109  0.87842  1.0000
  C   C1959     1.0  0.55914  0.61163  0.88529  1.0000
  C   C1960     1.0  0.54508  0.71498  0.65544  1.0000
  Fe  Fe134     1.0  0.52006  0.71375  0.97775  1.0000
  S   S267      1.0  0.51802  0.68632  0.95541  1.0000
  C   C1961     1.0  0.57338  0.58165  0.79789  1.0000
  C   C1962     1.0  0.58500  0.59025  0.81309  1.0000
  C   C1963     1.0  0.60357  0.57944  0.82007  1.0000
  C   C1964     1.0  0.61077  0.55996  0.81195  1.0000
  C   C1965     1.0  0.59909  0.55132  0.79682  1.0000
  C   C1966     1.0  0.58061  0.56217  0.78977  1.0000
  H   H1555     1.0  0.58005  0.60553  0.81891  1.0000
  H   H1556     1.0  0.61270  0.58647  0.83144  1.0000
  H   H1557     1.0  0.60438  0.53636  0.79042  1.0000
  H   H1558     1.0  0.57188  0.55543  0.77786  1.0000
  C   C1967     1.0  0.51832  0.68130  0.88260  1.0000
  C   C1968     1.0  0.51542  0.66369  0.89627  1.0000
  C   C1969     1.0  0.51543  0.66552  0.91838  1.0000
  C   C1970     1.0  0.51849  0.68491  0.92725  1.0000
  C   C1971     1.0  0.52176  0.70243  0.91355  1.0000
  C   C1972     1.0  0.52161  0.70061  0.89146  1.0000
  H   H1559     1.0  0.51316  0.64867  0.88979  1.0000
  H   H1560     1.0  0.51297  0.65182  0.92873  1.0000
  H   H1561     1.0  0.52429  0.71743  0.91997  1.0000
  H   H1562     1.0  0.52401  0.71436  0.88114  1.0000
  C   C1973     1.0  0.41610  0.55502  0.79938  1.0000
  C   C1974     1.0  0.43120  0.56636  0.78715  1.0000
  C   C1975     1.0  0.44342  0.58099  0.79630  1.0000
  C   C1976     1.0  0.44077  0.58444  0.81791  1.0000
  C   C1977     1.0  0.42600  0.57275  0.83023  1.0000
  C   C1978     1.0  0.41374  0.55814  0.82107  1.0000
  H   H1563     1.0  0.43323  0.56406  0.77038  1.0000
  H   H1564     1.0  0.45465  0.58983  0.78657  1.0000
  H   H1565     1.0  0.42378  0.57523  0.84695  1.0000
  H   H1566     1.0  0.40224  0.54956  0.83072  1.0000
  C   C1979     1.0  0.50423  0.73948  0.71452  1.0000
  C   C1980     1.0  0.51796  0.73044  0.72958  1.0000
  C   C1981     1.0  0.51244  0.71277  0.74272  1.0000
  C   C1982     1.0  0.49312  0.70360  0.74088  1.0000
  C   C1983     1.0  0.47940  0.71266  0.72584  1.0000
  C   C1984     1.0  0.48477  0.73053  0.71297  1.0000
  H   H1567     1.0  0.59031  0.74006  0.54425  1.0000
  H   H1568     1.0  0.52324  0.70613  0.75413  1.0000
  H   H1569     1.0  0.46437  0.70589  0.72423  1.0000
  H   H1570     1.0  0.51634  0.68164  0.62462  1.0000
  C   C1985     1.0  0.37071  0.67528  0.57118  1.0000
  H   H1571     1.0  0.35899  0.68613  0.91448  1.0000
  H   H1572     1.0  0.45813  0.67088  0.66858  1.0000
  H   H1573     1.0  0.51723  0.57366  0.81606  1.0000
  H   H1574     1.0  0.58291  0.62161  0.93130  1.0000
  C   C1986     1.0  0.33759  0.73180  0.54158  1.0000
  H   H1575     1.0  0.55308  0.65249  0.86040  1.0000
  C   C1987     1.0  0.47558  0.74459  0.92472  1.0000
  H   H1576     1.0  0.48606  0.50412  0.73620  1.0000
  H   H1577     1.0  0.37991  0.73411  0.85506  1.0000
  H   H1578     1.0  0.59124  0.67058  0.80535  1.0000
  C   C1988     1.0  0.60139  0.73658  0.53110  1.0000
  C   C1989     1.0  0.64487  0.58674  0.88973  1.0000
  H   H1579     1.0  0.45121  0.74174  0.96929  1.0000
  C   C1990     1.0  0.47322  0.72118  0.66213  1.0000
  H   H1580     1.0  0.46155  0.71448  0.80008  1.0000
  C   C1991     1.0  0.60495  0.63935  0.84793  1.0000
  H   H1581     1.0  0.64346  0.55881  0.94298  1.0000
  C   C1992     1.0  0.52574  0.52071  0.82548  1.0000
  H   H1582     1.0  0.46658  0.73721  0.66049  1.0000
  C   C1993     1.0  0.60852  0.53788  0.91219  1.0000
  H   H1583     1.0  0.34314  0.66478  0.50215  1.0000
  H   H1584     1.0  0.38650  0.73521  0.95590  1.0000
  H   H1585     1.0  0.38734  0.71616  0.55555  1.0000
  H   H1586     1.0  0.55719  0.67282  0.82659  1.0000
  C   C1994     1.0  0.49382  0.55087  0.75731  1.0000
  C   C1995     1.0  0.41897  0.73609  0.96326  1.0000
  C   C1996     1.0  0.62850  0.57963  0.87866  1.0000
  P   P69       1.0  0.58240  0.62684  0.88535  1.0000
  H   H1587     1.0  0.56695  0.59998  0.85419  1.0000
  C   C1997     1.0  0.47982  0.51075  0.76913  1.0000
  H   H1588     1.0  0.47573  0.52985  0.84742  1.0000
  C   C1998     1.0  0.53362  0.65345  0.61485  1.0000
  C   C1999     1.0  0.57221  0.67358  0.93893  1.0000
  C   C2000     1.0  0.66225  0.53196  0.87862  1.0000
  H   H1589     1.0  0.52304  0.65978  0.73760  1.0000
  P   P70       1.0  0.35809  0.69301  0.53267  1.0000
  H   H1590     1.0  0.57643  0.64651  0.96000  1.0000
  H   H1591     1.0  0.51034  0.67261  0.70339  1.0000
  C   C2001     1.0  0.35568  0.71841  0.54421  1.0000
  C   C2002     1.0  0.57495  0.52160  0.84159  1.0000
  C   C2003     1.0  0.57160  0.50500  0.75130  1.0000
  H   H1592     1.0  0.59870  0.53819  0.85580  1.0000
  C   C2004     1.0  0.60172  0.69824  0.61286  1.0000
  C   C2005     1.0  0.45487  0.73525  0.89610  1.0000
  C   C2006     1.0  0.43804  0.70536  0.82419  1.0000
  H   H1593     1.0  0.40176  0.63196  0.58482  1.0000
  C   C2007     1.0  0.49508  0.55365  0.83281  1.0000
  C   C2008     1.0  0.59364  0.57013  0.92708  1.0000
  H   H1594     1.0  0.61383  0.58554  0.94688  1.0000
  H   H1595     1.0  0.66982  0.73655  0.58208  1.0000
  H   H1596     1.0  0.61804  0.50563  0.86888  1.0000
  C   C2009     1.0  0.51427  0.55778  0.82195  1.0000
  C   C2010     1.0  0.66116  0.69522  0.55210  1.0000
  C   C2011     1.0  0.57043  0.66311  0.83227  1.0000
  C   C2012     1.0  0.39356  0.64367  0.57487  1.0000
  H   H1597     1.0  0.61862  0.63044  0.85369  1.0000
  H   H1598     1.0  0.62592  0.72032  0.60697  1.0000
  C   C2013     1.0  0.37239  0.67403  0.54914  1.0000
  C   C2014     1.0  0.62249  0.73018  0.53465  1.0000
  H   H1599     1.0  0.60242  0.69833  0.62986  1.0000
  C   C2015     1.0  0.58970  0.66206  0.82047  1.0000
  H   H1600     1.0  0.64828  0.52504  0.87371  1.0000
  C   C2016     1.0  0.47721  0.72352  0.93177  1.0000
  C   C2017     1.0  0.53389  0.66696  0.72594  1.0000
  H   H1601     1.0  0.65029  0.72249  0.96405  1.0000
  C   C2018     1.0  0.62896  0.55685  0.93526  1.0000
  H   H1602     1.0  0.56879  0.68440  0.95154  1.0000
  C   C2019     1.0  0.38139  0.66022  0.58398  1.0000
  H   H1603     1.0  0.59926  0.69745  0.55204  1.0000
  H   H1604     1.0  0.54395  0.72861  0.68610  1.0000
  H   H1605     1.0  0.52533  0.65287  0.60046  1.0000
  C   C2020     1.0  0.39459  0.69865  0.50695  1.0000
  C   C2021     1.0  0.55588  0.59983  0.86777  1.0000
  C   C2022     1.0  0.61366  0.71126  0.57784  1.0000
  H   H1606     1.0  0.48558  0.55857  0.78940  1.0000
  C   C2023     1.0  0.52853  0.66971  0.62860  1.0000
  H   H1607     1.0  0.56815  0.69759  0.91435  1.0000
  C   C2024     1.0  0.64188  0.60538  0.90046  1.0000
  C   C2025     1.0  0.53796  0.58814  0.86733  1.0000
  H   H1608     1.0  0.53301  0.73718  0.73114  1.0000
  C   C2026     1.0  0.52943  0.54140  0.81815  1.0000
  H   H1609     1.0  0.58073  0.58195  0.92863  1.0000
  C   C2027     1.0  0.54363  0.61216  0.90204  1.0000
  P   P71       1.0  0.63099  0.72742  0.56135  1.0000
  H   H1610     1.0  0.62099  0.63206  0.90740  1.0000
  C   C2028     1.0  0.52554  0.60071  0.90141  1.0000
  H   H1611     1.0  0.54394  0.54495  0.80921  1.0000
  H   H1612     1.0  0.66001  0.57805  0.88965  1.0000
  C   C2029     1.0  0.57500  0.66703  0.90160  1.0000
  C   C2030     1.0  0.49093  0.53308  0.83960  1.0000
  S   S268      1.0  0.54796  0.71582  0.99812  1.0000
  C   C2031     1.0  0.58678  0.68549  0.58202  1.0000
  C   C2032     1.0  0.59988  0.69810  0.56898  1.0000
  H   H1613     1.0  0.65348  0.72322  0.51934  1.0000
  H   H1614     1.0  0.57744  0.67594  0.61402  1.0000
  C   C2033     1.0  0.43357  0.50201  0.75616  1.0000
  C   C2034     1.0  0.58551  0.64025  0.85978  1.0000
  H   H1615     1.0  0.63520  0.52383  0.96500  1.0000
  C   C2035     1.0  0.59452  0.73872  0.51055  1.0000
  C   C2036     1.0  0.45990  0.70444  0.66421  1.0000
  C   C2037     1.0  0.56820  0.65182  0.85157  1.0000
  Fe  Fe135     1.0  0.37456  0.51549  0.79893  1.0000
  H   H1616     1.0  0.48218  0.70937  0.86328  1.0000
  H   H1617     1.0  0.59691  0.58547  0.86929  1.0000
  C   C2038     1.0  0.60692  0.65005  0.82824  1.0000
  C   C2039     1.0  0.52273  0.58865  0.88409  1.0000
  C   C2040     1.0  0.48644  0.54635  0.77806  1.0000
  H   H1618     1.0  0.57827  0.74389  0.50791  1.0000
  C   C2041     1.0  0.37248  0.69787  0.50774  1.0000
  H   H1619     1.0  0.54706  0.70723  0.62247  1.0000
  C   C2042     1.0  0.49511  0.71742  0.66283  1.0000
  C   C2043     1.0  0.62257  0.61710  0.89992  1.0000
  C   C2044     1.0  0.39497  0.64211  0.55296  1.0000
  H   H1620     1.0  0.50499  0.73075  0.66182  1.0000
  H   H1621     1.0  0.48949  0.71739  0.82538  1.0000
  C   C2045     1.0  0.57900  0.64542  0.90618  1.0000
  H   H1622     1.0  0.57601  0.67555  0.57511  1.0000
  C   C2046     1.0  0.58763  0.68564  0.60395  1.0000
  C   C2047     1.0  0.40032  0.74445  0.95469  1.0000
  C   C2048     1.0  0.62696  0.53928  0.92317  1.0000
  C   C2049     1.0  0.54921  0.63787  0.61974  1.0000
  H   H1623     1.0  0.53558  0.57927  0.85361  1.0000
  H   H1624     1.0  0.63100  0.56551  0.86975  1.0000
  H   H1625     1.0  0.55301  0.62517  0.60916  1.0000
  C   C2050     1.0  0.47951  0.52638  0.78402  1.0000
  C   C2051     1.0  0.49386  0.53553  0.74232  1.0000
  H   H1626     1.0  0.54496  0.62184  0.91535  1.0000
  H   H1627     1.0  0.49905  0.53923  0.72609  1.0000
  C   C2052     1.0  0.63681  0.72678  0.51727  1.0000
  C   C2053     1.0  0.57995  0.63817  0.92736  1.0000
  H   H1628     1.0  0.49907  0.56643  0.75283  1.0000
  P   P72       1.0  0.64885  0.52007  0.91982  1.0000
  H   H1629     1.0  0.36107  0.68782  0.57849  1.0000
  C   C2054     1.0  0.46848  0.68384  0.66671  1.0000
  C   C2055     1.0  0.54853  0.73063  0.66946  1.0000
  C   C2056     1.0  0.50390  0.69676  0.66514  1.0000
  C   C2057     1.0  0.49040  0.67998  0.66702  1.0000
  P   P73       1.0  0.53222  0.69154  0.66510  1.0000
  C   C2058     1.0  0.54062  0.68371  0.69121  1.0000
  C   C2059     1.0  0.53909  0.67057  0.64735  1.0000
  C   C2060     1.0  0.55477  0.65487  0.65213  1.0000
  H   H1630     1.0  0.50853  0.58008  0.88340  1.0000
  C   C2061     1.0  0.52675  0.67424  0.70635  1.0000
  C   C2062     1.0  0.60378  0.50464  0.86055  1.0000
  C   C2063     1.0  0.55474  0.66945  0.73078  1.0000
  C   C2064     1.0  0.56862  0.67905  0.71592  1.0000
  C   C2065     1.0  0.56164  0.68604  0.69616  1.0000
  H   H1631     1.0  0.38012  0.66132  0.60098  1.0000
  H   H1632     1.0  0.48321  0.56633  0.83547  1.0000
  C   C2066     1.0  0.37151  0.74593  0.56211  1.0000
  C   C2067     1.0  0.60587  0.60992  0.88910  1.0000
  H   H1633     1.0  0.49681  0.66393  0.66891  1.0000
  H   H1634     1.0  0.56305  0.65499  0.66653  1.0000
  H   H1635     1.0  0.57174  0.62641  0.64226  1.0000
  C   C2068     1.0  0.37280  0.72576  0.55424  1.0000
  C   C2069     1.0  0.57175  0.68101  0.91793  1.0000
  H   H1636     1.0  0.56003  0.66406  0.74614  1.0000
  H   H1637     1.0  0.58476  0.68107  0.71974  1.0000
  H   H1638     1.0  0.57268  0.69319  0.68474  1.0000
  H   H1639     1.0  0.57400  0.67330  0.88557  1.0000
  H   H1640     1.0  0.41950  0.72064  0.97114  1.0000
  C   C2070     1.0  0.38548  0.67406  0.89505  1.0000
  C   C2071     1.0  0.37531  0.68807  0.90907  1.0000
  C   C2072     1.0  0.38627  0.70443  0.91632  1.0000
  C   C2073     1.0  0.40736  0.70701  0.90942  1.0000
  C   C2074     1.0  0.41770  0.69291  0.89539  1.0000
  C   C2075     1.0  0.40663  0.67636  0.88835  1.0000
  P   P74       1.0  0.44544  0.69448  0.88773  1.0000
  C   C2076     1.0  0.45702  0.71390  0.90270  1.0000
  C   C2077     1.0  0.45667  0.66816  0.89301  1.0000
  C   C2078     1.0  0.45272  0.65805  0.91286  1.0000
  C   C2079     1.0  0.45918  0.63689  0.91642  1.0000
  C   C2080     1.0  0.46905  0.62548  0.90001  1.0000
  C   C2081     1.0  0.47279  0.63532  0.88016  1.0000
  C   C2082     1.0  0.46688  0.65662  0.87671  1.0000
  C   C2083     1.0  0.46823  0.70817  0.92069  1.0000
  H   H1641     1.0  0.38528  0.65558  0.52318  1.0000
  C   C2084     1.0  0.61490  0.71079  0.59986  1.0000
  H   H1642     1.0  0.44292  0.70750  0.66412  1.0000
  H   H1643     1.0  0.41834  0.69559  0.85091  1.0000
  C   C2085     1.0  0.44967  0.70200  0.86006  1.0000
  C   C2086     1.0  0.43381  0.70064  0.84572  1.0000
  H   H1644     1.0  0.51350  0.60156  0.91420  1.0000
  C   C2087     1.0  0.45805  0.71151  0.81685  1.0000
  C   C2088     1.0  0.47379  0.71317  0.83107  1.0000
  C   C2089     1.0  0.46961  0.70850  0.85257  1.0000
  H   H1645     1.0  0.37710  0.66119  0.88958  1.0000
  C   C2090     1.0  0.61225  0.57209  0.93740  1.0000
  H   H1646     1.0  0.37838  0.71510  0.92734  1.0000
  H   H1647     1.0  0.41555  0.71973  0.91536  1.0000
  H   H1648     1.0  0.41447  0.66503  0.87786  1.0000
  H   H1649     1.0  0.44430  0.66643  0.92551  1.0000
  H   H1650     1.0  0.45614  0.62925  0.93180  1.0000
  H   H1651     1.0  0.47353  0.60895  0.90255  1.0000
  H   H1652     1.0  0.48004  0.62640  0.86730  1.0000
  H   H1653     1.0  0.46998  0.66384  0.86119  1.0000
  H   H1654     1.0  0.47066  0.69193  0.92605  1.0000
  C   C2091     1.0  0.59282  0.52294  0.85325  1.0000
  C   C2092     1.0  0.38432  0.65716  0.54011  1.0000
  C   C2093     1.0  0.55977  0.63858  0.63837  1.0000
  C   C2094     1.0  0.57640  0.65218  0.94366  1.0000
  C   C2095     1.0  0.55094  0.51244  0.75679  1.0000
  H   H1655     1.0  0.62185  0.64915  0.81904  1.0000
  C   C2096     1.0  0.66688  0.53146  0.90000  1.0000
  S   S269      1.0  0.51951  0.74810  0.96791  1.0000
  C   C2097     1.0  0.55018  0.71858  0.63380  1.0000
  H   H1656     1.0  0.57763  0.55190  0.90591  1.0000
  C   C2098     1.0  0.66619  0.72228  0.96950  1.0000
  Fe  Fe136     1.0  0.65100  0.51679  0.80881  1.0000
  H   H1657     1.0  0.42601  0.70372  0.81305  1.0000
  C   C2099     1.0  0.56779  0.50188  0.83728  1.0000
  H   H1658     1.0  0.56732  0.53601  0.83549  1.0000
  H   H1659     1.0  0.65474  0.61109  0.90869  1.0000
  H   H1660     1.0  0.64909  0.68864  0.54344  1.0000
  H   H1661     1.0  0.47339  0.52353  0.80008  1.0000
  H   H1662     1.0  0.40512  0.51497  0.74255  1.0000
  H   H1663     1.0  0.43697  0.51696  0.76228  1.0000
  C   C2100     1.0  0.48664  0.51563  0.74813  1.0000
  C   C2101     1.0  0.65693  0.71423  0.56226  1.0000
  C   C2102     1.0  0.66162  0.51338  0.94414  1.0000
  C   C2103     1.0  0.50613  0.51665  0.83591  1.0000
  H   H1664     1.0  0.40420  0.62915  0.54592  1.0000
  C   C2104     1.0  0.55867  0.73748  0.62639  1.0000
  H   H1665     1.0  0.52699  0.51650  0.78171  1.0000
  H   H1666     1.0  0.54106  0.51964  0.74480  1.0000
  H   H1667     1.0  0.34878  0.73001  0.88010  1.0000
  C   C2105     1.0  0.41547  0.50099  0.74482  1.0000
  C   C2106     1.0  0.43688  0.74789  0.96212  1.0000
  Fe  Fe137     1.0  0.33706  0.50333  0.82889  1.0000
  C   C2107     1.0  0.66137  0.51135  0.98250  1.0000
  H   H1668     1.0  0.60697  0.52512  0.90187  1.0000
  C   C2108     1.0  0.54307  0.51077  0.77779  1.0000
  H   H1669     1.0  0.40323  0.69558  0.52107  1.0000
  S   S270      1.0  0.33926  0.52264  0.79792  1.0000
  H   H1670     1.0  0.56193  0.74052  0.60962  1.0000
  C   C2109     1.0  0.55683  0.74959  0.66197  1.0000
  H   H1671     1.0  0.50221  0.50092  0.84098  1.0000
  C   C2110     1.0  0.65120  0.51696  0.96388  1.0000
  S   S271      1.0  0.65308  0.50406  0.77621  1.0000
  C   C2111     1.0  0.36129  0.73982  0.88390  1.0000
  H   H1672     1.0  0.65338  0.51418  0.99771  1.0000
  H   H1673     1.0  0.43042  0.50168  0.79899  1.0000
  C   C2112     1.0  0.37885  0.74208  0.86981  1.0000
  H   H1674     1.0  0.57777  0.50636  0.73506  1.0000
  H   H1675     1.0  0.34661  0.74727  0.91399  1.0000
  C   C2113     1.0  0.55596  0.50191  0.79351  1.0000
  Fe  Fe138     1.0  0.54602  0.75057  0.98992  1.0000
  C   C2114     1.0  0.66962  0.71806  0.99085  1.0000
  C   C2115     1.0  0.36000  0.74990  0.90307  1.0000
  C   C2116     1.0  0.46425  0.75049  0.90699  1.0000
  Fe  Fe139     1.0  0.64255  0.79811  0.46809  1.0000
  H   H1676     1.0  0.43693  0.79363  0.32485  1.0000
  S   S272      1.0  0.62792  0.78751  0.43823  1.0000
  H   H1677     1.0  0.55982  0.85470  0.36742  1.0000
  Fe  Fe140     1.0  0.51339  0.77539  0.32660  1.0000
  S   S273      1.0  0.48637  0.79755  0.31732  1.0000
  Fe  Fe141     1.0  0.52635  0.80498  0.36069  1.0000
  S   S274      1.0  0.50013  0.82913  0.35259  1.0000
  S   S275      1.0  0.54345  0.81412  0.38984  1.0000
  Fe  Fe142     1.0  0.47952  0.80167  0.35218  1.0000
  S   S276      1.0  0.44583  0.80733  0.36635  1.0000
  Fe  Fe143     1.0  0.50882  0.82357  0.31850  1.0000
  S   S277      1.0  0.50815  0.84683  0.28966  1.0000
  S   S278      1.0  0.53663  0.80119  0.32618  1.0000
  S   S279      1.0  0.52723  0.00030  0.25363  1.0000
  C   C2117     1.0  0.52204  0.87188  0.44576  1.0000
  C   C2118     1.0  0.58414  0.85884  0.49838  1.0000
  Fe  Fe144     1.0  0.37372  0.77511  0.46740  1.0000
  C   C2119     1.0  0.33862  0.82265  0.42329  1.0000
  H   H1678     1.0  0.52018  0.88828  0.47474  1.0000
  Fe  Fe145     1.0  0.50682  0.97225  0.25293  1.0000
  S   S280      1.0  0.51386  0.96765  0.21814  1.0000
  S   S281      1.0  0.50791  0.94763  0.28050  1.0000
  H   H1679     1.0  0.61093  0.80192  0.17986  1.0000
  H   H1680     1.0  0.62539  0.88382  0.47414  1.0000
  H   H1681     1.0  0.34379  0.86410  0.39463  1.0000
  H   H1682     1.0  0.65393  0.89284  0.43848  1.0000
  C   C2120     1.0  0.35440  0.95389  0.01486  1.0000
  H   H1683     1.0  0.61942  0.76550  0.19366  1.0000
  H   H1684     1.0  0.43939  0.79275  0.28583  1.0000
  H   H1685     1.0  0.63168  0.90305  0.39799  1.0000
  C   C2121     1.0  0.42168  0.97161  0.27278  1.0000
  H   H1686     1.0  0.51711  0.81949  0.44197  1.0000
  S   S282      1.0  0.65446  0.96662  0.18328  1.0000
  C   C2122     1.0  0.61748  0.94921  0.42104  1.0000
  S   S283      1.0  0.34003  0.78830  0.46613  1.0000
  H   H1687     1.0  0.59336  0.77066  0.09349  1.0000
  H   H1688     1.0  0.55174  0.78797  0.24412  1.0000
  C   C2123     1.0  0.43983  0.77816  0.29530  1.0000
  H   H1689     1.0  0.35830  0.80528  0.40060  1.0000
  H   H1690     1.0  0.47194  0.96868  0.30502  1.0000
  S   S284      1.0  0.36998  0.79402  0.01328  1.0000
  S   S285      1.0  0.38413  0.80256  0.48367  1.0000
  C   C2124     1.0  0.57317  0.79665  0.49413  1.0000
  H   H1691     1.0  0.52749  0.86683  0.10878  1.0000
  C   C2125     1.0  0.62814  0.97785  0.18615  1.0000
  C   C2126     1.0  0.61298  0.96702  0.19879  1.0000
  C   C2127     1.0  0.59208  0.97561  0.20209  1.0000
  C   C2128     1.0  0.59889  0.86134  0.00273  1.0000
  C   C2129     1.0  0.52109  0.79891  0.25632  1.0000
  H   H1692     1.0  0.62032  0.85162  0.39412  1.0000
  H   H1693     1.0  0.58072  0.96720  0.21208  1.0000
  C   C2130     1.0  0.57824  0.78321  0.47763  1.0000
  C   C2131     1.0  0.34735  0.85019  0.18631  1.0000
  H   H1694     1.0  0.57360  0.85561  0.44701  1.0000
  C   C2132     1.0  0.56150  0.78877  0.19739  1.0000
  C   C2133     1.0  0.47515  0.80676  0.46396  1.0000
  C   C2134     1.0  0.60459  0.91976  0.44262  1.0000
  S   S286      1.0  0.63615  0.78027  0.49914  1.0000
  H   H1695     1.0  0.59948  0.95220  0.45066  1.0000
  C   C2135     1.0  0.43370  0.79456  0.38897  1.0000
  C   C2136     1.0  0.44016  0.77414  0.39587  1.0000
  C   C2137     1.0  0.42857  0.76379  0.41250  1.0000
  C   C2138     1.0  0.41072  0.77387  0.42266  1.0000
  C   C2139     1.0  0.40481  0.79458  0.41635  1.0000
  C   C2140     1.0  0.41606  0.80473  0.39939  1.0000
  H   H1696     1.0  0.45366  0.76611  0.38796  1.0000
  C   C2141     1.0  0.45733  0.77417  0.46374  1.0000
  C   C2142     1.0  0.50781  0.87491  0.28754  1.0000
  C   C2143     1.0  0.50714  0.88516  0.26740  1.0000
  C   C2144     1.0  0.50691  0.90734  0.26489  1.0000
  C   C2145     1.0  0.50750  0.91960  0.28253  1.0000
  C   C2146     1.0  0.50785  0.90936  0.30266  1.0000
  C   C2147     1.0  0.50798  0.88720  0.30519  1.0000
  H   H1697     1.0  0.50692  0.87587  0.25363  1.0000
  H   H1698     1.0  0.50658  0.91491  0.24930  1.0000
  H   H1699     1.0  0.50823  0.91863  0.31644  1.0000
  H   H1700     1.0  0.50840  0.87964  0.32077  1.0000
  C   C2148     1.0  0.60433  0.79519  0.42501  1.0000
  C   C2149     1.0  0.60015  0.78516  0.40653  1.0000
  C   C2150     1.0  0.58169  0.79063  0.39555  1.0000
  C   C2151     1.0  0.56708  0.80627  0.40293  1.0000
  C   C2152     1.0  0.57128  0.81627  0.42143  1.0000
  C   C2153     1.0  0.58973  0.81084  0.43238  1.0000
  H   H1701     1.0  0.61130  0.77306  0.40060  1.0000
  H   H1702     1.0  0.57881  0.78277  0.38136  1.0000
  H   H1703     1.0  0.56016  0.82835  0.42731  1.0000
  H   H1704     1.0  0.59261  0.81860  0.44660  1.0000
  H   H1705     1.0  0.64585  0.96425  0.09673  1.0000
  S   S287      1.0  0.50498  0.77775  0.36178  1.0000
  C   C2154     1.0  0.61066  0.87594  0.47576  1.0000
  C   C2155     1.0  0.34734  0.83133  0.19850  1.0000
  S   S288      1.0  0.34378  0.85462  0.00863  1.0000
  H   H1706     1.0  0.54539  0.79547  0.19828  1.0000
  C   C2156     1.0  0.51727  0.83447  0.44936  1.0000
  H   H1707     1.0  0.58478  0.80619  0.07780  1.0000
  C   C2157     1.0  0.58194  0.85106  0.01277  1.0000
  C   C2158     1.0  0.57157  0.79476  0.05014  1.0000
  H   H1708     1.0  0.59457  0.77791  0.47413  1.0000
  C   C2159     1.0  0.62760  0.77034  0.01184  1.0000
  H   H1709     1.0  0.33855  0.88910  0.05058  1.0000
  C   C2160     1.0  0.55228  0.80440  0.49795  1.0000
  C   C2161     1.0  0.54151  0.78515  0.46875  1.0000
  H   H1710     1.0  0.55024  0.88447  0.08106  1.0000
  H   H1711     1.0  0.35890  0.95477  0.23223  1.0000
  Fe  Fe146     1.0  0.35020  0.81480  0.48503  1.0000
  C   C2162     1.0  0.56242  0.77738  0.46503  1.0000
  C   C2163     1.0  0.42335  0.98041  0.17175  1.0000
  S   S289      1.0  0.39520  0.75949  0.44182  1.0000
  C   C2164     1.0  0.53031  0.83690  0.09416  1.0000
  H   H1712     1.0  0.34913  0.88996  0.20417  1.0000
  Fe  Fe147     1.0  0.34386  0.81947  0.00560  1.0000
  C   C2165     1.0  0.35645  0.91646  0.15667  1.0000
  H   H1713     1.0  0.34908  0.98290  0.08444  1.0000
  H   H1714     1.0  0.56659  0.76764  0.45170  1.0000
  H   H1715     1.0  0.35285  0.91652  0.07152  1.0000
  H   H1716     1.0  0.35146  0.83136  0.42838  1.0000
  C   C2166     1.0  0.42755  0.98943  0.28255  1.0000
  C   C2167     1.0  0.37132  0.93029  0.16223  1.0000
  C   C2168     1.0  0.37847  0.92921  0.18267  1.0000
  C   C2169     1.0  0.37060  0.91444  0.19761  1.0000
  C   C2170     1.0  0.34873  0.90136  0.17150  1.0000
  C   C2171     1.0  0.62463  0.91366  0.40961  1.0000
  H   H1717     1.0  0.44737  0.80267  0.44676  1.0000
  H   H1718     1.0  0.41095  0.82051  0.39416  1.0000
  C   C2172     1.0  0.62648  0.93533  0.40622  1.0000
  C   C2173     1.0  0.56189  0.87310  0.39475  1.0000
  S   S290      1.0  0.64001  0.83006  0.48207  1.0000
  H   H1719     1.0  0.58008  0.97881  0.25463  1.0000
  C   C2174     1.0  0.53491  0.78591  0.24412  1.0000
  H   H1720     1.0  0.37688  0.94221  0.15084  1.0000
  H   H1721     1.0  0.38971  0.94015  0.18708  1.0000
  H   H1722     1.0  0.37573  0.91395  0.21356  1.0000
  C   C2175     1.0  0.57759  0.80086  0.18820  1.0000
  C   C2176     1.0  0.36604  0.94486  0.24458  1.0000
  C   C2177     1.0  0.35331  0.93413  0.25966  1.0000
  C   C2178     1.0  0.36261  0.92152  0.27561  1.0000
  C   C2179     1.0  0.38464  0.91968  0.27654  1.0000
  C   C2180     1.0  0.39755  0.93034  0.26138  1.0000
  C   C2181     1.0  0.38803  0.94292  0.24541  1.0000
  P   P75       1.0  0.42603  0.92914  0.26277  1.0000
  C   C2182     1.0  0.43371  0.95246  0.27488  1.0000
  C   C2183     1.0  0.43546  0.90618  0.27812  1.0000
  C   C2184     1.0  0.44671  0.88932  0.26830  1.0000
  C   C2185     1.0  0.45522  0.87236  0.28044  1.0000
  C   C2186     1.0  0.45271  0.87210  0.30242  1.0000
  C   C2187     1.0  0.44142  0.88871  0.31233  1.0000
  C   C2188     1.0  0.43282  0.90569  0.30026  1.0000
  C   C2189     1.0  0.45193  0.95164  0.28650  1.0000
  S   S291      1.0  0.47674  0.99252  0.24844  1.0000
  H   H1723     1.0  0.65368  0.84040  0.06011  1.0000
  H   H1724     1.0  0.52372  0.85115  0.41968  1.0000
  H   H1725     1.0  0.52972  0.78132  0.45810  1.0000
  C   C2190     1.0  0.43782  0.92795  0.23628  1.0000
  C   C2191     1.0  0.45734  0.93663  0.23101  1.0000
  C   C2192     1.0  0.46624  0.93569  0.21040  1.0000
  C   C2193     1.0  0.45572  0.92630  0.19493  1.0000
  C   C2194     1.0  0.43653  0.91718  0.20017  1.0000
  C   C2195     1.0  0.42774  0.91774  0.22084  1.0000
  H   H1726     1.0  0.44449  0.76543  0.45867  1.0000
  H   H1727     1.0  0.41329  0.94532  0.09607  1.0000
  H   H1728     1.0  0.35270  0.91331  0.28737  1.0000
  H   H1729     1.0  0.39146  0.90998  0.28911  1.0000
  H   H1730     1.0  0.39765  0.95138  0.23361  1.0000
  H   H1731     1.0  0.44956  0.88939  0.25135  1.0000
  H   H1732     1.0  0.46457  0.85975  0.27288  1.0000
  H   H1733     1.0  0.46001  0.85926  0.31176  1.0000
  H   H1734     1.0  0.43984  0.88861  0.32941  1.0000
  H   H1735     1.0  0.42464  0.91872  0.30821  1.0000
  H   H1736     1.0  0.46200  0.93735  0.28777  1.0000
  C   C2196     1.0  0.53430  0.85810  0.09557  1.0000
  H   H1737     1.0  0.61771  0.96576  0.25281  1.0000
  C   C2197     1.0  0.50523  0.76761  0.23323  1.0000
  H   H1738     1.0  0.36229  0.85628  0.18049  1.0000
  H   H1739     1.0  0.46575  0.94411  0.24272  1.0000
  H   H1740     1.0  0.48111  0.94267  0.20621  1.0000
  H   H1741     1.0  0.46251  0.92620  0.17888  1.0000
  H   H1742     1.0  0.42847  0.90974  0.18820  1.0000
  H   H1743     1.0  0.41308  0.91024  0.22475  1.0000
  H   H1744     1.0  0.52512  0.88580  0.43585  1.0000
  C   C2198     1.0  0.43050  0.76771  0.00976  1.0000
  C   C2199     1.0  0.49143  0.78076  0.24538  1.0000
  H   H1745     1.0  0.43202  0.97715  0.15701  1.0000
  C   C2200     1.0  0.58719  0.75987  0.20391  1.0000
  C   C2201     1.0  0.35343  0.93214  0.01367  1.0000
  P   P76       1.0  0.56350  0.82061  0.03958  1.0000
  C   C2202     1.0  0.54383  0.81809  0.02047  1.0000
  C   C2203     1.0  0.55194  0.83551  0.06130  1.0000
  C   C2204     1.0  0.55589  0.85682  0.06285  1.0000
  C   C2205     1.0  0.39502  0.97331  0.10510  1.0000
  H   H1746     1.0  0.63460  0.76097  0.02453  1.0000
  H   H1747     1.0  0.56103  0.77806  0.02418  1.0000
  C   C2206     1.0  0.40847  0.77137  0.01391  1.0000
  C   C2207     1.0  0.52221  0.81774  0.02668  1.0000
  H   H1748     1.0  0.59587  0.91411  0.45670  1.0000
  H   H1749     1.0  0.43900  0.76076  0.34669  1.0000
  H   H1750     1.0  0.54581  0.75915  0.17082  1.0000
  H   H1751     1.0  0.62742  0.83393  0.42681  1.0000
  C   C2208     1.0  0.58563  0.83371  0.02682  1.0000
  H   H1752     1.0  0.66922  0.95938  0.06494  1.0000
  H   H1753     1.0  0.39956  0.75931  0.02226  1.0000
  C   C2209     1.0  0.58613  0.77240  0.07844  1.0000
  C   C2210     1.0  0.62200  0.99718  0.17637  1.0000
  C   C2211     1.0  0.60652  0.82683  0.03068  1.0000
  C   C2212     1.0  0.49936  0.79636  0.25696  1.0000
  H   H1754     1.0  0.40787  0.97297  0.26356  1.0000
  S   S292      1.0  0.36150  0.98583  0.19402  1.0000
  H   H1755     1.0  0.56580  0.86485  0.05102  1.0000
  H   H1756     1.0  0.47461  0.77858  0.24613  1.0000
  C   C2213     1.0  0.57219  0.75673  0.04862  1.0000
  C   C2214     1.0  0.34247  0.80790  0.40775  1.0000
  H   H1757     1.0  0.61899  0.96599  0.41844  1.0000
  H   H1758     1.0  0.51672  0.81933  0.04295  1.0000
  H   H1759     1.0  0.39272  0.97886  0.15864  1.0000
  C   C2215     1.0  0.57476  0.87867  0.41049  1.0000
  C   C2216     1.0  0.41374  0.96179  0.09948  1.0000
  C   C2217     1.0  0.58613  0.99525  0.19286  1.0000
  S   S293      1.0  0.66324  0.79327  0.01219  1.0000
  C   C2218     1.0  0.56767  0.77675  0.03949  1.0000
  C   C2219     1.0  0.51916  0.87328  0.46765  1.0000
  C   C2220     1.0  0.65195  0.97785  0.08805  1.0000
  H   H1760     1.0  0.66821  0.77523  0.07650  1.0000
  H   H1761     1.0  0.61750  0.95198  0.20630  1.0000
  S   S294      1.0  0.34381  0.84942  0.47451  1.0000
  C   C2221     1.0  0.62342  0.83732  0.02080  1.0000
  C   C2222     1.0  0.57364  0.85412  0.48062  1.0000
  C   C2223     1.0  0.59578  0.87046  0.41103  1.0000
  C   C2224     1.0  0.45765  0.96944  0.29636  1.0000
  C   C2225     1.0  0.59102  0.85182  0.37928  1.0000
  H   H1762     1.0  0.38006  0.96576  0.10602  1.0000
  C   C2226     1.0  0.53626  0.79869  0.48530  1.0000
  C   C2227     1.0  0.43353  0.99279  0.10264  1.0000
  C   C2228     1.0  0.58127  0.79247  0.06950  1.0000
  C   C2229     1.0  0.35212  0.87434  0.12783  1.0000
  H   H1763     1.0  0.52722  0.81087  0.26553  1.0000
  C   C2230     1.0  0.51522  0.85528  0.48044  1.0000
  C   C2231     1.0  0.56622  0.76824  0.20546  1.0000
  H   H1764     1.0  0.56594  0.85653  0.00942  1.0000
  C   C2232     1.0  0.61963  0.85447  0.00675  1.0000
  H   H1765     1.0  0.43133  0.98967  0.22283  1.0000
  H   H1766     1.0  0.53587  0.80918  0.07627  1.0000
  H   H1767     1.0  0.64687  0.80266  0.05709  1.0000
  H   H1768     1.0  0.54557  0.87908  0.39458  1.0000
  C   C2233     1.0  0.40104  0.98125  0.17264  1.0000
  C   C2234     1.0  0.54709  0.86804  0.07993  1.0000
  H   H1769     1.0  0.39116  0.80252  0.42407  1.0000
  P   P77       1.0  0.51036  0.81203  0.48746  1.0000
  C   C2235     1.0  0.58165  0.86016  0.46043  1.0000
  H   H1770     1.0  0.60991  0.81316  0.04092  1.0000
  C   C2236     1.0  0.51392  0.83579  0.47133  1.0000
  C   C2237     1.0  0.66097  0.83311  0.42928  1.0000
  C   C2238     1.0  0.38958  0.98514  0.19167  1.0000
  C   C2239     1.0  0.42299  0.98736  0.20882  1.0000
  C   C2240     1.0  0.56996  0.85952  0.37928  1.0000
  H   H1771     1.0  0.65504  0.96909  0.02109  1.0000
  C   C2241     1.0  0.61358  0.98221  0.24917  1.0000
  C   C2242     1.0  0.49036  0.79702  0.47703  1.0000
  H   H1772     1.0  0.63954  0.83176  0.02352  1.0000
  C   C2243     1.0  0.60400  0.85749  0.39488  1.0000
  C   C2244     1.0  0.43297  0.97155  0.09814  1.0000
  H   H1773     1.0  0.39198  0.99118  0.22451  1.0000
  S   S295      1.0  0.36732  0.75616  0.49773  1.0000
  C   C2245     1.0  0.43850  0.77867  0.31729  1.0000
  P   P78       1.0  0.61185  0.87770  0.43188  1.0000
  C   C2246     1.0  0.52116  0.85246  0.43664  1.0000
  C   C2247     1.0  0.64086  0.84323  0.42870  1.0000
  H   H1774     1.0  0.42495  0.83126  0.47288  1.0000
  C   C2248     1.0  0.59240  0.98955  0.25024  1.0000
  H   H1775     1.0  0.49969  0.76830  0.49439  1.0000
  H   H1776     1.0  0.55959  0.84528  0.48242  1.0000
  H   H1777     1.0  0.39367  0.85655  0.47358  1.0000
  H   H1778     1.0  0.57388  0.81677  0.18222  1.0000
  C   C2249     1.0  0.63810  0.86502  0.43103  1.0000
  P   P79       1.0  0.54538  0.75284  0.21753  1.0000
  H   H1779     1.0  0.49076  0.81373  0.01669  1.0000
  C   C2250     1.0  0.62940  0.99587  0.24271  1.0000
  C   C2251     1.0  0.61387  0.90572  0.42793  1.0000
  H   H1780     1.0  0.47564  0.82322  0.45909  1.0000
  Fe  Fe148     1.0  0.48470  0.98930  0.21380  1.0000
  H   H1781     1.0  0.56828  0.88917  0.42242  1.0000
  C   C2252     1.0  0.52711  0.77017  0.23241  1.0000
  H   H1782     1.0  0.66289  0.81628  0.42741  1.0000
  C   C2253     1.0  0.50737  0.81465  0.01183  1.0000
  H   H1783     1.0  0.59716  0.84115  0.36733  1.0000
  H   H1784     1.0  0.44747  0.96264  0.09366  1.0000
  C   C2254     1.0  0.41882  0.83758  0.48768  1.0000
  H   H1785     1.0  0.36576  0.87945  0.13522  1.0000
  H   H1786     1.0  0.48880  0.80640  0.26663  1.0000
  C   C2255     1.0  0.47213  0.76450  0.47708  1.0000
  C   C2256     1.0  0.43445  0.98380  0.18974  1.0000
  C   C2257     1.0  0.45890  0.79525  0.45712  1.0000
  C   C2258     1.0  0.66578  0.93766  0.01337  1.0000
  H   H1787     1.0  0.33960  0.85324  0.08218  1.0000
  C   C2259     1.0  0.66849  0.95783  0.02021  1.0000
  C   C2260     1.0  0.39788  0.79043  0.00740  1.0000
  C   C2261     1.0  0.34658  0.99090  0.06928  1.0000
  C   C2262     1.0  0.35485  0.86631  0.10767  1.0000
  C   C2263     1.0  0.59846  0.79249  0.18687  1.0000
  C   C2264     1.0  0.60024  0.87114  0.45783  1.0000
  C   C2265     1.0  0.64735  0.99792  0.09561  1.0000
  S   S296      1.0  0.46246  0.98472  0.18729  1.0000
  H   H1788     1.0  0.35308  0.92213  0.02795  1.0000
  C   C2266     1.0  0.53912  0.82562  0.07713  1.0000
  H   H1789     1.0  0.52036  0.82917  0.10624  1.0000
  C   C2267     1.0  0.60324  0.77200  0.19467  1.0000
  Fe  Fe149     1.0  0.53209  0.99698  0.21844  1.0000
  H   H1790     1.0  0.49876  0.75539  0.22477  1.0000
  C   C2268     1.0  0.35561  0.90072  0.19214  1.0000
  C   C2269     1.0  0.40124  0.85185  0.48807  1.0000
  C   C2270     1.0  0.60649  0.94143  0.43920  1.0000
  H   H1791     1.0  0.37032  0.86571  0.09948  1.0000
  C   C2271     1.0  0.66263  0.82835  0.06898  1.0000
  H   H1792     1.0  0.35482  0.96070  0.03014  1.0000
  C   C2272     1.0  0.44191  0.75886  0.28562  1.0000
  C   C2273     1.0  0.39557  0.99454  0.10957  1.0000
  C   C2274     1.0  0.65881  0.80715  0.06731  1.0000
  C   C2275     1.0  0.60260  0.86982  0.49595  1.0000
  C   C2276     1.0  0.65566  0.87629  0.43531  1.0000
  S   S297      1.0  0.52312  0.75813  0.01726  1.0000
  H   H1793     1.0  0.43828  0.75293  0.01479  1.0000
  C   C2277     1.0  0.40070  0.98817  0.20971  1.0000
  C   C2278     1.0  0.66519  0.97521  0.06988  1.0000
  H   H1794     1.0  0.36219  0.82312  0.20223  1.0000
  C   C2279     1.0  0.58133  0.75453  0.06811  1.0000
  C   C2280     1.0  0.48857  0.77588  0.48374  1.0000
  C   C2281     1.0  0.43976  0.75996  0.32964  1.0000
  H   H1795     1.0  0.51369  0.85659  0.49739  1.0000
  H   H1796     1.0  0.35058  0.91791  0.14096  1.0000
  H   H1797     1.0  0.64558  0.98956  0.24194  1.0000
  H   H1798     1.0  0.63493  0.94134  0.39210  1.0000
  C   C2282     1.0  0.44547  0.98833  0.29442  1.0000
  H   H1799     1.0  0.60012  0.75163  0.01190  1.0000
  S   S298      1.0  0.34289  0.99071  0.13329  1.0000
  H   H1800     1.0  0.65046  0.93344  0.00879  1.0000
  H   H1801     1.0  0.44301  0.75842  0.26858  1.0000
  C   C2283     1.0  0.60790  0.76507  0.00481  1.0000
  H   H1802     1.0  0.34063  0.97258  0.40841  1.0000
  C   C2284     1.0  0.63836  0.78747  0.00252  1.0000
  Fe  Fe150     1.0  0.33763  0.98523  0.16832  1.0000
  C   C2285     1.0  0.33760  0.85915  0.09796  1.0000
  H   H1803     1.0  0.44856  0.00010  0.10126  1.0000
  H   H1804     1.0  0.55455  0.75176  0.26273  1.0000
  H   H1805     1.0  0.63771  0.99987  0.11012  1.0000
  Fe  Fe151     1.0  0.63520  0.81193  0.51324  1.0000
  S   S299      1.0  0.61075  0.82568  0.53747  1.0000
  Fe  Fe152     1.0  0.50198  0.78282  0.66933  1.0000
  S   S300      1.0  0.47734  0.81004  0.66913  1.0000
  P   P80       1.0  0.37572  0.77510  0.93311  1.0000
  Fe  Fe153     1.0  0.51809  0.79440  0.62316  1.0000
  S   S301      1.0  0.49466  0.82209  0.62010  1.0000
  S   S302      1.0  0.53948  0.78117  0.59596  1.0000
  Fe  Fe154     1.0  0.50257  0.82965  0.65313  1.0000
  S   S303      1.0  0.51107  0.86353  0.65884  1.0000
  Fe  Fe155     1.0  0.47112  0.80069  0.63604  1.0000
  S   S304      1.0  0.43713  0.80059  0.62546  1.0000
  S   S305      1.0  0.52776  0.80313  0.65498  1.0000
  S   S306      1.0  0.49399  0.77230  0.63743  1.0000
  Fe  Fe156     1.0  0.37644  0.78466  0.51419  1.0000
  S   S307      1.0  0.40548  0.78243  0.53445  1.0000
  H   H1806     1.0  0.41681  0.93431  0.92666  1.0000
  C   C2286     1.0  0.35231  0.77074  0.94993  1.0000
  H   H1807     1.0  0.41648  0.90153  0.55972  1.0000
  C   C2287     1.0  0.37280  0.84735  0.92520  1.0000
  C   C2288     1.0  0.61379  0.78165  0.59189  1.0000
  Fe  Fe157     1.0  0.49879  0.96463  0.73616  1.0000
  S   S308      1.0  0.49812  0.96986  0.77113  1.0000
  S   S309      1.0  0.48690  0.93263  0.72794  1.0000
  H   H1808     1.0  0.63278  0.86224  0.99874  1.0000
  H   H1809     1.0  0.64866  0.95558  0.80103  1.0000
  C   C2289     1.0  0.56186  0.75304  0.64044  1.0000
  C   C2290     1.0  0.44056  0.89003  0.58025  1.0000
  H   H1810     1.0  0.36255  0.96665  0.71585  1.0000
  S   S310      1.0  0.53011  0.97947  0.72990  1.0000
  H   H1811     1.0  0.52001  0.83902  0.70024  1.0000
  H   H1812     1.0  0.37115  0.86439  0.92374  1.0000
  H   H1813     1.0  0.59195  0.96979  0.74085  1.0000
  C   C2291     1.0  0.39378  0.76476  0.89387  1.0000
  H   H1814     1.0  0.45004  0.77722  0.95176  1.0000
  H   H1815     1.0  0.44681  0.90536  0.58146  1.0000
  S   S311      1.0  0.57379  0.77096  0.97848  1.0000
  H   H1816     1.0  0.43699  0.94004  0.71238  1.0000
  C   C2292     1.0  0.37042  0.83537  0.90772  1.0000
  H   H1817     1.0  0.55849  0.76194  0.67283  1.0000
  C   C2293     1.0  0.35445  0.92629  0.53322  1.0000
  H   H1818     1.0  0.35198  0.91357  0.92334  1.0000
  H   H1819     1.0  0.37397  0.89910  0.70449  1.0000
  C   C2294     1.0  0.43869  0.94926  0.75895  1.0000
  H   H1820     1.0  0.47921  0.82548  0.57201  1.0000
  C   C2295     1.0  0.50968  0.80487  0.53135  1.0000
  C   C2296     1.0  0.47640  0.83472  0.53914  1.0000
  P   P81       1.0  0.39258  0.86461  0.55075  1.0000
  C   C2297     1.0  0.59852  0.77696  0.98840  1.0000
  H   H1821     1.0  0.59738  0.94056  0.76727  1.0000
  H   H1822     1.0  0.35772  0.83279  0.61521  1.0000
  H   H1823     1.0  0.37091  0.92977  0.72692  1.0000
  C   C2298     1.0  0.43621  0.76796  0.95227  1.0000
  H   H1824     1.0  0.35505  0.98363  0.99774  1.0000
  C   C2299     1.0  0.41378  0.78843  0.55971  1.0000
  C   C2300     1.0  0.43556  0.78706  0.56316  1.0000
  C   C2301     1.0  0.44299  0.79081  0.58308  1.0000
  C   C2302     1.0  0.42868  0.79579  0.59994  1.0000
  C   C2303     1.0  0.40690  0.79730  0.59646  1.0000
  C   C2304     1.0  0.39949  0.79382  0.57645  1.0000
  H   H1825     1.0  0.44679  0.78293  0.55034  1.0000
  H   H1826     1.0  0.45977  0.78957  0.58547  1.0000
  H   H1827     1.0  0.39570  0.80125  0.60935  1.0000
  H   H1828     1.0  0.38276  0.79504  0.57407  1.0000
  C   C2305     1.0  0.50325  0.88277  0.67778  1.0000
  C   C2306     1.0  0.48851  0.87908  0.69464  1.0000
  C   C2307     1.0  0.48372  0.89452  0.70974  1.0000
  C   C2308     1.0  0.49355  0.91385  0.70827  1.0000
  C   C2309     1.0  0.50807  0.91762  0.69129  1.0000
  C   C2310     1.0  0.51288  0.90220  0.67621  1.0000
  H   H1829     1.0  0.48099  0.86424  0.69618  1.0000
  H   H1830     1.0  0.47238  0.89141  0.72273  1.0000
  H   H1831     1.0  0.51551  0.93248  0.68972  1.0000
  H   H1832     1.0  0.52426  0.90531  0.66326  1.0000
  C   C2311     1.0  0.59036  0.81317  0.55284  1.0000
  C   C2312     1.0  0.58556  0.79236  0.55005  1.0000
  C   C2313     1.0  0.56958  0.78302  0.56308  1.0000
  C   C2314     1.0  0.55842  0.79423  0.57916  1.0000
  C   C2315     1.0  0.56300  0.81510  0.58173  1.0000
  C   C2316     1.0  0.57881  0.82452  0.56857  1.0000
  H   H1833     1.0  0.59443  0.78339  0.53816  1.0000
  H   H1834     1.0  0.56609  0.76689  0.56096  1.0000
  H   H1835     1.0  0.55450  0.82395  0.59398  1.0000
  H   H1836     1.0  0.58235  0.84063  0.57084  1.0000
  P   P82       1.0  0.35228  0.97469  0.95279  1.0000
  C   C2317     1.0  0.42464  0.91394  0.69805  1.0000
  H   H1837     1.0  0.42598  0.83183  0.54009  1.0000
  H   H1838     1.0  0.56750  0.76806  0.63451  1.0000
  H   H1839     1.0  0.40659  0.93595  0.88944  1.0000
  H   H1840     1.0  0.40227  0.90100  0.52260  1.0000
  Fe  Fe158     1.0  0.52861  0.98635  0.76445  1.0000
  C   C2318     1.0  0.64891  0.95214  0.75660  1.0000
  C   C2319     1.0  0.41758  0.77643  0.94383  1.0000
  C   C2320     1.0  0.35271  0.93618  0.97562  1.0000
  C   C2321     1.0  0.35339  0.95810  0.97666  1.0000
  H   H1841     1.0  0.43985  0.90907  0.69055  1.0000
  H   H1842     1.0  0.36903  0.76378  0.97856  1.0000
  H   H1843     1.0  0.35195  0.92896  0.96059  1.0000
  C   C2322     1.0  0.63137  0.94172  0.76547  1.0000
  C   C2323     1.0  0.61094  0.94804  0.75973  1.0000
  C   C2324     1.0  0.60788  0.96454  0.74479  1.0000
  H   H1844     1.0  0.58558  0.80166  0.50349  1.0000
  C   C2325     1.0  0.64574  0.96842  0.74125  1.0000
  C   C2326     1.0  0.36052  0.83637  0.55396  1.0000
  H   H1845     1.0  0.50251  0.80884  0.97940  1.0000
  C   C2327     1.0  0.50121  0.81686  0.51437  1.0000
  C   C2328     1.0  0.33971  0.98045  0.73817  1.0000
  H   H1846     1.0  0.34957  0.99286  0.78804  1.0000
  C   C2329     1.0  0.38757  0.90833  0.70600  1.0000
  H   H1847     1.0  0.39813  0.99347  0.90297  1.0000
  H   H1848     1.0  0.54890  0.81551  0.51025  1.0000
  H   H1849     1.0  0.66909  0.98518  0.69363  1.0000
  C   C2330     1.0  0.40218  0.85317  0.52620  1.0000
  H   H1850     1.0  0.58400  0.96223  0.81837  1.0000
  C   C2331     1.0  0.51396  0.81184  0.99074  1.0000
  S   S312      1.0  0.37298  0.97513  0.83242  1.0000
  C   C2332     1.0  0.37797  0.81544  0.94693  1.0000
  C   C2333     1.0  0.42333  0.88776  0.56788  1.0000
  H   H1851     1.0  0.38477  0.97764  0.77699  1.0000
  H   H1852     1.0  0.63337  0.92895  0.77715  1.0000
  H   H1853     1.0  0.33881  0.89470  0.75127  1.0000
  C   C2334     1.0  0.37566  0.80329  0.92944  1.0000
  C   C2335     1.0  0.41491  0.98213  0.72538  1.0000
  C   C2336     1.0  0.34603  0.91206  0.54837  1.0000
  C   C2337     1.0  0.60932  0.79406  0.97905  1.0000
  Fe  Fe159     1.0  0.33801  0.98503  0.83904  1.0000
  C   C2338     1.0  0.35387  0.76543  0.97152  1.0000
  C   C2339     1.0  0.34437  0.82304  0.58709  1.0000
  H   H1854     1.0  0.33702  0.75986  0.00145  1.0000
  C   C2340     1.0  0.61417  0.76111  0.58502  1.0000
  H   H1855     1.0  0.63638  0.89474  0.74051  1.0000
  C   C2341     1.0  0.37176  0.81339  0.90980  1.0000
  H   H1856     1.0  0.53404  0.80705  0.71968  1.0000
  H   H1857     1.0  0.44017  0.81816  0.50644  1.0000
  S   S313      1.0  0.47983  0.99496  0.72939  1.0000
  H   H1858     1.0  0.61110  0.87283  0.50972  1.0000
  C   C2342     1.0  0.39638  0.94343  0.90151  1.0000
  H   H1859     1.0  0.35060  0.88274  0.56565  1.0000
  C   C2343     1.0  0.37817  0.88942  0.54503  1.0000
  C   C2344     1.0  0.48419  0.83150  0.51840  1.0000
  C   C2345     1.0  0.35969  0.97162  0.73187  1.0000
  H   H1860     1.0  0.44064  0.81420  0.98403  1.0000
  C   C2346     1.0  0.62914  0.79524  0.58403  1.0000
  C   C2347     1.0  0.55310  0.82431  0.73923  1.0000
  C   C2348     1.0  0.53896  0.82242  0.72342  1.0000
  C   C2349     1.0  0.53102  0.84040  0.71248  1.0000
  C   C2350     1.0  0.53720  0.86023  0.71731  1.0000
  C   C2351     1.0  0.55165  0.86230  0.73288  1.0000
  C   C2352     1.0  0.55941  0.84417  0.74400  1.0000
  P   P83       1.0  0.55900  0.88824  0.73907  1.0000
  C   C2353     1.0  0.58411  0.88657  0.75132  1.0000
  C   C2354     1.0  0.56135  0.90453  0.71506  1.0000
  C   C2355     1.0  0.55678  0.92634  0.71536  1.0000
  C   C2356     1.0  0.55887  0.93886  0.69674  1.0000
  C   C2357     1.0  0.56533  0.92971  0.67771  1.0000
  C   C2358     1.0  0.57006  0.90805  0.67731  1.0000
  C   C2359     1.0  0.56827  0.89553  0.69592  1.0000
  C   C2360     1.0  0.58497  0.88071  0.77286  1.0000
  C   C2361     1.0  0.60420  0.87991  0.78264  1.0000
  C   C2362     1.0  0.62274  0.88488  0.77099  1.0000
  C   C2363     1.0  0.62205  0.89070  0.74954  1.0000
  C   C2364     1.0  0.60283  0.89154  0.73971  1.0000
  C   C2365     1.0  0.53918  0.89993  0.75720  1.0000
  C   C2366     1.0  0.51828  0.89367  0.75810  1.0000
  C   C2367     1.0  0.50319  0.90238  0.77258  1.0000
  C   C2368     1.0  0.50883  0.91741  0.78623  1.0000
  C   C2369     1.0  0.52948  0.92402  0.78515  1.0000
  C   C2370     1.0  0.54457  0.91545  0.77062  1.0000
  H   H1861     1.0  0.55909  0.81034  0.74781  1.0000
  H   H1862     1.0  0.34492  0.94013  0.52822  1.0000
  C   C2371     1.0  0.35779  0.89370  0.55428  1.0000
  H   H1863     1.0  0.53069  0.87402  0.70890  1.0000
  H   H1864     1.0  0.57026  0.84522  0.75634  1.0000
  H   H1865     1.0  0.55129  0.93371  0.72982  1.0000
  H   H1866     1.0  0.55494  0.95562  0.69695  1.0000
  H   H1867     1.0  0.56635  0.93937  0.66323  1.0000
  H   H1868     1.0  0.57473  0.90089  0.66250  1.0000
  H   H1869     1.0  0.57202  0.87877  0.69526  1.0000
  H   H1870     1.0  0.57071  0.87689  0.78215  1.0000
  H   H1871     1.0  0.60469  0.87553  0.79931  1.0000
  H   H1872     1.0  0.63757  0.88432  0.77867  1.0000
  H   H1873     1.0  0.60266  0.89619  0.72312  1.0000
  H   H1874     1.0  0.51339  0.88240  0.74743  1.0000
  H   H1875     1.0  0.48697  0.89788  0.77277  1.0000
  H   H1876     1.0  0.49709  0.92439  0.79725  1.0000
  H   H1877     1.0  0.53369  0.93618  0.79528  1.0000
  H   H1878     1.0  0.56036  0.92114  0.76980  1.0000
  H   H1879     1.0  0.46336  0.84611  0.54222  1.0000
  H   H1880     1.0  0.38023  0.80792  0.96237  1.0000
  H   H1881     1.0  0.60144  0.75134  0.59053  1.0000
  Fe  Fe160     1.0  0.49668  0.75316  0.99617  1.0000
  C   C2372     1.0  0.37221  0.97786  0.76617  1.0000
  C   C2373     1.0  0.37484  0.92239  0.52422  1.0000
  H   H1882     1.0  0.63704  0.81249  0.97862  1.0000
  H   H1883     1.0  0.38367  0.85481  0.59602  1.0000
  C   C2374     1.0  0.41507  0.86794  0.56639  1.0000
  C   C2375     1.0  0.48529  0.82311  0.55595  1.0000
  C   C2376     1.0  0.41657  0.94896  0.75970  1.0000
  C   C2377     1.0  0.44957  0.87260  0.59132  1.0000
  C   C2378     1.0  0.44142  0.85287  0.58997  1.0000
  C   C2379     1.0  0.42436  0.85053  0.57750  1.0000
  C   C2380     1.0  0.37338  0.84607  0.58712  1.0000
  C   C2381     1.0  0.44233  0.78310  0.99894  1.0000
  C   C2382     1.0  0.41384  0.97570  0.81558  1.0000
  C   C2383     1.0  0.43114  0.98418  0.80382  1.0000
  C   C2384     1.0  0.40611  0.93779  0.77639  1.0000
  H   H1884     1.0  0.59600  0.87449  0.99165  1.0000
  C   C2385     1.0  0.38669  0.90406  0.53012  1.0000
  H   H1885     1.0  0.46720  0.93846  0.77359  1.0000
  H   H1886     1.0  0.35409  0.92491  0.76708  1.0000
  H   H1887     1.0  0.35182  0.90639  0.99305  1.0000
  H   H1888     1.0  0.41420  0.97216  0.69328  1.0000
  C   C2386     1.0  0.39432  0.98721  0.81804  1.0000
  C   C2387     1.0  0.40339  0.93798  0.72038  1.0000
  C   C2388     1.0  0.42292  0.93160  0.71038  1.0000
  H   H1889     1.0  0.46275  0.87436  0.60113  1.0000
  H   H1890     1.0  0.44816  0.83936  0.59882  1.0000
  H   H1891     1.0  0.41823  0.83513  0.57674  1.0000
  H   H1892     1.0  0.41560  0.96004  0.82279  1.0000
  H   H1893     1.0  0.40658  0.77426  0.89759  1.0000
  C   C2389     1.0  0.62527  0.97469  0.73550  1.0000
  H   H1894     1.0  0.40839  0.88860  0.68627  1.0000
  C   C2390     1.0  0.40695  0.90237  0.69575  1.0000
  C   C2391     1.0  0.37483  0.84709  0.56493  1.0000
  H   H1895     1.0  0.37776  0.84672  0.95846  1.0000
  H   H1896     1.0  0.64967  0.97079  0.93777  1.0000
  C   C2392     1.0  0.35325  0.75899  0.55984  1.0000
  C   C2393     1.0  0.63029  0.75384  0.57058  1.0000
  H   H1897     1.0  0.41745  0.79208  0.93645  1.0000
  H   H1898     1.0  0.47685  0.84030  0.50551  1.0000
  C   C2394     1.0  0.35269  0.92328  0.99404  1.0000
  C   C2395     1.0  0.59175  0.97421  0.80865  1.0000
  H   H1899     1.0  0.38125  0.93338  0.51233  1.0000
  H   H1900     1.0  0.40877  0.75619  0.86392  1.0000
  C   C2396     1.0  0.34527  0.82450  0.56505  1.0000
  H   H1901     1.0  0.50861  0.79903  0.56512  1.0000
  H   H1902     1.0  0.54065  0.80907  0.96830  1.0000
  C   C2397     1.0  0.53540  0.81210  0.98447  1.0000
  C   C2398     1.0  0.35844  0.83381  0.59811  1.0000
  C   C2399     1.0  0.42749  0.83032  0.50656  1.0000
  C   C2400     1.0  0.36966  0.96261  0.93270  1.0000
  C   C2401     1.0  0.38884  0.95211  0.93802  1.0000
  C   C2402     1.0  0.40213  0.94256  0.92246  1.0000
  H   H1903     1.0  0.41720  0.99719  0.75484  1.0000
  C   C2403     1.0  0.37734  0.95382  0.89611  1.0000
  C   C2404     1.0  0.36406  0.96338  0.91164  1.0000
  C   C2405     1.0  0.55026  0.81520  0.99924  1.0000
  C   C2406     1.0  0.41924  0.83807  0.52574  1.0000
  C   C2407     1.0  0.41858  0.98418  0.70338  1.0000
  H   H1904     1.0  0.60239  0.80332  0.96625  1.0000
  H   H1905     1.0  0.65901  0.97643  0.73391  1.0000
  C   C2408     1.0  0.45013  0.93857  0.77467  1.0000
  C   C2409     1.0  0.58111  0.98423  0.79173  1.0000
  H   H1906     1.0  0.64918  0.94455  0.83866  1.0000
  C   C2410     1.0  0.38582  0.92593  0.71849  1.0000
  H   H1907     1.0  0.37360  0.99681  0.87384  1.0000
  P   P84       1.0  0.40219  0.95976  0.73766  1.0000
  H   H1908     1.0  0.39345  0.95117  0.95420  1.0000
  C   C2411     1.0  0.35444  0.96685  0.99644  1.0000
  H   H1909     1.0  0.44604  0.97511  0.80212  1.0000
  H   H1910     1.0  0.37278  0.95439  0.87986  1.0000
  C   C2412     1.0  0.39273  0.85937  0.50724  1.0000
  C   C2413     1.0  0.37659  0.83739  0.94478  1.0000
  S   S314      1.0  0.55546  0.97606  0.78644  1.0000
  H   H1911     1.0  0.44857  0.91978  0.80371  1.0000
  H   H1912     1.0  0.62278  0.98769  0.72415  1.0000
  H   H1913     1.0  0.38911  0.93691  0.77708  1.0000
  C   C2414     1.0  0.43963  0.92784  0.79145  1.0000
  C   C2415     1.0  0.43174  0.80218  0.99246  1.0000
  H   H1914     1.0  0.44723  0.95725  0.74595  1.0000
  H   H1915     1.0  0.37866  0.86984  0.50713  1.0000
  C   C2416     1.0  0.39511  0.75451  0.87481  1.0000
  H   H1916     1.0  0.65744  0.76278  0.55059  1.0000
  H   H1917     1.0  0.34932  0.97113  0.90717  1.0000
  H   H1918     1.0  0.36093  0.83745  0.53687  1.0000
  H   H1919     1.0  0.36924  0.80443  0.89623  1.0000
  C   C2417     1.0  0.39941  0.76480  0.94518  1.0000
  C   C2418     1.0  0.41759  0.92749  0.79233  1.0000
  H   H1920     1.0  0.60099  0.78738  0.60254  1.0000
  C   C2419     1.0  0.50188  0.80818  0.55204  1.0000
  H   H1921     1.0  0.40939  0.91924  0.80536  1.0000
  S   S315      1.0  0.51224  0.76188  0.69832  1.0000
  H   H1922     1.0  0.62829  0.81143  0.58863  1.0000
  C   C2420     1.0  0.37589  0.96957  0.74610  1.0000
  C   C2421     1.0  0.61225  0.97958  0.81325  1.0000
  S   S316      1.0  0.34270  0.79849  0.51648  1.0000
  C   C2422     1.0  0.62905  0.79930  0.98604  1.0000
  C   C2423     1.0  0.64540  0.76774  0.56244  1.0000
  H   H1923     1.0  0.52213  0.79278  0.52877  1.0000
  H   H1924     1.0  0.61998  0.97186  0.82645  1.0000
  S   S317      1.0  0.47003  0.77911  0.99206  1.0000
  H   H1925     1.0  0.46287  0.76687  0.90166  1.0000
  H   H1926     1.0  0.65640  0.79908  0.56283  1.0000
  C   C2424     1.0  0.64491  0.78829  0.56932  1.0000
  H   H1927     1.0  0.35251  0.77479  0.56549  1.0000
  C   C2425     1.0  0.62270  0.99487  0.80073  1.0000
  H   H1928     1.0  0.36703  0.84320  0.89269  1.0000
  C   C2426     1.0  0.35231  0.98683  0.77237  1.0000
  C   C2427     1.0  0.66073  0.93761  0.82742  1.0000
  C   C2428     1.0  0.37617  0.76263  0.90811  1.0000
  H   H1929     1.0  0.40195  0.82065  0.99165  1.0000
  H   H1930     1.0  0.38496  0.75171  0.56938  1.0000
  C   C2429     1.0  0.66041  0.94374  0.80603  1.0000
  C   C2430     1.0  0.40972  0.80585  0.99665  1.0000
  H   H1931     1.0  0.56687  0.81453  0.99414  1.0000
  H   H1932     1.0  0.39326  0.99452  0.94591  1.0000
  H   H1933     1.0  0.57834  0.85354  0.51402  1.0000
  H   H1934     1.0  0.66454  0.95227  0.96930  1.0000
  C   C2431     1.0  0.66619  0.97188  0.94079  1.0000
  S   S318      1.0  0.33868  0.88231  0.95463  1.0000
  C   C2432     1.0  0.42013  0.99837  0.73790  1.0000
  C   C2433     1.0  0.33715  0.92337  0.76805  1.0000
  C   C2434     1.0  0.59139  0.99977  0.77941  1.0000
  H   H1935     1.0  0.48299  0.75632  0.93317  1.0000
  Fe  Fe161     1.0  0.48076  0.00080  0.76399  1.0000
  C   C2435     1.0  0.36078  0.00061  0.95753  1.0000
  C   C2436     1.0  0.71754  0.23950  0.47767  1.0000
  H   H1936     1.0  0.96114  0.17087  0.42968  1.0000
  H   H1937     1.0  0.67122  0.22875  0.42800  1.0000
  H   H1938     1.0  0.78345  0.20870  0.02672  1.0000
  S   S319      1.0  0.72982  0.07803  0.02771  1.0000
  C   C2437     1.0  0.88638  0.19458  0.45433  1.0000
  Fe  Fe162     1.0  0.99895  0.15353  0.33669  1.0000
  P   P85       1.0  0.99584  0.18165  0.14730  1.0000
  S   S320      1.0  0.68985  0.04336  0.11624  1.0000
  C   C2438     1.0  0.99705  0.22611  0.21070  1.0000
  Fe  Fe163     1.0  0.98870  0.11684  0.30950  1.0000
  S   S321      1.0  0.97170  0.08665  0.30432  1.0000
  H   H1939     1.0  0.68532  0.11115  0.42884  1.0000
  H   H1940     1.0  0.69389  0.00308  0.46022  1.0000
  C   C2439     1.0  0.79744  0.05316  0.46973  1.0000
  S   S322      1.0  0.98054  0.15202  0.30719  1.0000
  C   C2440     1.0  0.99429  0.15826  0.13270  1.0000
  H   H1941     1.0  0.83565  0.01149  0.42400  1.0000
  Fe  Fe164     1.0  0.86690  0.02161  0.30814  1.0000
  S   S323      1.0  0.87718  0.05528  0.31027  1.0000
  H   H1942     1.0  0.73051  0.00358  0.01396  1.0000
  H   H1943     1.0  0.89697  0.24214  0.40829  1.0000
  H   H1944     1.0  0.84478  0.22281  0.47734  1.0000
  C   C2441     1.0  0.99700  0.18407  0.38557  1.0000
  H   H1945     1.0  0.78976  0.04052  0.17986  1.0000
  H   H1946     1.0  0.67625  0.02651  0.05945  1.0000
  C   C2442     1.0  0.94526  0.07830  0.30675  1.0000
  C   C2443     1.0  0.92775  0.09217  0.31086  1.0000
  C   C2444     1.0  0.90710  0.08483  0.31197  1.0000
  C   C2445     1.0  0.90364  0.06354  0.30914  1.0000
  C   C2446     1.0  0.92117  0.04960  0.30527  1.0000
  C   C2447     1.0  0.94181  0.05697  0.30402  1.0000
  H   H1947     1.0  0.93009  0.10860  0.31295  1.0000
  H   H1948     1.0  0.89368  0.09575  0.31496  1.0000
  H   H1949     1.0  0.91881  0.03320  0.30304  1.0000
  H   H1950     1.0  0.95521  0.04608  0.30082  1.0000
  H   H1951     1.0  0.93543  0.24759  0.12570  1.0000
  C   C2448     1.0  0.92953  0.18398  0.42372  1.0000
  C   C2449     1.0  0.79508  0.24518  0.49618  1.0000
  H   H1952     1.0  0.80017  0.01782  0.36496  1.0000
  C   C2450     1.0  0.96519  0.19095  0.46512  1.0000
  C   C2451     1.0  0.97571  0.20166  0.14070  1.0000
  H   H1953     1.0  0.99022  0.15070  0.23292  1.0000
  C   C2452     1.0  0.71067  0.00426  0.24148  1.0000
  C   C2453     1.0  0.72474  0.22806  0.01958  1.0000
  C   C2454     1.0  0.79933  0.00954  0.16980  1.0000
  H   H1954     1.0  0.97928  0.19360  0.25187  1.0000
  C   C2455     1.0  0.73911  0.21021  0.05070  1.0000
  H   H1955     1.0  0.91520  0.18698  0.48720  1.0000
  C   C2456     1.0  0.71844  0.06887  0.05239  1.0000
  C   C2457     1.0  0.70130  0.07967  0.06268  1.0000
  C   C2458     1.0  0.69263  0.07159  0.08216  1.0000
  C   C2459     1.0  0.70100  0.05269  0.09152  1.0000
  C   C2460     1.0  0.71794  0.04176  0.08107  1.0000
  C   C2461     1.0  0.72661  0.04984  0.06164  1.0000
  H   H1956     1.0  0.69483  0.09428  0.05571  1.0000
  H   H1957     1.0  0.93446  0.22044  0.40044  1.0000
  H   H1958     1.0  0.72449  0.02719  0.08806  1.0000
  H   H1959     1.0  0.73982  0.04136  0.05377  1.0000
  C   C2462     1.0  0.98296  0.21587  0.22518  1.0000
  H   H1960     1.0  0.97677  0.21225  0.38720  1.0000
  C   C2463     1.0  0.67858  0.00729  0.22248  1.0000
  C   C2464     1.0  0.69562  0.07692  0.48147  1.0000
  H   H1961     1.0  0.67952  0.08014  0.09012  1.0000
  H   H1962     1.0  0.79763  0.23772  0.36235  1.0000
  C   C2465     1.0  0.97302  0.20768  0.11943  1.0000
  H   H1963     1.0  0.98995  0.22334  0.42093  1.0000
  H   H1964     1.0  0.69889  0.18362  0.03356  1.0000
  H   H1965     1.0  0.81687  0.18944  0.40788  1.0000
  C   C2466     1.0  0.71713  0.02090  0.44218  1.0000
  C   C2467     1.0  0.91324  0.18431  0.40957  1.0000
  H   H1966     1.0  0.89949  0.19505  0.41143  1.0000
  C   C2468     1.0  0.69359  0.08097  0.41565  1.0000
  C   C2469     1.0  0.72453  0.19467  0.05006  1.0000
  P   P86       1.0  0.74836  0.04408  0.42051  1.0000
  C   C2470     1.0  0.72884  0.06592  0.42228  1.0000
  C   C2471     1.0  0.76798  0.04712  0.43953  1.0000
  C   C2472     1.0  0.76188  0.04635  0.46114  1.0000
  H   H1967     1.0  0.75091  0.23846  0.03621  1.0000
  C   C2473     1.0  0.89638  0.22939  0.46206  1.0000
  C   C2474     1.0  0.80366  0.05416  0.44826  1.0000
  C   C2475     1.0  0.78893  0.05151  0.43318  1.0000
  C   C2476     1.0  0.73278  0.08395  0.43301  1.0000
  C   C2477     1.0  0.71712  0.10019  0.43523  1.0000
  C   C2478     1.0  0.99455  0.24377  0.35263  1.0000
  H   H1968     1.0  0.00183  0.02259  0.35496  1.0000
  C   C2479     1.0  0.70916  0.06463  0.41349  1.0000
  C   C2480     1.0  0.75993  0.04295  0.39372  1.0000
  C   C2481     1.0  0.75145  0.05574  0.37727  1.0000
  C   C2482     1.0  0.76036  0.05470  0.35665  1.0000
  C   C2483     1.0  0.77786  0.04097  0.35223  1.0000
  H   H1969     1.0  0.77146  0.22952  0.48084  1.0000
  C   C2484     1.0  0.77768  0.02936  0.38908  1.0000
  H   H1970     1.0  0.89037  0.17893  0.44888  1.0000
  C   C2485     1.0  0.77648  0.04964  0.47611  1.0000
  H   H1971     1.0  0.67994  0.06031  0.16360  1.0000
  C   C2486     1.0  0.73508  0.02018  0.42807  1.0000
  H   H1972     1.0  0.97387  0.19637  0.45096  1.0000
  H   H1973     1.0  0.74578  0.04343  0.46648  1.0000
  S   S324      1.0  0.71628  0.14206  0.02139  1.0000
  C   C2487     1.0  0.69754  0.09870  0.42661  1.0000
  H   H1974     1.0  0.81993  0.05681  0.44328  1.0000
  H   H1975     1.0  0.79406  0.05293  0.41670  1.0000
  H   H1976     1.0  0.74772  0.08543  0.44003  1.0000
  H   H1977     1.0  0.71988  0.11375  0.44417  1.0000
  H   H1978     1.0  0.70579  0.05084  0.40520  1.0000
  H   H1979     1.0  0.73804  0.06665  0.38018  1.0000
  H   H1980     1.0  0.75372  0.06455  0.34405  1.0000
  H   H1981     1.0  0.85879  0.23750  0.41010  1.0000
  C   C2488     1.0  0.97614  0.15470  0.12203  1.0000
  H   H1982     1.0  0.99430  0.21533  0.33565  1.0000
  C   C2489     1.0  0.70859  0.06092  0.49111  1.0000
  C   C2490     1.0  0.96399  0.21264  0.15648  1.0000
  S   S325      1.0  0.74737  0.00595  0.19656  1.0000
  H   H1983     1.0  0.68728  0.07350  0.46778  1.0000
  H   H1984     1.0  0.78489  0.01962  0.40143  1.0000
  H   H1985     1.0  0.78614  0.23806  0.44497  1.0000
  C   C2491     1.0  0.69265  0.03040  0.01871  1.0000
  H   H1986     1.0  0.84518  0.01346  0.47397  1.0000
  C   C2492     1.0  0.86584  0.19943  0.46259  1.0000
  C   C2493     1.0  0.91409  0.04560  0.16610  1.0000
  H   H1987     1.0  0.98250  0.19997  0.10701  1.0000
  S   S326      1.0  0.67655  0.11669  0.47651  1.0000
  H   H1988     1.0  0.76322  0.02480  0.23227  1.0000
  H   H1989     1.0  0.94095  0.23787  0.16338  1.0000
  H   H1990     1.0  0.90881  0.02490  0.19331  1.0000
  Fe  Fe165     1.0  0.67655  0.19797  0.47912  1.0000
  H   H1991     1.0  0.99818  0.08380  0.26658  1.0000
  H   H1992     1.0  0.92559  0.02472  0.35116  1.0000
  C   C2494     1.0  0.97645  0.18276  0.48220  1.0000
  C   C2495     1.0  0.68902  0.04655  0.00348  1.0000
  C   C2496     1.0  0.73917  0.22693  0.03560  1.0000
  C   C2497     1.0  0.93318  0.15826  0.38877  1.0000
  C   C2498     1.0  0.71045  0.21214  0.01887  1.0000
  C   C2499     1.0  0.94068  0.22623  0.43286  1.0000
  C   C2500     1.0  0.68663  0.00993  0.01570  1.0000
  C   C2501     1.0  0.90143  0.03413  0.18069  1.0000
  S   S327      1.0  0.98309  0.23232  0.49337  1.0000
  C   C2502     1.0  0.99126  0.15642  0.21656  1.0000
  H   H1993     1.0  0.69974  0.21220  0.00628  1.0000
  H   H1994     1.0  0.75077  0.20896  0.06255  1.0000
  H   H1995     1.0  0.93491  0.14868  0.37505  1.0000
  C   C2503     1.0  0.70740  0.00244  0.44897  1.0000
  S   S328      1.0  0.83246  0.01327  0.30903  1.0000
  C   C2504     1.0  0.94948  0.22909  0.15106  1.0000
  H   H1996     1.0  0.67605  0.04124  0.26261  1.0000
  S   S329      1.0  0.70214  0.22053  0.46657  1.0000
  S   S330      1.0  0.76116  0.17815  0.00614  1.0000
  H   H1997     1.0  0.90802  0.24111  0.46247  1.0000
  H   H1998     1.0  0.84782  0.04255  0.49753  1.0000
  C   C2505     1.0  0.83805  0.01555  0.18734  1.0000
  C   C2506     1.0  0.80374  0.23316  0.37758  1.0000
  Fe  Fe166     1.0  0.72247  0.10940  0.00999  1.0000
  C   C2507     1.0  0.68211  0.02914  0.25215  1.0000
  C   C2508     1.0  0.94955  0.15804  0.40254  1.0000
  C   C2509     1.0  0.98882  0.20262  0.39496  1.0000
  C   C2510     1.0  0.93227  0.18589  0.48544  1.0000
  H   H1999     1.0  0.80883  0.05496  0.48145  1.0000
  C   C2511     1.0  0.94781  0.17086  0.41987  1.0000
  C   C2512     1.0  0.82185  0.03157  0.18759  1.0000
  H   H2000     1.0  0.96025  0.16917  0.17550  1.0000
  C   C2513     1.0  0.80676  0.21186  0.38357  1.0000
  C   C2514     1.0  0.81934  0.22134  0.41692  1.0000
  C   C2515     1.0  0.80568  0.22251  0.00378  1.0000
  H   H2001     1.0  0.96401  0.14852  0.39928  1.0000
  C   C2516     1.0  0.87583  0.23417  0.47033  1.0000
  C   C2517     1.0  0.91499  0.17133  0.39232  1.0000
  Fe  Fe167     1.0  0.70149  0.01282  0.13320  1.0000
  H   H2002     1.0  0.82542  0.21656  0.43211  1.0000
  H   H2003     1.0  0.82403  0.04636  0.19465  1.0000
  C   C2518     1.0  0.87941  0.03469  0.17909  1.0000
  C   C2519     1.0  0.85887  0.03382  0.22222  1.0000
  C   C2520     1.0  0.87436  0.04638  0.22913  1.0000
  C   C2521     1.0  0.87115  0.05627  0.24836  1.0000
  C   C2522     1.0  0.85248  0.05374  0.26076  1.0000
  C   C2523     1.0  0.83710  0.04115  0.25410  1.0000
  C   C2524     1.0  0.84031  0.03120  0.23497  1.0000
  C   C2525     1.0  0.87027  0.04690  0.16265  1.0000
  C   C2526     1.0  0.88297  0.05832  0.14806  1.0000
  C   C2527     1.0  0.90486  0.05768  0.14977  1.0000
  P   P87       1.0  0.92861  0.20296  0.44415  1.0000
  C   C2528     1.0  0.94300  0.19240  0.46646  1.0000
  H   H2004     1.0  0.93105  0.04516  0.16748  1.0000
  C   C2529     1.0  0.90173  0.20966  0.45366  1.0000
  H   H2005     1.0  0.85278  0.10661  0.49491  1.0000
  H   H2006     1.0  0.85408  0.18772  0.46318  1.0000
  C   C2530     1.0  0.95830  0.22395  0.11405  1.0000
  C   C2531     1.0  0.94653  0.23468  0.12986  1.0000
  C   C2532     1.0  0.97509  0.13629  0.11109  1.0000
  H   H2007     1.0  0.71084  0.03565  0.44837  1.0000
  C   C2533     1.0  0.80252  0.02847  0.17901  1.0000
  H   H2008     1.0  0.96650  0.20912  0.17300  1.0000
  H   H2009     1.0  0.77153  0.04924  0.49272  1.0000
  H   H2010     1.0  0.88904  0.04837  0.21997  1.0000
  H   H2011     1.0  0.88324  0.06564  0.25395  1.0000
  H   H2012     1.0  0.85008  0.06125  0.27573  1.0000
  H   H2013     1.0  0.82286  0.03872  0.26396  1.0000
  S   S331      1.0  0.87605  0.00116  0.28088  1.0000
  H   H2014     1.0  0.85336  0.04767  0.16099  1.0000
  H   H2015     1.0  0.87579  0.06769  0.13541  1.0000
  H   H2016     1.0  0.91466  0.06658  0.13847  1.0000
  C   C2534     1.0  0.99201  0.00815  0.28011  1.0000
  H   H2017     1.0  0.69387  0.06225  0.00600  1.0000
  S   S332      1.0  0.69572  0.01066  0.16850  1.0000
  H   H2018     1.0  0.72483  0.18145  0.06142  1.0000
  C   C2535     1.0  0.67014  0.02300  0.23581  1.0000
  H   H2019     1.0  0.95628  0.22853  0.09762  1.0000
  C   C2536     1.0  0.94994  0.23989  0.44584  1.0000
  H   H2020     1.0  0.82850  0.02106  0.23035  1.0000
  C   C2537     1.0  0.78977  0.00513  0.24299  1.0000
  C   C2538     1.0  0.86058  0.21921  0.47058  1.0000
  C   C2539     1.0  0.71006  0.19577  0.03426  1.0000
  C   C2540     1.0  0.97306  0.15934  0.20516  1.0000
  C   C2541     1.0  0.69324  0.09723  0.48943  1.0000
  C   C2542     1.0  0.99038  0.20149  0.24111  1.0000
  H   H2021     1.0  0.90253  0.17178  0.38132  1.0000
  C   C2543     1.0  0.86454  0.25082  0.41745  1.0000
  P   P88       1.0  0.86320  0.01985  0.19806  1.0000
  C   C2544     1.0  0.94117  0.23076  0.41096  1.0000
  H   H2022     1.0  0.70057  0.03390  0.03264  1.0000
  C   C2545     1.0  0.81460  0.20596  0.40322  1.0000
  C   C2546     1.0  0.70234  0.01977  0.25492  1.0000
  H   H2023     1.0  0.81173  0.23274  0.01483  1.0000
  S   S333      1.0  0.98620  0.17659  0.36183  1.0000
  C   C2547     1.0  0.81616  0.24278  0.41108  1.0000
  C   C2548     1.0  0.78954  0.20886  0.01047  1.0000
  H   H2024     1.0  0.70989  0.04531  0.48508  1.0000
  H   H2025     1.0  0.80297  0.19993  0.37301  1.0000
  H   H2026     1.0  0.78478  0.04007  0.33626  1.0000
  H   H2027     1.0  0.96611  0.21895  0.22396  1.0000
  H   H2028     1.0  0.95788  0.15556  0.21262  1.0000
  C   C2549     1.0  0.78654  0.02838  0.36845  1.0000
  H   H2029     1.0  0.99278  0.01912  0.26660  1.0000
  H   H2030     1.0  0.99114  0.10692  0.10252  1.0000
  H   H2031     1.0  0.68118  0.24388  0.01842  1.0000
  H   H2032     1.0  0.96111  0.13369  0.10275  1.0000
  C   C2550     1.0  0.80845  0.24859  0.39124  1.0000
  C   C2551     1.0  0.99198  0.12118  0.11100  1.0000
  C   C2552     1.0  0.84449  0.01044  0.49093  1.0000
  H   H2033     1.0  0.79289  0.01526  0.25548  1.0000
  H   H2034     1.0  0.78414  0.00701  0.16360  1.0000
  H   H2035     1.0  0.91641  0.02127  0.38965  1.0000
  C   C2553     1.0  0.77286  0.01048  0.22979  1.0000
  C   C2554     1.0  0.79426  0.24290  0.45830  1.0000
  H   H2036     1.0  0.99361  0.18183  0.48100  1.0000
  H   H2037     1.0  0.71173  0.02466  0.26733  1.0000
  H   H2038     1.0  0.96269  0.16595  0.12229  1.0000
  H   H2039     1.0  0.76650  0.00656  0.02582  1.0000
  H   H2040     1.0  0.97852  0.24890  0.34910  1.0000
  H   H2041     1.0  0.94963  0.23691  0.46277  1.0000
  C   C2555     1.0  0.91766  0.00741  0.38032  1.0000
  H   H2042     1.0  0.99657  0.22157  0.28740  1.0000
  C   C2556     1.0  0.97444  0.16728  0.18424  1.0000
  C   C2557     1.0  0.99399  0.17289  0.17476  1.0000
  H   H2043     1.0  0.98269  0.24667  0.01989  1.0000
  C   C2558     1.0  0.78582  0.23801  0.47865  1.0000
  H   H2044     1.0  0.96636  0.01102  0.36697  1.0000
  C   C2559     1.0  0.99998  0.00654  0.36097  1.0000
  H   H2045     1.0  0.67833  0.07980  0.40913  1.0000
  H   H2046     1.0  0.67890  0.04869  0.20112  1.0000
  S   S334      1.0  0.98662  0.24330  0.19023  1.0000
  C   C2560     1.0  0.92299  0.00936  0.35869  1.0000
  C   C2561     1.0  0.99622  0.20891  0.41412  1.0000
  H   H2047     1.0  0.84175  0.00347  0.38609  1.0000
  H   H2048     1.0  0.95915  0.00269  0.27654  1.0000
  C   C2562     1.0  0.71860  0.24129  0.49945  1.0000
  C   C2563     1.0  0.95085  0.24857  0.40224  1.0000
  H   H2049     1.0  0.00232  0.05044  0.28725  1.0000
  C   C2564     1.0  0.96569  0.17662  0.50107  1.0000
  H   H2050     1.0  0.87181  0.24948  0.47674  1.0000
  C   C2565     1.0  0.98607  0.24333  0.00343  1.0000
  H   H2051     1.0  0.95957  0.22384  0.00222  1.0000
  C   C2566     1.0  0.84081  0.00273  0.53460  1.0000
  C   C2567     1.0  0.67477  0.04284  0.54429  1.0000
  H   H2052     1.0  0.71888  0.11315  0.57026  1.0000
  S   S335      1.0  0.74752  0.11987  0.98571  1.0000
  C   C2568     1.0  0.77149  0.00393  0.71237  1.0000
  S   S336      1.0  0.71415  0.15885  0.97187  1.0000
  Fe  Fe168     1.0  0.72056  0.12451  0.96412  1.0000
  S   S337      1.0  0.72501  0.11306  0.93045  1.0000
  C   C2569     1.0  0.93633  0.15303  0.82406  1.0000
  H   H2053     1.0  0.74099  0.21033  0.98116  1.0000
  H   H2054     1.0  0.82306  0.08630  0.55374  1.0000
  S   S338      1.0  0.69699  0.02169  0.83066  1.0000
  S   S339      1.0  0.69089  0.02967  0.89499  1.0000
  C   C2570     1.0  0.78730  0.01229  0.77311  1.0000
  C   C2571     1.0  0.98060  0.22883  0.84363  1.0000
  C   C2572     1.0  0.81418  0.22264  0.98293  1.0000
  Fe  Fe169     1.0  0.98624  0.13092  0.68182  1.0000
  H   H2055     1.0  0.96304  0.03227  0.68011  1.0000
  S   S340      1.0  0.95683  0.11514  0.67221  1.0000
  C   C2573     1.0  0.85812  0.06604  0.53160  1.0000
  H   H2056     1.0  0.67057  0.22990  0.53489  1.0000
  C   C2574     1.0  0.90466  0.24942  0.88227  1.0000
  S   S341      1.0  0.98924  0.16592  0.67547  1.0000
  S   S342      1.0  0.91138  0.03287  0.70880  1.0000
  C   C2575     1.0  0.97122  0.21569  0.87906  1.0000
  H   H2057     1.0  0.80389  0.02306  0.54815  1.0000
  H   H2058     1.0  0.67725  0.16539  0.55139  1.0000
  P   P89       1.0  0.94691  0.13133  0.76430  1.0000
  H   H2059     1.0  0.88642  0.05888  0.54878  1.0000
  Fe  Fe170     1.0  0.74914  0.01256  0.51267  1.0000
  H   H2060     1.0  0.68913  0.08985  0.57218  1.0000
  C   C2576     1.0  0.94536  0.09147  0.68198  1.0000
  C   C2577     1.0  0.92833  0.08420  0.67163  1.0000
  C   C2578     1.0  0.91813  0.06599  0.67921  1.0000
  C   C2579     1.0  0.92472  0.05490  0.69740  1.0000
  C   C2580     1.0  0.94206  0.06192  0.70748  1.0000
  C   C2581     1.0  0.95232  0.08007  0.69985  1.0000
  H   H2061     1.0  0.92281  0.09287  0.65778  1.0000
  H   H2062     1.0  0.90484  0.06086  0.67127  1.0000
  H   H2063     1.0  0.94739  0.05345  0.72152  1.0000
  H   H2064     1.0  0.96533  0.08546  0.70802  1.0000
  H   H2065     1.0  0.89387  0.00223  0.58740  1.0000
  H   H2066     1.0  0.94562  0.15631  0.83719  1.0000
  C   C2582     1.0  0.98671  0.14665  0.76749  1.0000
  H   H2067     1.0  0.72189  0.04968  0.96770  1.0000
  H   H2068     1.0  0.78372  0.18526  0.96454  1.0000
  H   H2069     1.0  0.93155  0.21929  0.82228  1.0000
  H   H2070     1.0  0.67297  0.16821  0.91320  1.0000
  H   H2071     1.0  0.76414  0.24721  0.97280  1.0000
  C   C2583     1.0  0.80021  0.03960  0.55034  1.0000
  H   H2072     1.0  0.81229  0.20904  0.95272  1.0000
  C   C2584     1.0  0.77378  0.06780  0.55694  1.0000
  H   H2073     1.0  0.78489  0.02916  0.77411  1.0000
  H   H2074     1.0  0.90293  0.14089  0.77731  1.0000
  H   H2075     1.0  0.75451  0.05259  0.98644  1.0000
  H   H2076     1.0  0.90905  0.05364  0.75400  1.0000
  H   H2077     1.0  0.97129  0.05802  0.65399  1.0000
  C   C2585     1.0  0.88476  0.23215  0.91141  1.0000
  H   H2078     1.0  0.76674  0.03546  0.55406  1.0000
  C   C2586     1.0  0.71603  0.08934  0.92119  1.0000
  C   C2587     1.0  0.70241  0.07664  0.93354  1.0000
  Fe  Fe171     1.0  0.69846  0.01120  0.86492  1.0000
  C   C2588     1.0  0.70149  0.05239  0.90472  1.0000
  C   C2589     1.0  0.71524  0.06496  0.89245  1.0000
  C   C2590     1.0  0.72237  0.08336  0.90062  1.0000
  C   C2591     1.0  0.73266  0.03599  0.96963  1.0000
  C   C2592     1.0  0.93753  0.17184  0.74732  1.0000
  H   H2079     1.0  0.72020  0.06067  0.87657  1.0000
  H   H2080     1.0  0.73287  0.09305  0.89090  1.0000
  H   H2081     1.0  0.99394  0.18745  0.62498  1.0000
  C   C2593     1.0  0.90407  0.23237  0.84019  1.0000
  C   C2594     1.0  0.84582  0.02695  0.50442  1.0000
  H   H2082     1.0  0.68836  0.03838  0.53394  1.0000
  C   C2595     1.0  0.67289  0.14066  0.93402  1.0000
  H   H2083     1.0  0.72978  0.00110  0.71205  1.0000
  Fe  Fe172     1.0  0.88665  0.01162  0.69719  1.0000
  H   H2084     1.0  0.78372  0.00281  0.65937  1.0000
  H   H2085     1.0  0.93532  0.17367  0.51745  1.0000
  C   C2596     1.0  0.70896  0.24190  0.93894  1.0000
  P   P90       1.0  0.84346  0.04483  0.54397  1.0000
  C   C2597     1.0  0.98333  0.08319  0.63441  1.0000
  C   C2598     1.0  0.93449  0.14117  0.78844  1.0000
  C   C2599     1.0  0.97721  0.22618  0.97225  1.0000
  S   S343      1.0  0.99215  0.19170  0.73065  1.0000
  C   C2600     1.0  0.84884  0.07968  0.51628  1.0000
  H   H2086     1.0  0.68983  0.13993  0.93536  1.0000
  H   H2087     1.0  0.78044  0.02202  0.98906  1.0000
  C   C2601     1.0  0.78967  0.19560  0.97554  1.0000
  C   C2602     1.0  0.85519  0.03622  0.56834  1.0000
  C   C2603     1.0  0.88061  0.09912  0.51227  1.0000
  H   H2088     1.0  0.93311  0.05698  0.78299  1.0000
  C   C2604     1.0  0.98886  0.24886  0.67271  1.0000
  S   S344      1.0  0.83510  0.23908  0.97355  1.0000
  Fe  Fe173     1.0  0.69136  0.14646  0.99735  1.0000
  C   C2605     1.0  0.81627  0.05386  0.54959  1.0000
  H   H2089     1.0  0.67692  0.05497  0.97313  1.0000
  C   C2606     1.0  0.84786  0.04510  0.58739  1.0000
  C   C2607     1.0  0.76141  0.00130  0.97328  1.0000
  C   C2608     1.0  0.73187  0.21922  0.96956  1.0000
  C   C2609     1.0  0.73043  0.21106  0.94971  1.0000
  C   C2610     1.0  0.91239  0.14432  0.79027  1.0000
  H   H2090     1.0  0.93977  0.22373  0.89117  1.0000
  C   C2611     1.0  0.93893  0.08946  0.77474  1.0000
  C   C2612     1.0  0.91432  0.15613  0.82576  1.0000
  S   S345      1.0  0.69598  0.11265  0.98788  1.0000
  H   H2091     1.0  0.94928  0.09075  0.78753  1.0000
  H   H2092     1.0  0.90048  0.08432  0.73023  1.0000
  C   C2613     1.0  0.70333  0.11938  0.56616  1.0000
  H   H2093     1.0  0.75729  0.07312  0.55923  1.0000
  H   H2094     1.0  0.96689  0.21644  0.96445  1.0000
  S   S346      1.0  0.99313  0.22025  0.55321  1.0000
  H   H2095     1.0  0.72511  0.08862  0.53078  1.0000
  C   C2614     1.0  0.69517  0.05833  0.92532  1.0000
  H   H2096     1.0  0.99713  0.23151  0.94442  1.0000
  C   C2615     1.0  0.87882  0.06911  0.53707  1.0000
  H   H2097     1.0  0.73834  0.19595  0.94628  1.0000
  H   H2098     1.0  0.70984  0.23093  0.51023  1.0000
  C   C2616     1.0  0.90299  0.20855  0.81149  1.0000
  H   H2099     1.0  0.97568  0.20749  0.89358  1.0000
  C   C2617     1.0  0.78971  0.08205  0.55695  1.0000
  H   H2100     1.0  0.71794  0.21600  0.91901  1.0000
  C   C2618     1.0  0.93689  0.18085  0.70989  1.0000
  C   C2619     1.0  0.81092  0.07510  0.55346  1.0000
  C   C2620     1.0  0.76574  0.02044  0.98159  1.0000
  C   C2621     1.0  0.67998  0.14875  0.55531  1.0000
  C   C2622     1.0  0.95207  0.00439  0.66801  1.0000
  C   C2623     1.0  0.87365  0.02316  0.60620  1.0000
  C   C2624     1.0  0.77908  0.04656  0.55392  1.0000
  C   C2625     1.0  0.98660  0.10909  0.76325  1.0000
  H   H2101     1.0  0.93591  0.00768  0.67403  1.0000
  H   H2102     1.0  0.99228  0.23054  0.83058  1.0000
  C   C2626     1.0  0.98864  0.01429  0.66396  1.0000
  S   S347      1.0  0.73523  0.04517  0.52227  1.0000
  H   H2103     1.0  0.91593  0.11811  0.73462  1.0000
  S   S348      1.0  0.75249  0.01086  0.80136  1.0000
  C   C2627     1.0  0.67959  0.04241  0.98493  1.0000
  C   C2628     1.0  0.99404  0.20169  0.59331  1.0000
  H   H2104     1.0  0.96343  0.14280  0.80478  1.0000
  H   H2105     1.0  0.97432  0.22062  0.76096  1.0000
  C   C2629     1.0  0.97538  0.12862  0.76548  1.0000
  C   C2630     1.0  0.88998  0.08561  0.52745  1.0000
  C   C2631     1.0  0.88186  0.23312  0.84228  1.0000
  C   C2632     1.0  0.79102  0.03399  0.69973  1.0000
  C   C2633     1.0  0.79198  0.02665  0.67934  1.0000
  H   H2106     1.0  0.95641  0.24720  0.82784  1.0000
  C   C2634     1.0  0.96756  0.01836  0.67141  1.0000
  C   C2635     1.0  0.78061  0.02274  0.71618  1.0000
  H   H2107     1.0  0.88930  0.11191  0.50487  1.0000
  C   C2636     1.0  0.94641  0.14544  0.80554  1.0000
  H   H2108     1.0  0.88526  0.15389  0.81027  1.0000
  H   H2109     1.0  0.94933  0.12870  0.71812  1.0000
  C   C2637     1.0  0.84404  0.02324  0.52642  1.0000
  H   H2110     1.0  0.97451  0.17101  0.51454  1.0000
  H   H2111     1.0  0.91120  0.19909  0.79950  1.0000
  H   H2112     1.0  0.96771  0.09035  0.63179  1.0000
  C   C2638     1.0  0.67119  0.20458  0.95530  1.0000
  S   S349      1.0  0.67969  0.17319  0.50546  1.0000
  C   C2639     1.0  0.78236  0.00819  0.67531  1.0000
  H   H2113     1.0  0.90653  0.16183  0.84020  1.0000
  C   C2640     1.0  0.90235  0.15173  0.80888  1.0000
  H   H2114     1.0  0.77992  0.02845  0.73198  1.0000
  H   H2115     1.0  0.79869  0.04818  0.70285  1.0000
  H   H2116     1.0  0.80056  0.03505  0.66664  1.0000
  C   C2641     1.0  0.98610  0.21760  0.86207  1.0000
  C   C2642     1.0  0.86005  0.09614  0.50668  1.0000
  H   H2117     1.0  0.93523  0.19251  0.69705  1.0000
  H   H2118     1.0  0.81432  0.01435  0.75064  1.0000
  H   H2119     1.0  0.94349  0.15515  0.68928  1.0000
  C   C2643     1.0  0.89644  0.23116  0.89207  1.0000
  H   H2120     1.0  0.83482  0.05681  0.58789  1.0000
  H   H2121     1.0  0.79971  0.02104  0.61227  1.0000
  H   H2122     1.0  0.68449  0.04873  0.93488  1.0000
  C   C2644     1.0  0.92037  0.10493  0.74506  1.0000
  S   S350      1.0  0.85077  0.01452  0.69806  1.0000
  C   C2645     1.0  0.93499  0.10670  0.76062  1.0000
  C   C2646     1.0  0.94476  0.14479  0.72195  1.0000
  H   H2123     1.0  0.93658  0.17696  0.76334  1.0000
  H   H2124     1.0  0.69736  0.08104  0.94934  1.0000
  C   C2647     1.0  0.96024  0.23826  0.84216  1.0000
  H   H2125     1.0  0.97748  0.20679  0.59465  1.0000
  C   C2648     1.0  0.88117  0.01434  0.58730  1.0000
  H   H2126     1.0  0.78560  0.09848  0.55958  1.0000
  C   C2649     1.0  0.75124  0.03772  0.97998  1.0000
  H   H2127     1.0  0.70222  0.11678  0.51373  1.0000
  H   H2128     1.0  0.97856  0.09514  0.76038  1.0000
  C   C2650     1.0  0.68645  0.10614  0.56694  1.0000
  C   C2651     1.0  0.71898  0.22238  0.93439  1.0000
  C   C2652     1.0  0.94220  0.15058  0.74303  1.0000
  C   C2653     1.0  0.72816  0.01685  0.96146  1.0000
  C   C2654     1.0  0.85717  0.03866  0.60619  1.0000
  H   H2129     1.0  0.93197  0.20332  0.73413  1.0000
  C   C2655     1.0  0.94507  0.23625  0.85907  1.0000
  C   C2656     1.0  0.94167  0.15980  0.70551  1.0000
  H   H2130     1.0  0.71308  0.15104  0.55991  1.0000
  C   C2657     1.0  0.80593  0.20915  0.96888  1.0000
  H   H2131     1.0  0.78747  0.00558  0.58024  1.0000
  H   H2132     1.0  0.97859  0.16204  0.76836  1.0000
  C   C2658     1.0  0.70009  0.14069  0.56035  1.0000
  C   C2659     1.0  0.93491  0.18689  0.73079  1.0000
  C   C2660     1.0  0.92967  0.07037  0.77236  1.0000
  C   C2661     1.0  0.91595  0.06851  0.75622  1.0000
  C   C2662     1.0  0.91112  0.08585  0.74276  1.0000
  H   H2133     1.0  0.71381  0.01614  0.95319  1.0000
  H   H2134     1.0  0.87202  0.20019  0.80379  1.0000
  C   C2663     1.0  0.87211  0.02096  0.56838  1.0000
  H   H2135     1.0  0.99451  0.05856  0.75322  1.0000
  H   H2136     1.0  0.87337  0.24278  0.85393  1.0000
  C   C2664     1.0  0.71698  0.08529  0.51693  1.0000
  C   C2665     1.0  0.97306  0.23038  0.99351  1.0000
  C   C2666     1.0  0.98546  0.06479  0.64715  1.0000
  C   C2667     1.0  0.91453  0.22010  0.82454  1.0000
  H   H2137     1.0  0.68201  0.19081  0.95464  1.0000
  H   H2138     1.0  0.67808  0.07581  0.53814  1.0000
  C   C2668     1.0  0.94361  0.17819  0.50269  1.0000
  H   H2139     1.0  0.99951  0.10756  0.61655  1.0000
  C   C2669     1.0  0.87038  0.22146  0.82928  1.0000
  C   C2670     1.0  0.95077  0.22497  0.87760  1.0000
  S   S351      1.0  0.83103  0.00783  0.64172  1.0000
  H   H2140     1.0  0.85113  0.04516  0.62096  1.0000
  H   H2141     1.0  0.69731  0.01633  0.76753  1.0000
  S   S352      1.0  0.78463  0.00762  0.51192  1.0000
  C   C2671     1.0  0.67763  0.00583  0.99671  1.0000
  Fe  Fe174     1.0  0.73946  0.15316  0.99538  1.0000
  C   C2672     1.0  0.70397  0.10131  0.50730  1.0000
  H   H2142     1.0  0.90592  0.08795  0.53182  1.0000
  C   C2673     1.0  0.80714  0.00640  0.60691  1.0000
  H   H2143     1.0  0.87843  0.21808  0.91898  1.0000
  C   C2674     1.0  0.67409  0.02202  0.98143  1.0000
  H   H2144     1.0  0.89904  0.21617  0.88473  1.0000
  C   C2675     1.0  0.88094  0.20916  0.81390  1.0000
  H   H2145     1.0  0.98503  0.02301  0.74408  1.0000
  H   H2146     1.0  0.83291  0.07755  0.51175  1.0000
  P   P91       1.0  0.91865  0.24815  0.85664  1.0000
  H   H2147     1.0  0.78786  0.24234  0.51187  1.0000
  C   C2676     1.0  0.99937  0.22954  0.77985  1.0000
  C   C2677     1.0  0.99450  0.23473  0.96095  1.0000
  C   C2678     1.0  0.00124  0.09295  0.62590  1.0000
  H   H2148     1.0  0.85326  0.22202  0.83110  1.0000
  H   H2149     1.0  0.69114  0.00563  0.71536  1.0000
  C   C2679     1.0  0.99095  0.21847  0.76375  1.0000
  H   H2150     1.0  0.73531  0.00680  0.75972  1.0000
  H   H2151     1.0  0.98535  0.24046  0.65899  1.0000
  H   H2152     1.0  0.88029  0.01775  0.62097  1.0000
  C   C2680     1.0  0.99727  0.05356  0.73720  1.0000
  C   C2681     1.0  0.72189  0.23878  0.97428  1.0000
  H   H2153     1.0  0.70007  0.25067  0.92707  1.0000
  C   C2682     1.0  0.78146  0.19519  0.99649  1.0000
  H   H2154     1.0  0.87821  0.01407  0.55386  1.0000
  C   C2683     1.0  0.71045  0.25012  0.95880  1.0000
  P   P92       1.0  0.72448  0.24942  0.99979  1.0000
  S   S353      1.0  0.99817  0.13187  0.71423  1.0000
  C   C2684     1.0  0.99202  0.03351  0.73207  1.0000
  H   H2155     1.0  0.99162  0.01139  0.70775  1.0000
  C   C2685     1.0  0.99562  0.02705  0.71138  1.0000
  C   C2686     1.0  0.71943  0.06502  0.50887  1.0000
  C   C2687     1.0  0.80403  0.00393  0.75971  1.0000
  H   H2156     1.0  0.98923  0.24015  0.78921  1.0000
  H   H2157     1.0  0.00202  0.21069  0.86327  1.0000
  C   C2688     1.0  0.99619  0.23771  0.69053  1.0000
  H   H2158     1.0  0.67001  0.20480  0.98914  1.0000
  C   C2689     1.0  0.00087  0.24846  0.70819  1.0000
  H   H2159     1.0  0.99823  0.22066  0.69074  1.0000
  C   C2690     1.0  0.81860  0.41917  0.34564  1.0000
  C   C2691     1.0  0.67757  0.41111  0.16779  1.0000
  S   S354      1.0  0.71263  0.47814  0.13376  1.0000
  C   C2692     1.0  0.83313  0.44589  0.49800  1.0000
  H   H2160     1.0  0.00033  0.28681  0.08867  1.0000
  H   H2161     1.0  0.78529  0.42809  0.34624  1.0000
  H   H2162     1.0  0.98896  0.36529  0.11710  1.0000
  S   S355      1.0  0.98394  0.30033  0.16402  1.0000
  H   H2163     1.0  0.85455  0.37112  0.25777  1.0000
  Fe  Fe175     1.0  0.98870  0.29847  0.12860  1.0000
  S   S356      1.0  0.96507  0.31341  0.10528  1.0000
  C   C2693     1.0  0.97925  0.38237  0.05104  1.0000
  Fe  Fe176     1.0  0.88344  0.28200  0.01811  1.0000
  S   S357      1.0  0.90650  0.26983  0.04316  1.0000
  S   S358      1.0  0.84790  0.27889  0.02020  1.0000
  S   S359      1.0  0.82669  0.47448  0.33493  1.0000
  S   S360      1.0  0.71562  0.48134  0.03279  1.0000
  Fe  Fe177     1.0  0.68753  0.48452  0.16065  1.0000
  C   C2694     1.0  0.70865  0.38555  0.06136  1.0000
  Fe  Fe178     1.0  0.82176  0.47479  0.37050  1.0000
  S   S361      1.0  0.83540  0.45110  0.39510  1.0000
  H   H2164     1.0  0.72864  0.25193  0.44713  1.0000
  C   C2695     1.0  0.98075  0.31313  0.00528  1.0000
  C   C2696     1.0  0.95992  0.25747  0.43699  1.0000
  S   S362      1.0  0.80796  0.31491  0.46866  1.0000
  H   H2165     1.0  0.96816  0.27551  0.40856  1.0000
  H   H2166     1.0  0.87532  0.36299  0.47378  1.0000
  S   S363      1.0  0.96039  0.29297  0.48029  1.0000
  Fe  Fe179     1.0  0.80294  0.35037  0.46953  1.0000
  S   S364      1.0  0.79408  0.37066  0.44038  1.0000
  H   H2167     1.0  0.83525  0.27092  0.47145  1.0000
  H   H2168     1.0  0.80031  0.48214  0.28183  1.0000
  C   C2697     1.0  0.79986  0.42642  0.33652  1.0000
  Fe  Fe180     1.0  0.98593  0.48215  0.26507  1.0000
  C   C2698     1.0  0.69599  0.48593  0.07233  1.0000
  H   H2169     1.0  0.99107  0.34564  0.08431  1.0000
  H   H2170     1.0  0.68354  0.37685  0.08348  1.0000
  C   C2699     1.0  0.72070  0.40182  0.05263  1.0000
  H   H2171     1.0  0.74016  0.44261  0.23781  1.0000
  S   S365      1.0  0.77890  0.47710  0.01695  1.0000
  C   C2700     1.0  0.82449  0.47564  0.45714  1.0000
  C   C2701     1.0  0.69484  0.48522  0.09464  1.0000
  H   H2172     1.0  0.93322  0.39064  0.48634  1.0000
  C   C2702     1.0  0.89853  0.48782  0.31696  1.0000
  H   H2173     1.0  0.70499  0.41832  0.18394  1.0000
  H   H2174     1.0  0.78961  0.43970  0.46020  1.0000
  C   C2703     1.0  0.67283  0.29289  0.47659  1.0000
  C   C2704     1.0  0.83755  0.41799  0.33331  1.0000
  H   H2175     1.0  0.88803  0.47900  0.32758  1.0000
  C   C2705     1.0  0.82271  0.43001  0.40895  1.0000
  C   C2706     1.0  0.83332  0.41842  0.42496  1.0000
  C   C2707     1.0  0.82451  0.40060  0.43528  1.0000
  C   C2708     1.0  0.80507  0.39406  0.42949  1.0000
  C   C2709     1.0  0.79424  0.40597  0.41387  1.0000
  C   C2710     1.0  0.80288  0.42397  0.40381  1.0000
  H   H2176     1.0  0.84864  0.42301  0.42910  1.0000
  H   H2177     1.0  0.83301  0.39159  0.44725  1.0000
  H   H2178     1.0  0.77915  0.40111  0.40935  1.0000
  H   H2179     1.0  0.79444  0.43285  0.39170  1.0000
  H   H2180     1.0  0.90594  0.38371  0.46145  1.0000
  C   C2711     1.0  0.69268  0.38966  0.07702  1.0000
  S   S366      1.0  0.78853  0.48891  0.36952  1.0000
  C   C2712     1.0  0.99382  0.28433  0.22593  1.0000
  H   H2181     1.0  0.71183  0.46836  0.26497  1.0000
  C   C2713     1.0  0.70347  0.30613  0.49177  1.0000
  H   H2182     1.0  0.99846  0.36761  0.16472  1.0000
  H   H2183     1.0  0.87267  0.38474  0.22467  1.0000
  C   C2714     1.0  0.94980  0.30095  0.08730  1.0000
  C   C2715     1.0  0.93784  0.31345  0.07293  1.0000
  C   C2716     1.0  0.92520  0.30424  0.05869  1.0000
  C   C2717     1.0  0.92375  0.28239  0.05918  1.0000
  C   C2718     1.0  0.93607  0.26990  0.07323  1.0000
  C   C2719     1.0  0.94918  0.27908  0.08704  1.0000
  H   H2184     1.0  0.93821  0.33037  0.07296  1.0000
  H   H2185     1.0  0.91627  0.31399  0.04760  1.0000
  C   C2720     1.0  0.83690  0.42263  0.25941  1.0000
  H   H2186     1.0  0.95849  0.26931  0.09780  1.0000
  H   H2187     1.0  0.94536  0.27454  0.01083  1.0000
  C   C2721     1.0  0.98401  0.30176  0.25843  1.0000
  C   C2722     1.0  0.81712  0.48361  0.27880  1.0000
  H   H2188     1.0  0.96862  0.28208  0.20498  1.0000
  C   C2723     1.0  0.75545  0.44191  0.24469  1.0000
  C   C2724     1.0  0.72444  0.47823  0.26813  1.0000
  C   C2725     1.0  0.81235  0.25468  0.45533  1.0000
  H   H2189     1.0  0.80336  0.44628  0.06740  1.0000
  C   C2726     1.0  0.77016  0.28833  0.01482  1.0000
  H   H2190     1.0  0.72484  0.43047  0.15125  1.0000
  C   C2727     1.0  0.71306  0.48033  0.10569  1.0000
  C   C2728     1.0  0.73247  0.47681  0.09413  1.0000
  C   C2729     1.0  0.73368  0.47782  0.07186  1.0000
  C   C2730     1.0  0.72922  0.49506  0.25400  1.0000
  C   C2731     1.0  0.85766  0.41651  0.48924  1.0000
  H   H2191     1.0  0.72681  0.31919  0.46984  1.0000
  H   H2192     1.0  0.74671  0.47322  0.10249  1.0000
  H   H2193     1.0  0.74871  0.47490  0.06327  1.0000
  H   H2194     1.0  0.75050  0.27869  0.46126  1.0000
  H   H2195     1.0  0.81858  0.41504  0.36238  1.0000
  C   C2732     1.0  0.80004  0.43241  0.31503  1.0000
  C   C2733     1.0  0.74189  0.26819  0.47193  1.0000
  H   H2196     1.0  0.83302  0.39963  0.02736  1.0000
  H   H2197     1.0  0.83148  0.39494  0.27967  1.0000
  H   H2198     1.0  0.78102  0.40435  0.00965  1.0000
  C   C2734     1.0  0.80665  0.47495  0.47129  1.0000
  C   C2735     1.0  0.85056  0.26539  0.42783  1.0000
  H   H2199     1.0  0.79977  0.46929  0.24385  1.0000
  H   H2200     1.0  0.92001  0.49395  0.35607  1.0000
  H   H2201     1.0  0.80472  0.42696  0.03432  1.0000
  H   H2202     1.0  0.77838  0.27844  0.43582  1.0000
  Fe  Fe181     1.0  0.83201  0.31845  0.49294  1.0000
  C   C2736     1.0  0.87948  0.49015  0.46055  1.0000
  H   H2203     1.0  0.84412  0.44638  0.23496  1.0000
  C   C2737     1.0  0.83060  0.46576  0.27512  1.0000
  C   C2738     1.0  0.81897  0.43098  0.30247  1.0000
  H   H2204     1.0  0.73301  0.39868  0.04044  1.0000
  C   C2739     1.0  0.70209  0.26764  0.00553  1.0000
  H   H2205     1.0  0.98792  0.30702  0.27360  1.0000
  C   C2740     1.0  0.71536  0.48203  0.06080  1.0000
  H   H2206     1.0  0.76508  0.47032  0.22820  1.0000
  C   C2741     1.0  0.85951  0.41644  0.22785  1.0000
  S   S367      1.0  0.99980  0.43318  0.20259  1.0000
  C   C2742     1.0  0.78881  0.43890  0.49454  1.0000
  H   H2207     1.0  0.92338  0.46315  0.31611  1.0000
  C   C2743     1.0  0.88785  0.29425  0.49211  1.0000
  H   H2208     1.0  0.86724  0.42234  0.21328  1.0000
  H   H2209     1.0  0.78552  0.43879  0.30851  1.0000
  Fe  Fe182     1.0  0.78336  0.31327  0.49564  1.0000
  C   C2744     1.0  0.99891  0.39609  0.18201  1.0000
  P   P93       1.0  0.81987  0.44016  0.27512  1.0000
  C   C2745     1.0  0.97303  0.28777  0.21980  1.0000
  H   H2210     1.0  0.71172  0.36974  0.05596  1.0000
  H   H2211     1.0  0.75382  0.39112  0.49091  1.0000
  C   C2746     1.0  0.74297  0.26998  0.49371  1.0000
  C   C2747     1.0  0.89441  0.27039  0.42570  1.0000
  Fe  Fe183     1.0  0.84596  0.31104  0.00335  1.0000
  S   S368      1.0  0.76689  0.48011  0.31435  1.0000
  H   H2212     1.0  0.90150  0.49268  0.43355  1.0000
  C   C2748     1.0  0.81670  0.42354  0.04570  1.0000
  C   C2749     1.0  0.92267  0.27583  0.49536  1.0000
  C   C2750     1.0  0.96032  0.26188  0.41525  1.0000
  C   C2751     1.0  0.79445  0.44115  0.26357  1.0000
  H   H2213     1.0  0.67672  0.25659  0.45223  1.0000
  S   S369      1.0  0.68909  0.46401  0.19066  1.0000
  H   H2214     1.0  0.74996  0.41355  0.26345  1.0000
  H   H2215     1.0  0.67212  0.29725  0.44264  1.0000
  C   C2752     1.0  0.75292  0.48633  0.29080  1.0000
  S   S370      1.0  0.88098  0.31497  0.00410  1.0000
  H   H2216     1.0  0.96292  0.33486  0.03893  1.0000
  H   H2217     1.0  0.77227  0.29964  0.02662  1.0000
  C   C2753     1.0  0.89551  0.49207  0.38093  1.0000
  C   C2754     1.0  0.68289  0.26037  0.01442  1.0000
  P   P94       1.0  0.80741  0.45928  0.49582  1.0000
  H   H2218     1.0  0.84850  0.29409  0.44509  1.0000
  C   C2755     1.0  0.79488  0.39510  0.00410  1.0000
  C   C2756     1.0  0.83945  0.40119  0.26539  1.0000
  H   H2219     1.0  0.70658  0.31365  0.43839  1.0000
  C   C2757     1.0  0.78343  0.43230  0.47479  1.0000
  H   H2220     1.0  0.80861  0.48580  0.08399  1.0000
  C   C2758     1.0  0.85239  0.38760  0.25293  1.0000
  C   C2759     1.0  0.93266  0.49005  0.29668  1.0000
  H   H2221     1.0  0.91131  0.27226  0.42513  1.0000
  C   C2760     1.0  0.83779  0.42399  0.31184  1.0000
  H   H2222     1.0  0.86112  0.40218  0.48094  1.0000
  C   C2761     1.0  0.96603  0.36575  0.04984  1.0000
  H   H2223     1.0  0.87764  0.48944  0.27133  1.0000
  C   C2762     1.0  0.83813  0.42743  0.48713  1.0000
  H   H2224     1.0  0.89556  0.47505  0.38124  1.0000
  H   H2225     1.0  0.76003  0.31277  0.42784  1.0000
  H   H2226     1.0  0.92733  0.32376  0.47038  1.0000
  H   H2227     1.0  0.70919  0.42971  0.11693  1.0000
  C   C2763     1.0  0.84653  0.43005  0.24025  1.0000
  S   S371      1.0  0.85991  0.29404  0.49632  1.0000
  C   C2764     1.0  0.67405  0.49878  0.30472  1.0000
  H   H2228     1.0  0.85274  0.42368  0.30268  1.0000
  C   C2765     1.0  0.83319  0.33398  0.06192  1.0000
  C   C2766     1.0  0.84805  0.31737  0.06552  1.0000
  C   C2767     1.0  0.86953  0.32112  0.06477  1.0000
  C   C2768     1.0  0.87619  0.34149  0.06033  1.0000
  C   C2769     1.0  0.86133  0.35834  0.05670  1.0000
  C   C2770     1.0  0.83976  0.35434  0.05731  1.0000
  P   P95       1.0  0.87006  0.38451  0.05003  1.0000
  C   C2771     1.0  0.89238  0.38933  0.06519  1.0000
  C   C2772     1.0  0.87790  0.38676  0.02219  1.0000
  C   C2773     1.0  0.95271  0.28870  0.00471  1.0000
  C   C2774     1.0  0.78904  0.45711  0.24849  1.0000
  H   H2229     1.0  0.77940  0.34132  0.40889  1.0000
  H   H2230     1.0  0.94182  0.30107  0.22781  1.0000
  H   H2231     1.0  0.73931  0.28049  0.02737  1.0000
  C   C2775     1.0  0.90766  0.40308  0.05707  1.0000
  C   C2776     1.0  0.92489  0.40691  0.06886  1.0000
  C   C2777     1.0  0.92706  0.39693  0.08875  1.0000
  C   C2778     1.0  0.91186  0.38332  0.09699  1.0000
  C   C2779     1.0  0.89445  0.37972  0.08539  1.0000
  C   C2780     1.0  0.84876  0.40383  0.05600  1.0000
  C   C2781     1.0  0.84789  0.41477  0.07475  1.0000
  C   C2782     1.0  0.83154  0.43001  0.07885  1.0000
  C   C2783     1.0  0.81601  0.43446  0.06429  1.0000
  C   C2784     1.0  0.85253  0.46792  0.27276  1.0000
  C   C2785     1.0  0.83286  0.40816  0.04169  1.0000
  H   H2232     1.0  0.81658  0.33093  0.06170  1.0000
  H   H2233     1.0  0.84296  0.30150  0.06841  1.0000
  H   H2234     1.0  0.88098  0.30807  0.06728  1.0000
  H   H2235     1.0  0.89295  0.34399  0.05947  1.0000
  H   H2236     1.0  0.82793  0.36667  0.05373  1.0000
  H   H2237     1.0  0.88910  0.35422  0.02013  1.0000
  H   H2238     1.0  0.88688  0.29810  0.44331  1.0000
  C   C2786     1.0  0.72933  0.25305  0.46400  1.0000
  H   H2239     1.0  0.73220  0.46086  0.29698  1.0000
  C   C2787     1.0  0.89771  0.31117  0.48178  1.0000
  H   H2240     1.0  0.90626  0.41093  0.04170  1.0000
  H   H2241     1.0  0.93653  0.41765  0.06257  1.0000
  H   H2242     1.0  0.94046  0.39977  0.09787  1.0000
  H   H2243     1.0  0.91354  0.37557  0.11242  1.0000
  H   H2244     1.0  0.88265  0.36940  0.09222  1.0000
  H   H2245     1.0  0.85974  0.41157  0.08622  1.0000
  H   H2246     1.0  0.83090  0.43836  0.09335  1.0000
  Fe  Fe184     1.0  0.00043  0.26787  0.16614  1.0000
  C   C2788     1.0  0.85885  0.28250  0.43709  1.0000
  H   H2247     1.0  0.86341  0.45430  0.27115  1.0000
  H   H2248     1.0  0.68174  0.48927  0.06397  1.0000
  H   H2249     1.0  0.81705  0.33518  0.39734  1.0000
  H   H2250     1.0  0.85216  0.41305  0.34060  1.0000
  S   S372      1.0  0.98207  0.48522  0.23000  1.0000
  H   H2251     1.0  0.69853  0.44212  0.08081  1.0000
  C   C2789     1.0  0.86254  0.39525  0.23425  1.0000
  C   C2790     1.0  0.88718  0.36615  0.48466  1.0000
  H   H2252     1.0  0.83696  0.48697  0.42664  1.0000
  C   C2791     1.0  0.68084  0.29948  0.45644  1.0000
  C   C2792     1.0  0.99950  0.29153  0.24521  1.0000
  C   C2793     1.0  0.80444  0.49755  0.43230  1.0000
  C   C2794     1.0  0.78045  0.42514  0.26848  1.0000
  C   C2795     1.0  0.86069  0.48782  0.27285  1.0000
  S   S373      1.0  0.82883  0.35416  0.49184  1.0000
  Fe  Fe185     1.0  0.98584  0.26721  0.48820  1.0000
  C   C2796     1.0  0.70026  0.30894  0.45398  1.0000
  C   C2797     1.0  0.70934  0.42433  0.15037  1.0000
  C   C2798     1.0  0.73617  0.47394  0.28630  1.0000
  S   S374      1.0  0.77680  0.34839  0.49498  1.0000
  H   H2253     1.0  0.84475  0.49260  0.01181  1.0000
  H   H2254     1.0  0.93522  0.25300  0.07359  1.0000
  H   H2255     1.0  0.83568  0.30082  0.40481  1.0000
  C   C2799     1.0  0.78755  0.48527  0.46543  1.0000
  C   C2800     1.0  0.68597  0.30325  0.00416  1.0000
  C   C2801     1.0  0.70033  0.42394  0.13084  1.0000
  C   C2802     1.0  0.67997  0.41671  0.12960  1.0000
  H   H2256     1.0  0.72615  0.43489  0.05289  1.0000
  H   H2257     1.0  0.95153  0.31351  0.26221  1.0000
  H   H2258     1.0  0.95018  0.36667  0.05722  1.0000
  Fe  Fe186     1.0  0.68900  0.49390  0.20815  1.0000
  H   H2259     1.0  0.98848  0.40510  0.17168  1.0000
  C   C2803     1.0  0.99974  0.38098  0.04171  1.0000
  H   H2260     1.0  0.78455  0.41233  0.27957  1.0000
  C   C2804     1.0  0.97149  0.29449  0.01274  1.0000
  C   C2805     1.0  0.76093  0.42564  0.25923  1.0000
  H   H2261     1.0  0.87062  0.49510  0.40522  1.0000
  H   H2262     1.0  0.99376  0.25606  0.26846  1.0000
  Fe  Fe187     1.0  0.74467  0.48147  0.00949  1.0000
  C   C2806     1.0  0.96332  0.30535  0.25211  1.0000
  C   C2807     1.0  0.93252  0.29287  0.48513  1.0000
  C   C2808     1.0  0.77071  0.41528  0.47355  1.0000
  C   C2809     1.0  0.81576  0.36140  0.00374  1.0000
  S   S375      1.0  0.95828  0.47813  0.29002  1.0000
  C   C2810     1.0  0.88065  0.28492  0.43604  1.0000
  C   C2811     1.0  0.91975  0.38172  0.49174  1.0000
  C   C2812     1.0  0.80855  0.28714  0.42143  1.0000
  C   C2813     1.0  0.78652  0.49664  0.44609  1.0000
  C   C2814     1.0  0.91989  0.31053  0.47839  1.0000
  C   C2815     1.0  0.81920  0.30311  0.40996  1.0000
  C   C2816     1.0  0.80864  0.32255  0.40541  1.0000
  C   C2817     1.0  0.78735  0.32601  0.41185  1.0000
  C   C2818     1.0  0.77647  0.30997  0.42260  1.0000
  C   C2819     1.0  0.78699  0.29056  0.42726  1.0000
  H   H2263     1.0  0.97828  0.28468  0.02523  1.0000
  H   H2264     1.0  0.78592  0.36659  0.02125  1.0000
  H   H2265     1.0  0.88816  0.32450  0.47596  1.0000
  C   C2820     1.0  0.91862  0.47887  0.31042  1.0000
  C   C2821     1.0  0.67201  0.47703  0.30652  1.0000
  H   H2266     1.0  0.87697  0.47372  0.45847  1.0000
  Fe  Fe188     1.0  0.79392  0.49094  0.33384  1.0000
  C   C2822     1.0  0.88664  0.36916  0.01169  1.0000
  S   S376      1.0  0.81868  0.33455  0.01269  1.0000
  C   C2823     1.0  0.90442  0.37781  0.47772  1.0000
  P   P96       1.0  0.82224  0.26249  0.42896  1.0000
  H   H2267     1.0  0.77338  0.48430  0.47573  1.0000
  C   C2824     1.0  0.75155  0.27751  0.01511  1.0000
  C   C2825     1.0  0.70107  0.42629  0.07540  1.0000
  C   C2826     1.0  0.76952  0.45758  0.23927  1.0000
  C   C2827     1.0  0.71689  0.42219  0.05966  1.0000
  C   C2828     1.0  0.71158  0.31222  0.47165  1.0000
  C   C2829     1.0  0.88633  0.25341  0.41631  1.0000
  C   C2830     1.0  0.97334  0.34768  0.03944  1.0000
  C   C2831     1.0  0.82336  0.48695  0.43778  1.0000
  C   C2832     1.0  0.95784  0.29837  0.23277  1.0000
  C   C2833     1.0  0.79774  0.37369  0.01070  1.0000
  H   H2268     1.0  0.80600  0.26500  0.38628  1.0000
  H   H2269     1.0  0.96760  0.26760  0.44696  1.0000
  C   C2834     1.0  0.69809  0.41768  0.16880  1.0000
  H   H2270     1.0  0.76709  0.40995  0.45827  1.0000
  C   C2835     1.0  0.68415  0.29658  0.49428  1.0000
  H   H2271     1.0  0.67985  0.48811  0.10327  1.0000
  H   H2272     1.0  0.82689  0.42128  0.47714  1.0000
  H   H2273     1.0  0.83909  0.46699  0.46065  1.0000
  H   H2274     1.0  0.86909  0.42009  0.01852  1.0000
  C   C2836     1.0  0.68865  0.41014  0.08405  1.0000
  C   C2837     1.0  0.81303  0.25687  0.49339  1.0000
  C   C2838     1.0  0.87547  0.40614  0.01081  1.0000
  C   C2839     1.0  0.76334  0.40456  0.49193  1.0000
  C   C2840     1.0  0.79673  0.49838  0.08133  1.0000
  H   H2275     1.0  0.85796  0.49232  0.48783  1.0000
  C   C2841     1.0  0.82166  0.26152  0.47309  1.0000
  H   H2276     1.0  0.97370  0.39624  0.05938  1.0000
  H   H2277     1.0  0.80090  0.49811  0.04746  1.0000
  H   H2278     1.0  0.99934  0.27043  0.37104  1.0000
  C   C2842     1.0  0.99399  0.34605  0.03009  1.0000
  H   H2279     1.0  0.98792  0.31226  0.06141  1.0000
  H   H2280     1.0  0.67340  0.46872  0.32169  1.0000
  S   S377      1.0  0.00259  0.26510  0.13062  1.0000
  C   C2843     1.0  0.00154  0.30186  0.05766  1.0000
  C   C2844     1.0  0.86889  0.50067  0.47725  1.0000
  C   C2845     1.0  0.89328  0.50083  0.44647  1.0000
  H   H2281     1.0  0.95141  0.25178  0.38533  1.0000
  H   H2282     1.0  0.93216  0.26217  0.50071  1.0000
  H   H2283     1.0  0.67494  0.25103  0.50145  1.0000
  C   C2846     1.0  0.90046  0.27657  0.49884  1.0000
  H   H2284     1.0  0.92904  0.38574  0.60555  1.0000
  H   H2285     1.0  0.88822  0.47717  0.54865  1.0000
  C   C2847     1.0  0.85995  0.49197  0.56281  1.0000
  S   S378      1.0  0.69285  0.46496  0.85705  1.0000
  H   H2286     1.0  0.73339  0.46590  0.83467  1.0000
  H   H2287     1.0  0.88740  0.41518  0.50408  1.0000
  H   H2288     1.0  0.68617  0.30675  0.95716  1.0000
  S   S379      1.0  0.84821  0.29798  0.97108  1.0000
  Fe  Fe189     1.0  0.88342  0.29966  0.97279  1.0000
  S   S380      1.0  0.90373  0.31569  0.94674  1.0000
  C   C2848     1.0  0.82766  0.44168  0.74444  1.0000
  C   C2849     1.0  0.93106  0.28156  0.93690  1.0000
  H   H2289     1.0  0.94082  0.25188  0.76550  1.0000
  C   C2850     1.0  0.73070  0.49682  0.73423  1.0000
  S   S381      1.0  0.97714  0.26846  0.89168  1.0000
  Fe  Fe190     1.0  0.83103  0.45980  0.62004  1.0000
  S   S382      1.0  0.80561  0.48595  0.62042  1.0000
  S   S383      1.0  0.84003  0.44169  0.59008  1.0000
  Fe  Fe191     1.0  0.84972  0.47463  0.66085  1.0000
  C   C2851     1.0  0.99344  0.37770  0.78182  1.0000
  Fe  Fe192     1.0  0.80166  0.47905  0.65590  1.0000
  S   S384      1.0  0.76896  0.47518  0.67349  1.0000
  S   S385      1.0  0.82553  0.45121  0.65485  1.0000
  C   C2852     1.0  0.98875  0.30901  0.93680  1.0000
  Fe  Fe193     1.0  0.80281  0.35045  0.51727  1.0000
  S   S386      1.0  0.79477  0.36903  0.54692  1.0000
  S   S387      1.0  0.80756  0.31522  0.51983  1.0000
  Fe  Fe194     1.0  0.99055  0.48127  0.72763  1.0000
  C   C2853     1.0  0.00307  0.25234  0.99204  1.0000
  S   S388      1.0  0.97013  0.48163  0.69885  1.0000
  C   C2854     1.0  0.80049  0.47889  0.55663  1.0000
  H   H2290     1.0  0.90691  0.32088  0.58137  1.0000
  S   S389      1.0  0.79028  0.48757  0.96677  1.0000
  C   C2855     1.0  0.99758  0.29165  0.94814  1.0000
  H   H2291     1.0  0.71762  0.29512  0.99239  1.0000
  H   H2292     1.0  0.92357  0.27318  0.95024  1.0000
  H   H2293     1.0  0.98830  0.29858  0.68997  1.0000
  C   C2856     1.0  0.82685  0.42191  0.57803  1.0000
  C   C2857     1.0  0.80856  0.41340  0.58731  1.0000
  C   C2858     1.0  0.79894  0.39739  0.57740  1.0000
  C   C2859     1.0  0.80743  0.38967  0.55813  1.0000
  C   C2860     1.0  0.82557  0.39839  0.54865  1.0000
  C   C2861     1.0  0.83518  0.41444  0.55856  1.0000
  H   H2294     1.0  0.80194  0.41897  0.60224  1.0000
  H   H2295     1.0  0.78490  0.39077  0.58484  1.0000
  H   H2296     1.0  0.83220  0.39272  0.53376  1.0000
  H   H2297     1.0  0.84911  0.42113  0.55109  1.0000
  S   S390      1.0  0.99115  0.33860  0.80233  1.0000
  C   C2862     1.0  0.91261  0.47889  0.67356  1.0000
  H   H2298     1.0  0.88214  0.42252  0.57170  1.0000
  C   C2863     1.0  0.94285  0.47746  0.69623  1.0000
  H   H2299     1.0  0.76507  0.41712  0.72859  1.0000
  H   H2300     1.0  0.93584  0.46759  0.72859  1.0000
  H   H2301     1.0  0.84361  0.43664  0.74841  1.0000
  H   H2302     1.0  0.89261  0.39071  0.96183  1.0000
  H   H2303     1.0  0.76881  0.48195  0.76457  1.0000
  C   C2864     1.0  0.96459  0.29330  0.78373  1.0000
  C   C2865     1.0  0.92436  0.30238  0.93183  1.0000
  C   C2866     1.0  0.93419  0.31301  0.91436  1.0000
  C   C2867     1.0  0.95043  0.30286  0.90191  1.0000
  C   C2868     1.0  0.95701  0.28200  0.90691  1.0000
  H   H2304     1.0  0.92907  0.32911  0.91034  1.0000
  H   H2305     1.0  0.95784  0.31114  0.88846  1.0000
  H   H2306     1.0  0.97292  0.31986  0.73032  1.0000
  Fe  Fe195     1.0  0.67928  0.48034  0.82687  1.0000
  C   C2869     1.0  0.99520  0.36608  0.80113  1.0000
  H   H2307     1.0  0.91832  0.49733  0.90683  1.0000
  C   C2870     1.0  0.00090  0.41010  0.79825  1.0000
  H   H2308     1.0  0.84593  0.45375  0.95839  1.0000
  C   C2871     1.0  0.78668  0.45465  0.73381  1.0000
  S   S391      1.0  0.74835  0.46085  0.98117  1.0000
  C   C2872     1.0  0.75452  0.48430  0.69677  1.0000
  C   C2873     1.0  0.73528  0.47531  0.70327  1.0000
  C   C2874     1.0  0.72350  0.48146  0.72180  1.0000
  H   H2309     1.0  0.72947  0.46335  0.69394  1.0000
  H   H2310     1.0  0.70870  0.47447  0.72633  1.0000
  C   C2875     1.0  0.70743  0.47562  0.87689  1.0000
  H   H2311     1.0  0.93748  0.27641  0.79490  1.0000
  H   H2312     1.0  0.67817  0.29213  0.51006  1.0000
  H   H2313     1.0  0.84484  0.46774  0.51914  1.0000
  C   C2876     1.0  0.72271  0.47120  0.91166  1.0000
  C   C2877     1.0  0.71157  0.46331  0.89536  1.0000
  H   H2314     1.0  0.67673  0.32763  0.92482  1.0000
  H   H2315     1.0  0.87208  0.34877  0.51041  1.0000
  H   H2316     1.0  0.72548  0.46161  0.92584  1.0000
  H   H2317     1.0  0.70598  0.44758  0.89716  1.0000
  C   C2878     1.0  0.81041  0.43681  0.75818  1.0000
  C   C2879     1.0  0.74911  0.42176  0.73423  1.0000
  C   C2880     1.0  0.76531  0.25889  0.98442  1.0000
  C   C2881     1.0  0.73232  0.41851  0.72165  1.0000
  H   H2318     1.0  0.96303  0.30422  0.79637  1.0000
  C   C2882     1.0  0.71160  0.42444  0.72854  1.0000
  H   H2319     1.0  0.90749  0.28292  0.88536  1.0000
  C   C2883     1.0  0.82439  0.45278  0.72531  1.0000
  H   H2320     1.0  0.87824  0.42238  0.98033  1.0000
  C   C2884     1.0  0.00041  0.31859  0.92007  1.0000
  C   C2885     1.0  0.95202  0.26397  0.76628  1.0000
  C   C2886     1.0  0.70765  0.43362  0.74801  1.0000
  C   C2887     1.0  0.96843  0.26571  0.75070  1.0000
  H   H2321     1.0  0.81993  0.26296  0.50693  1.0000
  P   P97       1.0  0.89924  0.35111  0.54646  1.0000
  H   H2322     1.0  0.98981  0.36977  0.76792  1.0000
  H   H2323     1.0  0.84861  0.29546  0.54472  1.0000
  C   C2888     1.0  0.89198  0.37061  0.99001  1.0000
  C   C2889     1.0  0.92050  0.27429  0.84458  1.0000
  C   C2890     1.0  0.93698  0.28668  0.84941  1.0000
  C   C2891     1.0  0.93869  0.30689  0.84013  1.0000
  C   C2892     1.0  0.92385  0.31495  0.82604  1.0000
  C   C2893     1.0  0.90718  0.30286  0.82136  1.0000
  C   C2894     1.0  0.90545  0.28261  0.83062  1.0000
  H   H2324     1.0  0.82040  0.31437  0.56645  1.0000
  H   H2325     1.0  0.77049  0.35927  0.78683  1.0000
  C   C2895     1.0  0.87241  0.42390  0.50217  1.0000
  H   H2326     1.0  0.97258  0.31460  0.94055  1.0000
  H   H2327     1.0  0.81062  0.45055  0.54143  1.0000
  H   H2328     1.0  0.87957  0.39351  0.54765  1.0000
  C   C2896     1.0  0.76880  0.41075  0.51159  1.0000
  H   H2329     1.0  0.78588  0.43170  0.52833  1.0000
  H   H2330     1.0  0.94854  0.28072  0.86037  1.0000
  H   H2331     1.0  0.95160  0.31628  0.84382  1.0000
  H   H2332     1.0  0.92531  0.33060  0.81881  1.0000
  H   H2333     1.0  0.89559  0.30922  0.81056  1.0000
  H   H2334     1.0  0.89238  0.27357  0.82686  1.0000
  C   C2897     1.0  0.71480  0.49592  0.87485  1.0000
  C   C2898     1.0  0.84607  0.47101  0.98663  1.0000
  H   H2335     1.0  0.79652  0.26662  0.97236  1.0000
  S   S392      1.0  0.98971  0.28213  0.82934  1.0000
  H   H2336     1.0  0.98356  0.48903  0.83324  1.0000
  C   C2899     1.0  0.92951  0.47075  0.71325  1.0000
  C   C2900     1.0  0.82809  0.39217  0.98355  1.0000
  H   H2337     1.0  0.78958  0.36217  0.81949  1.0000
  C   C2901     1.0  0.77454  0.37455  0.79161  1.0000
  C   C2902     1.0  0.88917  0.26956  0.91145  1.0000
  H   H2338     1.0  0.80141  0.46784  0.70512  1.0000
  C   C2903     1.0  0.83092  0.37078  0.99010  1.0000
  C   C2904     1.0  0.90111  0.26862  0.89224  1.0000
  H   H2339     1.0  0.84276  0.45744  0.99699  1.0000
  H   H2340     1.0  0.73543  0.41166  0.70642  1.0000
  C   C2905     1.0  0.97040  0.32620  0.99019  1.0000
  H   H2341     1.0  0.67885  0.27105  0.77847  1.0000
  C   C2906     1.0  0.78147  0.42782  0.51293  1.0000
  C   C2907     1.0  0.70329  0.28916  0.99994  1.0000
  Fe  Fe196     1.0  0.85183  0.26597  0.98771  1.0000
  C   C2908     1.0  0.78382  0.26983  0.98414  1.0000
  C   C2909     1.0  0.93423  0.48143  0.67638  1.0000
  H   H2342     1.0  0.98796  0.28434  0.96073  1.0000
  H   H2343     1.0  0.85137  0.48489  0.93441  1.0000
  C   C2910     1.0  0.85099  0.48661  0.95130  1.0000
  H   H2344     1.0  0.76067  0.39099  0.76518  1.0000
  C   C2911     1.0  0.79514  0.49679  0.51612  1.0000
  H   H2345     1.0  0.76375  0.40188  0.52581  1.0000
  C   C2912     1.0  0.67195  0.30368  0.94945  1.0000
  C   C2913     1.0  0.80162  0.47536  0.51855  1.0000
  H   H2346     1.0  0.84483  0.36155  0.98458  1.0000
  C   C2914     1.0  0.94731  0.27142  0.92446  1.0000
  C   C2915     1.0  0.88893  0.38977  0.97871  1.0000
  C   C2916     1.0  0.95013  0.27774  0.78281  1.0000
  H   H2347     1.0  0.99515  0.40824  0.76537  1.0000
  H   H2348     1.0  0.94437  0.48659  0.66310  1.0000
  C   C2917     1.0  0.84728  0.49076  0.99497  1.0000
  C   C2918     1.0  0.95172  0.32023  0.98204  1.0000
  C   C2919     1.0  0.80393  0.45935  0.72005  1.0000
  C   C2920     1.0  0.88085  0.40757  0.98914  1.0000
  C   C2921     1.0  0.78971  0.44308  0.75283  1.0000
  H   H2349     1.0  0.93286  0.29076  0.58599  1.0000
  C   C2922     1.0  0.73115  0.25645  0.50736  1.0000
  C   C2923     1.0  0.93415  0.32462  0.53359  1.0000
  C   C2924     1.0  0.81014  0.40450  0.99055  1.0000
  C   C2925     1.0  0.98125  0.29482  0.76844  1.0000
  H   H2350     1.0  0.70283  0.26533  0.96195  1.0000
  H   H2351     1.0  0.87908  0.44810  0.52294  1.0000
  H   H2352     1.0  0.79893  0.39716  0.83036  1.0000
  H   H2353     1.0  0.82617  0.34966  0.57886  1.0000
  H   H2354     1.0  0.88635  0.28443  0.91904  1.0000
  Fe  Fe197     1.0  0.99614  0.28296  0.86382  1.0000
  C   C2926     1.0  0.94840  0.29545  0.55526  1.0000
  H   H2355     1.0  0.95956  0.28202  0.55714  1.0000
  H   H2356     1.0  0.83992  0.39921  0.97298  1.0000
  C   C2927     1.0  0.76174  0.47813  0.78008  1.0000
  C   C2928     1.0  0.74865  0.45286  0.80665  1.0000
  H   H2357     1.0  0.97649  0.34123  0.98505  1.0000
  H   H2358     1.0  0.74555  0.43690  0.81197  1.0000
  H   H2359     1.0  0.92830  0.29699  0.98316  1.0000
  H   H2360     1.0  0.86031  0.48207  0.57717  1.0000
  H   H2361     1.0  0.78938  0.42914  0.80879  1.0000
  H   H2362     1.0  0.96331  0.49220  0.86766  1.0000
  H   H2363     1.0  0.90629  0.48201  0.65821  1.0000
  C   C2929     1.0  0.77414  0.41250  0.78545  1.0000
  H   H2364     1.0  0.90674  0.41871  0.60063  1.0000
  H   H2365     1.0  0.72106  0.44460  0.77532  1.0000
  H   H2366     1.0  0.92644  0.35646  0.58209  1.0000
  C   C2930     1.0  0.91834  0.38738  0.59281  1.0000
  H   H2367     1.0  0.89784  0.46272  0.72363  1.0000
  C   C2931     1.0  0.79058  0.39589  0.81611  1.0000
  C   C2932     1.0  0.69199  0.49770  0.96196  1.0000
  S   S393      1.0  0.85699  0.48097  0.62631  1.0000
  C   C2933     1.0  0.89062  0.39171  0.56008  1.0000
  C   C2934     1.0  0.99649  0.39953  0.78032  1.0000
  S   S394      1.0  0.88758  0.26676  0.98662  1.0000
  C   C2935     1.0  0.78531  0.37618  0.80999  1.0000
  C   C2936     1.0  0.80458  0.46667  0.53901  1.0000
  C   C2937     1.0  0.98333  0.28104  0.75175  1.0000
  C   C2938     1.0  0.86773  0.44246  0.51277  1.0000
  S   S395      1.0  0.87195  0.46827  0.68801  1.0000
  S   S396      1.0  0.68281  0.46439  0.79566  1.0000
  C   C2939     1.0  0.94881  0.30759  0.53638  1.0000
  H   H2368     1.0  0.77092  0.45975  0.72945  1.0000
  H   H2369     1.0  0.96028  0.30353  0.52370  1.0000
  C   C2940     1.0  0.76898  0.39263  0.77935  1.0000
  H   H2370     1.0  0.88248  0.31155  0.53579  1.0000
  H   H2371     1.0  0.69161  0.43849  0.75325  1.0000
  C   C2941     1.0  0.89208  0.40820  0.57359  1.0000
  P   P98       1.0  0.76705  0.43597  0.76973  1.0000
  C   C2942     1.0  0.78625  0.28453  0.99929  1.0000
  H   H2372     1.0  0.93446  0.33320  0.51849  1.0000
  H   H2373     1.0  0.70776  0.49010  0.96114  1.0000
  C   C2943     1.0  0.87398  0.33991  0.55262  1.0000
  C   C2944     1.0  0.90262  0.37269  0.56319  1.0000
  C   C2945     1.0  0.91674  0.37075  0.57948  1.0000
  H   H2374     1.0  0.75591  0.48140  0.63008  1.0000
  C   C2946     1.0  0.90589  0.40602  0.58999  1.0000
  C   C2947     1.0  0.74152  0.46929  0.81953  1.0000
  C   C2948     1.0  0.84793  0.46893  0.96481  1.0000
  C   C2949     1.0  0.85790  0.35051  0.56484  1.0000
  C   C2950     1.0  0.83872  0.34123  0.56985  1.0000
  C   C2951     1.0  0.83545  0.32132  0.56283  1.0000
  C   C2952     1.0  0.85132  0.31069  0.55063  1.0000
  C   C2953     1.0  0.87048  0.31994  0.54550  1.0000
  C   C2954     1.0  0.90081  0.36179  0.51962  1.0000
  C   C2955     1.0  0.78508  0.41398  0.80388  1.0000
  H   H2375     1.0  0.71247  0.30842  0.50541  1.0000
  C   C2956     1.0  0.74530  0.43127  0.75370  1.0000
  C   C2957     1.0  0.90793  0.46804  0.71038  1.0000
  Fe  Fe198     1.0  0.68797  0.49661  0.78050  1.0000
  H   H2376     1.0  0.89807  0.35674  0.98187  1.0000
  Fe  Fe199     1.0  0.78320  0.45871  0.98745  1.0000
  C   C2958     1.0  0.75917  0.45714  0.78695  1.0000
  H   H2377     1.0  0.83769  0.45618  0.71448  1.0000
  H   H2378     1.0  0.69862  0.42217  0.71868  1.0000
  H   H2379     1.0  0.85984  0.36592  0.57056  1.0000
  C   C2959     1.0  0.88106  0.25136  0.92107  1.0000
  C   C2960     1.0  0.72994  0.49157  0.90968  1.0000
  C   C2961     1.0  0.72443  0.43710  0.76051  1.0000
  C   C2962     1.0  0.93336  0.30039  0.57147  1.0000
  C   C2963     1.0  0.91790  0.37386  0.51266  1.0000
  C   C2964     1.0  0.91910  0.32985  0.54990  1.0000
  H   H2380     1.0  0.80314  0.47201  0.57227  1.0000
  H   H2381     1.0  0.93001  0.37681  0.52333  1.0000
  C   C2965     1.0  0.91874  0.31748  0.56881  1.0000
  H   H2382     1.0  0.81335  0.42801  0.77276  1.0000
  C   C2966     1.0  0.89931  0.47209  0.69054  1.0000
  C   C2967     1.0  0.87558  0.48915  0.54665  1.0000
  H   H2383     1.0  0.94375  0.33022  0.97032  1.0000
  H   H2384     1.0  0.97639  0.35808  0.72468  1.0000
  H   H2385     1.0  0.68973  0.49738  0.99591  1.0000
  S   S397      1.0  0.80840  0.43173  0.98280  1.0000
  C   C2968     1.0  0.94294  0.30146  0.98925  1.0000
  S   S398      1.0  0.97910  0.48616  0.76138  1.0000
  Fe  Fe200     1.0  0.75523  0.49064  0.96207  1.0000
  H   H2386     1.0  0.99335  0.33170  0.91098  1.0000
  H   H2387     1.0  0.73173  0.25768  0.52424  1.0000
  C   C2969     1.0  0.84820  0.45350  0.51065  1.0000
  H   H2388     1.0  0.89303  0.26336  0.50690  1.0000
  H   H2389     1.0  0.89069  0.50014  0.93568  1.0000
  C   C2970     1.0  0.99978  0.37662  0.81896  1.0000
  H   H2390     1.0  0.80072  0.29285  0.99911  1.0000
  H   H2391     1.0  0.75153  0.48393  0.59151  1.0000
  C   C2971     1.0  0.75385  0.49669  0.62200  1.0000
  S   S399      1.0  0.75828  0.28901  0.50480  1.0000
  H   H2392     1.0  0.95230  0.25527  0.92839  1.0000
  C   C2972     1.0  0.74886  0.26287  0.99974  1.0000
  C   C2973     1.0  0.88535  0.35812  0.50553  1.0000
  H   H2393     1.0  0.88780  0.50004  0.51620  1.0000
  H   H2394     1.0  0.87193  0.25213  0.93605  1.0000
  H   H2395     1.0  0.00080  0.36799  0.83395  1.0000
  C   C2974     1.0  0.75440  0.49453  0.79293  1.0000
  C   C2975     1.0  0.75134  0.49812  0.60028  1.0000
  H   H2396     1.0  0.85210  0.49042  0.73306  1.0000
  C   C2976     1.0  0.74433  0.49012  0.81266  1.0000
  H   H2397     1.0  0.68716  0.31988  0.00018  1.0000
  C   C2977     1.0  0.99063  0.28162  0.69033  1.0000
  H   H2398     1.0  0.99235  0.30696  0.76957  1.0000
  C   C2978     1.0  0.76170  0.49979  0.70913  1.0000
  C   C2979     1.0  0.79361  0.50002  0.55404  1.0000
  H   H2399     1.0  0.98031  0.27941  0.65879  1.0000
  H   H2400     1.0  0.68987  0.49967  0.92835  1.0000
  C   C2980     1.0  0.99826  0.27050  0.70820  1.0000
  H   H2401     1.0  0.96945  0.25490  0.73804  1.0000
  C   C2981     1.0  0.99030  0.34741  0.72323  1.0000
  C   C2982     1.0  0.98604  0.27080  0.67262  1.0000
  C   C2983     1.0  0.00248  0.39847  0.81753  1.0000
  C   C2984     1.0  0.98842  0.32573  0.72646  1.0000
  C   C2985     1.0  0.78546  0.73484  0.49907  1.0000
  H   H2402     1.0  0.69594  0.56213  0.19700  1.0000
  S   S400      1.0  0.98867  0.68808  0.17632  1.0000
  C   C2986     1.0  0.89233  0.50835  0.31024  1.0000
  C   C2987     1.0  0.72917  0.55631  0.00893  1.0000
  H   H2403     1.0  0.91370  0.57087  0.30165  1.0000
  H   H2404     1.0  0.90163  0.53535  0.29096  1.0000
  S   S401      1.0  0.96696  0.69397  0.11769  1.0000
  C   C2988     1.0  0.85542  0.71835  0.47973  1.0000
  Fe  Fe201     1.0  0.87884  0.66574  0.03662  1.0000
  C   C2989     1.0  0.83844  0.72791  0.46922  1.0000
  S   S402      1.0  0.89707  0.65289  0.06546  1.0000
  H   H2405     1.0  0.69978  0.52495  0.12638  1.0000
  H   H2406     1.0  0.74996  0.52051  0.24777  1.0000
  H   H2407     1.0  0.88878  0.54893  0.46738  1.0000
  H   H2408     1.0  0.77348  0.52629  0.04120  1.0000
  C   C2990     1.0  0.92954  0.57228  0.42668  1.0000
  S   S403      1.0  0.84320  0.66665  0.03506  1.0000
  S   S404      1.0  0.82066  0.65889  0.47794  1.0000
  C   C2991     1.0  0.99932  0.67694  0.46686  1.0000
  Fe  Fe202     1.0  0.81873  0.62344  0.47914  1.0000
  S   S405      1.0  0.83333  0.60044  0.45478  1.0000
  H   H2409     1.0  0.92621  0.54136  0.23390  1.0000
  C   C2992     1.0  0.82761  0.56481  0.01435  1.0000
  S   S406      1.0  0.78806  0.54594  0.39027  1.0000
  H   H2410     1.0  0.99845  0.60108  0.23736  1.0000
  S   S407      1.0  0.80643  0.52331  0.33369  1.0000
  C   C2993     1.0  0.92242  0.56728  0.40718  1.0000
  H   H2411     1.0  0.74256  0.52434  0.31784  1.0000
  C   C2994     1.0  0.92433  0.69518  0.49943  1.0000
  H   H2412     1.0  0.79713  0.68106  0.00710  1.0000
  H   H2413     1.0  0.83207  0.52399  0.46820  1.0000
  S   S408      1.0  0.68894  0.51427  0.17798  1.0000
  C   C2995     1.0  0.72704  0.55389  0.32663  1.0000
  H   H2414     1.0  0.67684  0.50711  0.31868  1.0000
  C   C2996     1.0  0.81985  0.58441  0.43829  1.0000
  C   C2997     1.0  0.83085  0.56690  0.42924  1.0000
  C   C2998     1.0  0.82135  0.55485  0.41470  1.0000
  C   C2999     1.0  0.80062  0.56008  0.40912  1.0000
  C   C3000     1.0  0.78937  0.57709  0.41874  1.0000
  C   C3001     1.0  0.79890  0.58920  0.43322  1.0000
  H   H2415     1.0  0.84677  0.56255  0.43359  1.0000
  H   H2416     1.0  0.83007  0.54164  0.40768  1.0000
  H   H2417     1.0  0.77329  0.58120  0.41468  1.0000
  H   H2418     1.0  0.79020  0.60255  0.44007  1.0000
  H   H2419     1.0  0.71512  0.51612  0.29407  1.0000
  C   C3002     1.0  0.69378  0.56322  0.31063  1.0000
  H   H2420     1.0  0.77701  0.56499  0.47845  1.0000
  H   H2421     1.0  0.85345  0.52096  0.27617  1.0000
  C   C3003     1.0  0.82351  0.53549  0.47785  1.0000
  H   H2422     1.0  0.74558  0.73731  0.06869  1.0000
  C   C3004     1.0  0.70775  0.55609  0.22796  1.0000
  C   C3005     1.0  0.81054  0.55674  0.00470  1.0000
  H   H2423     1.0  0.98644  0.65841  0.09038  1.0000
  H   H2424     1.0  0.77177  0.50458  0.44157  1.0000
  C   C3006     1.0  0.94726  0.68214  0.10384  1.0000
  C   C3007     1.0  0.93498  0.69484  0.08989  1.0000
  C   C3008     1.0  0.91965  0.68624  0.07802  1.0000
  C   C3009     1.0  0.91618  0.66473  0.08007  1.0000
  C   C3010     1.0  0.92830  0.65205  0.09421  1.0000
  C   C3011     1.0  0.94383  0.66060  0.10588  1.0000
  H   H2425     1.0  0.93742  0.71151  0.08814  1.0000
  H   H2426     1.0  0.91047  0.69628  0.06734  1.0000
  H   H2427     1.0  0.92582  0.63543  0.09597  1.0000
  H   H2428     1.0  0.95318  0.65056  0.11635  1.0000
  C   C3012     1.0  0.76016  0.74439  0.43579  1.0000
  C   C3013     1.0  0.99610  0.68731  0.44737  1.0000
  C   C3014     1.0  0.68190  0.54587  0.25571  1.0000
  H   H2429     1.0  0.75161  0.71938  0.03547  1.0000
  S   S409      1.0  0.78535  0.62478  0.49311  1.0000
  S   S410      1.0  0.83592  0.50617  0.37229  1.0000
  H   H2430     1.0  0.94054  0.59691  0.30600  1.0000
  H   H2431     1.0  0.94594  0.56887  0.43015  1.0000
  H   H2432     1.0  0.98823  0.74772  0.26087  1.0000
  C   C3015     1.0  0.71080  0.54515  0.01061  1.0000
  H   H2433     1.0  0.98013  0.69027  0.44232  1.0000
  C   C3016     1.0  0.76604  0.53114  0.07434  1.0000
  Fe  Fe203     1.0  0.99306  0.68520  0.14096  1.0000
  C   C3017     1.0  0.87237  0.52186  0.48025  1.0000
  H   H2434     1.0  0.86062  0.57638  0.48083  1.0000
  H   H2435     1.0  0.73254  0.71280  0.46153  1.0000
  C   C3018     1.0  0.88024  0.59460  0.49843  1.0000
  C   C3019     1.0  0.92622  0.51042  0.28951  1.0000
  C   C3020     1.0  0.87077  0.73058  0.48716  1.0000
  C   C3021     1.0  0.88602  0.53255  0.46579  1.0000
  C   C3022     1.0  0.97741  0.67083  0.03089  1.0000
  H   H2436     1.0  0.91923  0.53246  0.35438  1.0000
  C   C3023     1.0  0.70406  0.53599  0.03005  1.0000
  H   H2437     1.0  0.81484  0.51717  0.28194  1.0000
  C   C3024     1.0  0.74601  0.50745  0.25848  1.0000
  S   S411      1.0  0.86770  0.52097  0.31902  1.0000
  C   C3025     1.0  0.70276  0.55009  0.24905  1.0000
  H   H2438     1.0  0.73917  0.55741  0.33709  1.0000
  H   H2439     1.0  0.68914  0.55963  0.14094  1.0000
  S   S412      1.0  0.94898  0.70438  0.48887  1.0000
  Fe  Fe204     1.0  0.83885  0.50679  0.33686  1.0000
  C   C3026     1.0  0.70627  0.53913  0.11918  1.0000
  C   C3027     1.0  0.70949  0.56789  0.32400  1.0000
  H   H2440     1.0  0.90678  0.53045  0.43779  1.0000
  H   H2441     1.0  0.84520  0.59219  0.01920  1.0000
  C   C3028     1.0  0.83240  0.54333  0.49547  1.0000
  H   H2442     1.0  0.83771  0.55431  0.02372  1.0000
  C   C3029     1.0  0.72856  0.73919  0.01864  1.0000
  H   H2443     1.0  0.79717  0.53785  0.45774  1.0000
  H   H2444     1.0  0.77982  0.64763  0.00358  1.0000
  S   S413      1.0  0.81821  0.72190  0.02343  1.0000
  C   C3030     1.0  0.70037  0.55866  0.12742  1.0000
  C   C3031     1.0  0.99436  0.60376  0.13109  1.0000
  H   H2445     1.0  0.78612  0.74585  0.45564  1.0000
  C   C3032     1.0  0.98028  0.62696  0.03603  1.0000
  H   H2446     1.0  0.78973  0.50309  0.11443  1.0000
  H   H2447     1.0  0.92101  0.58572  0.45677  1.0000
  S   S414      1.0  0.76270  0.68433  0.48177  1.0000
  H   H2448     1.0  0.91844  0.68012  0.47083  1.0000
  H   H2449     1.0  0.85656  0.70139  0.48229  1.0000
  C   C3033     1.0  0.91237  0.68346  0.48666  1.0000
  H   H2450     1.0  0.96212  0.55346  0.22430  1.0000
  C   C3034     1.0  0.91961  0.74957  0.46778  1.0000
  H   H2451     1.0  0.80353  0.50614  0.41718  1.0000
  C   C3035     1.0  0.00272  0.65855  0.08432  1.0000
  H   H2452     1.0  0.86940  0.53400  0.40374  1.0000
  H   H2453     1.0  0.89264  0.55713  0.33254  1.0000
  S   S415      1.0  0.88404  0.64691  0.00725  1.0000
  H   H2454     1.0  0.99155  0.55074  0.13828  1.0000
  H   H2455     1.0  0.95801  0.67019  0.05969  1.0000
  C   C3036     1.0  0.77119  0.52476  0.09498  1.0000
  H   H2456     1.0  0.82650  0.71833  0.46367  1.0000
  H   H2457     1.0  0.70806  0.58235  0.33240  1.0000
  H   H2458     1.0  0.99980  0.62744  0.00722  1.0000
  C   C3037     1.0  0.90386  0.60067  0.11508  1.0000
  C   C3038     1.0  0.88527  0.61232  0.12086  1.0000
  C   C3039     1.0  0.88236  0.62000  0.14112  1.0000
  C   C3040     1.0  0.89824  0.61642  0.15546  1.0000
  C   C3041     1.0  0.91727  0.60529  0.14955  1.0000
  C   C3042     1.0  0.91982  0.59712  0.12934  1.0000
  P   P99       1.0  0.93873  0.60326  0.16722  1.0000
  C   C3043     1.0  0.96288  0.59524  0.15260  1.0000
  C   C3044     1.0  0.94119  0.62902  0.17726  1.0000
  C   C3045     1.0  0.93574  0.64717  0.16486  1.0000
  C   C3046     1.0  0.93678  0.66712  0.17283  1.0000
  C   C3047     1.0  0.94325  0.66911  0.19324  1.0000
  C   C3048     1.0  0.94931  0.65120  0.20544  1.0000
  C   C3049     1.0  0.94833  0.63121  0.19750  1.0000
  C   C3050     1.0  0.97592  0.61023  0.14270  1.0000
  H   H2459     1.0  0.89548  0.55657  0.21476  1.0000
  C   C3051     1.0  0.87022  0.57638  0.49436  1.0000
  C   C3052     1.0  0.98703  0.56735  0.13918  1.0000
  C   C3053     1.0  0.96844  0.57374  0.15053  1.0000
  C   C3054     1.0  0.93435  0.58414  0.18877  1.0000
  C   C3055     1.0  0.91406  0.57722  0.19427  1.0000
  C   C3056     1.0  0.91114  0.56192  0.21058  1.0000
  C   C3057     1.0  0.92842  0.55337  0.22142  1.0000
  C   C3058     1.0  0.94863  0.56022  0.21607  1.0000
  C   C3059     1.0  0.95157  0.57563  0.19994  1.0000
  H   H2460     1.0  0.90614  0.59500  0.09925  1.0000
  H   H2461     1.0  0.87328  0.61571  0.10949  1.0000
  H   H2462     1.0  0.86801  0.62920  0.14550  1.0000
  H   H2463     1.0  0.89598  0.62300  0.17090  1.0000
  H   H2464     1.0  0.93429  0.58855  0.12427  1.0000
  H   H2465     1.0  0.93070  0.64604  0.14900  1.0000
  H   H2466     1.0  0.93292  0.68105  0.16301  1.0000
  H   H2467     1.0  0.94432  0.68460  0.19932  1.0000
  H   H2468     1.0  0.95534  0.65280  0.22085  1.0000
  H   H2469     1.0  0.95348  0.61766  0.20713  1.0000
  C   C3060     1.0  0.72897  0.53526  0.31579  1.0000
  C   C3061     1.0  0.71335  0.53060  0.30237  1.0000
  P   P100      1.0  0.67523  0.53780  0.28285  1.0000
  C   C3062     1.0  0.93885  0.74880  0.45583  1.0000
  H   H2470     1.0  0.95856  0.56186  0.15788  1.0000
  H   H2471     1.0  0.90051  0.58345  0.18597  1.0000
  C   C3063     1.0  0.88719  0.58088  0.41788  1.0000
  H   H2472     1.0  0.88331  0.59319  0.44886  1.0000
  H   H2473     1.0  0.96738  0.58074  0.19605  1.0000
  C   C3064     1.0  0.83834  0.60302  0.37458  1.0000
  C   C3065     1.0  0.82394  0.58992  0.36689  1.0000
  C   C3066     1.0  0.83055  0.56953  0.36143  1.0000
  C   C3067     1.0  0.85129  0.56185  0.36445  1.0000
  C   C3068     1.0  0.86552  0.57452  0.37326  1.0000
  C   C3069     1.0  0.85921  0.59552  0.37727  1.0000
  P   P101      1.0  0.89228  0.56466  0.37742  1.0000
  C   C3070     1.0  0.90125  0.57190  0.40246  1.0000
  C   C3071     1.0  0.89390  0.53624  0.37871  1.0000
  H   H2474     1.0  0.71534  0.54815  0.25988  1.0000
  H   H2475     1.0  0.70493  0.73909  0.47464  1.0000
  H   H2476     1.0  0.76820  0.73257  0.42604  1.0000
  Fe  Fe205     1.0  0.84860  0.65012  0.00459  1.0000
  C   C3072     1.0  0.88067  0.52541  0.39343  1.0000
  H   H2477     1.0  0.98134  0.61000  0.03806  1.0000
  C   C3073     1.0  0.90789  0.57489  0.35503  1.0000
  C   C3074     1.0  0.90441  0.56840  0.33475  1.0000
  C   C3075     1.0  0.91628  0.57622  0.31718  1.0000
  C   C3076     1.0  0.93139  0.59087  0.31966  1.0000
  C   C3077     1.0  0.93453  0.59784  0.33971  1.0000
  C   C3078     1.0  0.92275  0.58998  0.35736  1.0000
  H   H2478     1.0  0.83324  0.61889  0.37868  1.0000
  H   H2479     1.0  0.80762  0.59548  0.36522  1.0000
  H   H2480     1.0  0.81940  0.55952  0.35527  1.0000
  H   H2481     1.0  0.85612  0.54608  0.35987  1.0000
  H   H2482     1.0  0.87025  0.60597  0.38295  1.0000
  C   C3079     1.0  0.98870  0.65887  0.01558  1.0000
  C   C3080     1.0  0.79220  0.50512  0.06077  1.0000
  H   H2483     1.0  0.93680  0.51929  0.27904  1.0000
  H   H2484     1.0  0.93340  0.55980  0.39574  1.0000
  H   H2485     1.0  0.87063  0.58399  0.41521  1.0000
  Fe  Fe206     1.0  0.84557  0.69711  0.01534  1.0000
  C   C3081     1.0  0.79219  0.55857  0.48348  1.0000
  H   H2486     1.0  0.94604  0.60943  0.34157  1.0000
  H   H2487     1.0  0.92513  0.59589  0.37267  1.0000
  Fe  Fe207     1.0  0.78792  0.65999  0.49449  1.0000
  S   S416      1.0  0.88091  0.69725  0.01934  1.0000
  H   H2488     1.0  0.95988  0.63138  0.06408  1.0000
  C   C3082     1.0  0.96825  0.63895  0.05071  1.0000
  C   C3083     1.0  0.73636  0.74239  0.05536  1.0000
  C   C3084     1.0  0.78045  0.68131  0.00398  1.0000
  H   H2489     1.0  0.99045  0.72698  0.30048  1.0000
  C   C3085     1.0  0.96703  0.66085  0.04820  1.0000
  C   C3086     1.0  0.89434  0.58595  0.43729  1.0000
  H   H2490     1.0  0.76375  0.53260  0.10846  1.0000
  C   C3087     1.0  0.91552  0.58171  0.44170  1.0000
  H   H2491     1.0  0.70457  0.59196  0.12484  1.0000
  H   H2492     1.0  0.72400  0.55862  0.22277  1.0000
  C   C3088     1.0  0.73982  0.73227  0.03631  1.0000
  P   P102      1.0  0.74808  0.55371  0.06969  1.0000
  C   C3089     1.0  0.72938  0.55597  0.09230  1.0000
  C   C3090     1.0  0.76305  0.57692  0.06420  1.0000
  C   C3091     1.0  0.78523  0.57565  0.06455  1.0000
  C   C3092     1.0  0.79687  0.59289  0.05762  1.0000
  C   C3093     1.0  0.78654  0.61154  0.05031  1.0000
  C   C3094     1.0  0.76449  0.61305  0.05013  1.0000
  C   C3095     1.0  0.75278  0.59581  0.05696  1.0000
  C   C3096     1.0  0.72358  0.57553  0.10087  1.0000
  C   C3097     1.0  0.70906  0.57684  0.11830  1.0000
  C   C3098     1.0  0.74245  0.70234  0.49235  1.0000
  C   C3099     1.0  0.72067  0.53779  0.10173  1.0000
  C   C3100     1.0  0.73373  0.54979  0.04650  1.0000
  C   C3101     1.0  0.74081  0.55830  0.02667  1.0000
  C   C3102     1.0  0.77673  0.52124  0.05725  1.0000
  H   H2493     1.0  0.88386  0.72287  0.49520  1.0000
  C   C3103     1.0  0.89635  0.52207  0.44894  1.0000
  C   C3104     1.0  0.71541  0.53833  0.04793  1.0000
  H   H2494     1.0  0.78126  0.74444  0.04072  1.0000
  C   C3105     1.0  0.75776  0.50315  0.27666  1.0000
  H   H2495     1.0  0.72513  0.52246  0.09570  1.0000
  C   C3106     1.0  0.99999  0.58235  0.12948  1.0000
  H   H2496     1.0  0.88347  0.66746  0.48392  1.0000
  H   H2497     1.0  0.79374  0.56122  0.06951  1.0000
  H   H2498     1.0  0.81399  0.59165  0.05739  1.0000
  H   H2499     1.0  0.79570  0.62468  0.04447  1.0000
  H   H2500     1.0  0.75654  0.62748  0.04427  1.0000
  H   H2501     1.0  0.73576  0.59696  0.05592  1.0000
  H   H2502     1.0  0.73026  0.58978  0.09434  1.0000
  H   H2503     1.0  0.98588  0.67200  0.47684  1.0000
  C   C3107     1.0  0.83190  0.58633  0.01186  1.0000
  H   H2504     1.0  0.75546  0.56629  0.02475  1.0000
  C   C3108     1.0  0.80078  0.56626  0.50112  1.0000
  H   H2505     1.0  0.79348  0.50437  0.50071  1.0000
  C   C3109     1.0  0.89253  0.67619  0.49406  1.0000
  H   H2506     1.0  0.70993  0.53083  0.06266  1.0000
  C   C3110     1.0  0.99062  0.63688  0.01857  1.0000
  C   C3111     1.0  0.90627  0.51952  0.29639  1.0000
  Fe  Fe208     1.0  0.80317  0.52027  0.36932  1.0000
  H   H2507     1.0  0.97204  0.62690  0.14408  1.0000
  H   H2508     1.0  0.77225  0.73023  0.49074  1.0000
  C   C3112     1.0  0.73005  0.71481  0.47831  1.0000
  C   C3113     1.0  0.84706  0.50561  0.27565  1.0000
  C   C3114     1.0  0.71441  0.72988  0.48570  1.0000
  C   C3115     1.0  0.69555  0.54443  0.29981  1.0000
  C   C3116     1.0  0.80427  0.74585  0.01458  1.0000
  H   H2509     1.0  0.97630  0.68785  0.02948  1.0000
  C   C3117     1.0  0.80353  0.54318  0.47188  1.0000
  H   H2510     1.0  0.87818  0.60856  0.48815  1.0000
  H   H2511     1.0  0.73171  0.74589  0.41869  1.0000
  H   H2512     1.0  0.69035  0.52655  0.03124  1.0000
  C   C3118     1.0  0.69197  0.55795  0.21341  1.0000
  C   C3119     1.0  0.78616  0.50816  0.09845  1.0000
  H   H2513     1.0  0.77045  0.51297  0.27979  1.0000
  S   S417      1.0  0.80649  0.52926  0.00795  1.0000
  H   H2514     1.0  0.68032  0.57424  0.30886  1.0000
  H   H2515     1.0  0.69231  0.71557  0.01472  1.0000
  H   H2516     1.0  0.99631  0.56583  0.06175  1.0000
  H   H2517     1.0  0.94467  0.73425  0.44883  1.0000
  H   H2518     1.0  0.99722  0.72755  0.22863  1.0000
  H   H2519     1.0  0.91097  0.73543  0.46977  1.0000
  C   C3120     1.0  0.90849  0.52471  0.36563  1.0000
  C   C3121     1.0  0.88146  0.50340  0.39446  1.0000
  C   C3122     1.0  0.67268  0.50964  0.28502  1.0000
  H   H2520     1.0  0.77684  0.71497  0.00301  1.0000
  S   S418      1.0  0.00212  0.72991  0.47977  1.0000
  C   C3123     1.0  0.00281  0.73617  0.30576  1.0000
  C   C3124     1.0  0.82531  0.50348  0.27889  1.0000
  H   H2521     1.0  0.00260  0.69233  0.08248  1.0000
  C   C3125     1.0  0.83676  0.74977  0.46616  1.0000
  H   H2522     1.0  0.00264  0.56199  0.23792  1.0000
  C   C3126     1.0  0.67114  0.55390  0.21993  1.0000
  C   C3127     1.0  0.99806  0.75068  0.32136  1.0000
  C   C3128     1.0  0.90917  0.50272  0.36669  1.0000
  C   C3129     1.0  0.00318  0.59326  0.22296  1.0000
  S   S419      1.0  0.71501  0.50129  0.23062  1.0000
  C   C3130     1.0  0.77065  0.66249  0.00207  1.0000
  C   C3131     1.0  0.88438  0.55894  0.52560  1.0000
  S   S420      1.0  0.85001  0.68055  0.98467  1.0000
  Fe  Fe209     1.0  0.88514  0.67846  0.98977  1.0000
  S   S421      1.0  0.91404  0.68728  0.96812  1.0000
  C   C3132     1.0  0.77818  0.58740  0.64809  1.0000
  H   H2523     1.0  0.89503  0.57785  0.65670  1.0000
  S   S422      1.0  0.95837  0.65836  0.88008  1.0000
  H   H2524     1.0  0.98108  0.63437  0.91728  1.0000
  Fe  Fe210     1.0  0.80021  0.62235  0.52463  1.0000
  H   H2525     1.0  0.93595  0.55088  0.93917  1.0000
  S   S423      1.0  0.78667  0.59879  0.54941  1.0000
  H   H2526     1.0  0.79084  0.50958  0.56771  1.0000
  H   H2527     1.0  0.76499  0.58604  0.60378  1.0000
  S   S424      1.0  0.80040  0.65760  0.52702  1.0000
  C   C3133     1.0  0.69270  0.71171  0.57428  1.0000
  H   H2528     1.0  0.88937  0.55104  0.87410  1.0000
  H   H2529     1.0  0.84221  0.55544  0.68801  1.0000
  S   S425      1.0  0.84055  0.53698  0.61022  1.0000
  C   C3134     1.0  0.67274  0.72220  0.57371  1.0000
  C   C3135     1.0  0.88429  0.68064  0.51438  1.0000
  C   C3136     1.0  0.80248  0.58055  0.56455  1.0000
  C   C3137     1.0  0.79301  0.56334  0.57518  1.0000
  C   C3138     1.0  0.80449  0.54957  0.58892  1.0000
  C   C3139     1.0  0.82565  0.55289  0.59209  1.0000
  C   C3140     1.0  0.83533  0.56964  0.58089  1.0000
  C   C3141     1.0  0.82385  0.58336  0.56712  1.0000
  H   H2530     1.0  0.77661  0.56091  0.57293  1.0000
  H   H2531     1.0  0.79688  0.53668  0.59736  1.0000
  H   H2532     1.0  0.85172  0.57226  0.58313  1.0000
  H   H2533     1.0  0.83138  0.59649  0.55901  1.0000
  H   H2534     1.0  0.68862  0.60516  0.61720  1.0000
  H   H2535     1.0  0.97343  0.72645  0.87719  1.0000
  H   H2536     1.0  0.75560  0.51799  0.73695  1.0000
  H   H2537     1.0  0.73588  0.55706  0.71617  1.0000
  C   C3142     1.0  0.95542  0.71907  0.75745  1.0000
  C   C3143     1.0  0.96667  0.71567  0.79944  1.0000
  C   C3144     1.0  0.91973  0.53637  0.66334  1.0000
  C   C3145     1.0  0.99623  0.65798  0.96938  1.0000
  C   C3146     1.0  0.80197  0.59207  0.99010  1.0000
  C   C3147     1.0  0.73847  0.60593  0.59445  1.0000
  C   C3148     1.0  0.92610  0.67845  0.94379  1.0000
  C   C3149     1.0  0.91730  0.66357  0.93191  1.0000
  C   C3150     1.0  0.92735  0.65759  0.91247  1.0000
  C   C3151     1.0  0.94635  0.66629  0.90473  1.0000
  C   C3152     1.0  0.95521  0.68103  0.91667  1.0000
  C   C3153     1.0  0.94517  0.68700  0.93606  1.0000
  H   H2538     1.0  0.90262  0.65690  0.93756  1.0000
  H   H2539     1.0  0.92030  0.64623  0.90334  1.0000
  H   H2540     1.0  0.96977  0.68780  0.91090  1.0000
  H   H2541     1.0  0.95219  0.69834  0.94518  1.0000
  H   H2542     1.0  0.75577  0.51070  0.78720  1.0000
  C   C3154     1.0  0.73473  0.55211  0.66295  1.0000
  C   C3155     1.0  0.73058  0.55243  0.70125  1.0000
  S   S426      1.0  0.82557  0.50192  0.66329  1.0000
  C   C3156     1.0  0.94185  0.54269  0.73963  1.0000
  C   C3157     1.0  0.85035  0.50846  0.98151  1.0000
  H   H2543     1.0  0.75621  0.51347  0.65016  1.0000
  C   C3158     1.0  0.70706  0.72352  0.98399  1.0000
  H   H2544     1.0  0.91919  0.51632  0.61471  1.0000
  H   H2545     1.0  0.82559  0.54661  0.65195  1.0000
  C   C3159     1.0  0.91285  0.58359  0.90234  1.0000
  H   H2546     1.0  0.70421  0.55796  0.85714  1.0000
  H   H2547     1.0  0.88307  0.50917  0.71978  1.0000
  C   C3160     1.0  0.77533  0.56618  0.64444  1.0000
  C   C3161     1.0  0.87813  0.60675  0.66449  1.0000
  C   C3162     1.0  0.86543  0.61754  0.67961  1.0000
  C   C3163     1.0  0.85980  0.60745  0.69896  1.0000
  C   C3164     1.0  0.86680  0.58654  0.70318  1.0000
  C   C3165     1.0  0.87944  0.57553  0.68801  1.0000
  C   C3166     1.0  0.88520  0.58585  0.66867  1.0000
  P   P103      1.0  0.88789  0.54832  0.69343  1.0000
  C   C3167     1.0  0.86510  0.53427  0.70345  1.0000
  C   C3168     1.0  0.70532  0.60099  0.61443  1.0000
  H   H2548     1.0  0.86001  0.63375  0.67631  1.0000
  H   H2549     1.0  0.85000  0.61584  0.71070  1.0000
  H   H2550     1.0  0.86228  0.57887  0.71822  1.0000
  H   H2551     1.0  0.74648  0.51898  0.57313  1.0000
  C   C3169     1.0  0.92078  0.52726  0.71448  1.0000
  H   H2552     1.0  0.91784  0.51397  0.70534  1.0000
  H   H2553     1.0  0.74756  0.61369  0.58163  1.0000
  H   H2554     1.0  0.73179  0.51938  0.88922  1.0000
  H   H2555     1.0  0.90299  0.57296  0.93383  1.0000
  S   S427      1.0  0.99396  0.54329  0.77343  1.0000
  H   H2556     1.0  0.70580  0.57703  0.63932  1.0000
  C   C3170     1.0  0.71697  0.61138  0.59815  1.0000
  H   H2557     1.0  0.94423  0.52766  0.63997  1.0000
  H   H2558     1.0  0.86700  0.53149  0.65822  1.0000
  H   H2559     1.0  0.96082  0.64147  0.83630  1.0000
  H   H2560     1.0  0.98167  0.58534  0.78525  1.0000
  H   H2561     1.0  0.70935  0.62355  0.58827  1.0000
  C   C3171     1.0  0.94758  0.57021  0.88904  1.0000
  H   H2562     1.0  0.96459  0.54958  0.91106  1.0000
  H   H2563     1.0  0.82537  0.71245  0.52753  1.0000
  H   H2564     1.0  0.77638  0.50696  0.70444  1.0000
  C   C3172     1.0  0.99287  0.57784  0.87924  1.0000
  C   C3173     1.0  0.00127  0.71613  0.92818  1.0000
  C   C3174     1.0  0.96195  0.58867  0.84778  1.0000
  H   H2565     1.0  0.71234  0.55779  0.89494  1.0000
  C   C3175     1.0  0.82696  0.53102  0.70627  1.0000
  H   H2566     1.0  0.95699  0.63177  0.94936  1.0000
  S   S428      1.0  0.71617  0.50583  0.75754  1.0000
  H   H2567     1.0  0.94092  0.72249  0.98354  1.0000
  C   C3176     1.0  0.95650  0.73440  0.79170  1.0000
  H   H2568     1.0  0.97249  0.61536  0.86348  1.0000
  H   H2569     1.0  0.72099  0.68222  0.99244  1.0000
  C   C3177     1.0  0.89792  0.53716  0.66895  1.0000
  Fe  Fe211     1.0  0.97368  0.72458  0.50208  1.0000
  C   C3178     1.0  0.94905  0.61865  0.81665  1.0000
  H   H2570     1.0  0.93831  0.59248  0.80077  1.0000
  C   C3179     1.0  0.92971  0.56160  0.73748  1.0000
  H   H2571     1.0  0.92526  0.70819  0.52994  1.0000
  H   H2572     1.0  0.68463  0.67065  0.54400  1.0000
  H   H2573     1.0  0.89860  0.59350  0.90017  1.0000
  H   H2574     1.0  0.81124  0.53664  0.70206  1.0000
  H   H2575     1.0  0.83061  0.58404  0.65732  1.0000
  C   C3180     1.0  0.75408  0.51494  0.63334  1.0000
  Fe  Fe212     1.0  0.83302  0.65477  0.51046  1.0000
  H   H2576     1.0  0.96601  0.64724  0.98215  1.0000
  C   C3181     1.0  0.94566  0.59741  0.81454  1.0000
  H   H2577     1.0  0.75470  0.56818  0.68284  1.0000
  H   H2578     1.0  0.99091  0.55546  0.82966  1.0000
  C   C3182     1.0  0.73904  0.70533  0.51401  1.0000
  C   C3183     1.0  0.96938  0.50611  0.85955  1.0000
  H   H2579     1.0  0.70222  0.54297  0.99670  1.0000
  C   C3184     1.0  0.81509  0.57908  0.65416  1.0000
  H   H2580     1.0  0.97938  0.68462  0.79223  1.0000
  C   C3185     1.0  0.68187  0.50326  0.94337  1.0000
  C   C3186     1.0  0.95186  0.58248  0.83015  1.0000
  C   C3187     1.0  0.92880  0.58260  0.88619  1.0000
  C   C3188     1.0  0.84338  0.52064  0.54220  1.0000
  C   C3189     1.0  0.97676  0.73757  0.86414  1.0000
  C   C3190     1.0  0.74857  0.51784  0.58996  1.0000
  C   C3191     1.0  0.91312  0.56339  0.72378  1.0000
  C   C3192     1.0  0.97726  0.64771  0.96866  1.0000
  C   C3193     1.0  0.67566  0.54153  0.86328  1.0000
  C   C3194     1.0  0.81224  0.55791  0.65112  1.0000
  H   H2581     1.0  0.95143  0.72054  0.74108  1.0000
  H   H2582     1.0  0.84986  0.52374  0.98832  1.0000
  H   H2583     1.0  0.78438  0.56470  0.98523  1.0000
  C   C3195     1.0  0.74830  0.53612  0.60134  1.0000
  S   S429      1.0  0.74261  0.50321  0.93030  1.0000
  C   C3196     1.0  0.69698  0.69314  0.56358  1.0000
  C   C3197     1.0  0.85244  0.50649  0.95957  1.0000
  C   C3198     1.0  0.86758  0.51576  0.71614  1.0000
  C   C3199     1.0  0.85866  0.51753  0.52556  1.0000
  H   H2584     1.0  0.71186  0.50558  0.86076  1.0000
  C   C3200     1.0  0.93737  0.52553  0.72812  1.0000
  H   H2585     1.0  0.68049  0.73004  0.93877  1.0000
  H   H2586     1.0  0.99839  0.61148  0.80586  1.0000
  P   P104      1.0  0.96885  0.56974  0.86868  1.0000
  H   H2587     1.0  0.93343  0.57493  0.74626  1.0000
  C   C3201     1.0  0.70677  0.53322  0.68202  1.0000
  C   C3202     1.0  0.72335  0.72037  0.52139  1.0000
  C   C3203     1.0  0.69372  0.55080  0.86912  1.0000
  C   C3204     1.0  0.91626  0.69931  0.51987  1.0000
  C   C3205     1.0  0.73676  0.57961  0.62342  1.0000
  Fe  Fe213     1.0  0.78374  0.50622  0.99586  1.0000
  H   H2588     1.0  0.77063  0.53324  0.91112  1.0000
  H   H2589     1.0  0.96962  0.68769  0.75496  1.0000
  S   S430      1.0  0.74926  0.51141  0.98990  1.0000
  H   H2590     1.0  0.67200  0.54177  0.84680  1.0000
  H   H2591     1.0  0.78635  0.52558  0.53177  1.0000
  Fe  Fe214     1.0  0.99182  0.66434  0.86624  1.0000
  C   C3206     1.0  0.87231  0.55837  0.50780  1.0000
  C   C3207     1.0  0.68120  0.68488  0.55254  1.0000
  H   H2592     1.0  0.80022  0.61026  0.65502  1.0000
  H   H2593     1.0  0.74857  0.69616  0.52505  1.0000
  C   C3208     1.0  0.89159  0.52347  0.63498  1.0000
  H   H2594     1.0  0.94699  0.51095  0.72948  1.0000
  C   C3209     1.0  0.79802  0.59382  0.65275  1.0000
  C   C3210     1.0  0.74834  0.59018  0.60706  1.0000
  C   C3211     1.0  0.78949  0.53889  0.93717  1.0000
  C   C3212     1.0  0.78647  0.53303  0.91670  1.0000
  H   H2595     1.0  0.97753  0.59083  0.90759  1.0000
  C   C3213     1.0  0.68486  0.54119  0.90580  1.0000
  C   C3214     1.0  0.82739  0.53185  0.93140  1.0000
  C   C3215     1.0  0.80985  0.53816  0.94455  1.0000
  P   P105      1.0  0.85325  0.52948  0.94190  1.0000
  C   C3216     1.0  0.87364  0.52690  0.92102  1.0000
  C   C3217     1.0  0.85882  0.55315  0.95458  1.0000
  C   C3218     1.0  0.87539  0.55287  0.96833  1.0000
  C   C3219     1.0  0.88034  0.57136  0.97753  1.0000
  C   C3220     1.0  0.86909  0.59031  0.97269  1.0000
  C   C3221     1.0  0.85294  0.59080  0.95863  1.0000
  C   C3222     1.0  0.84780  0.57233  0.94958  1.0000
  C   C3223     1.0  0.87372  0.54147  0.90374  1.0000
  C   C3224     1.0  0.95005  0.55883  0.90832  1.0000
  H   H2596     1.0  0.68869  0.54142  0.92217  1.0000
  H   H2597     1.0  0.76511  0.59905  0.64720  1.0000
  C   C3225     1.0  0.74987  0.50597  0.72765  1.0000
  C   C3226     1.0  0.79761  0.57058  0.99269  1.0000
  C   C3227     1.0  0.90853  0.74392  0.56083  1.0000
  C   C3228     1.0  0.87512  0.50202  0.52821  1.0000
  C   C3229     1.0  0.71513  0.58506  0.62698  1.0000
  H   H2598     1.0  0.79081  0.53499  0.64340  1.0000
  C   C3230     1.0  0.74121  0.55866  0.68226  1.0000
  H   H2599     1.0  0.77596  0.54339  0.94751  1.0000
  H   H2600     1.0  0.71212  0.53402  0.64835  1.0000
  S   S431      1.0  0.85855  0.67361  0.52408  1.0000
  C   C3231     1.0  0.98862  0.52212  0.82962  1.0000
  H   H2601     1.0  0.81191  0.54208  0.96067  1.0000
  H   H2602     1.0  0.88436  0.53833  0.97206  1.0000
  C   C3232     1.0  0.74753  0.74294  0.97499  1.0000
  C   C3233     1.0  0.84991  0.50503  0.72383  1.0000
  H   H2603     1.0  0.84399  0.60549  0.95527  1.0000
  H   H2604     1.0  0.83519  0.57317  0.93877  1.0000
  H   H2605     1.0  0.86150  0.55404  0.90281  1.0000
  C   C3234     1.0  0.96520  0.61005  0.84982  1.0000
  C   C3235     1.0  0.90849  0.54617  0.71215  1.0000
  P   P106      1.0  0.74955  0.55820  0.63841  1.0000
  H   H2606     1.0  0.78725  0.74020  0.93637  1.0000
  C   C3236     1.0  0.76356  0.73418  0.96128  1.0000
  H   H2607     1.0  0.74563  0.55111  0.59302  1.0000
  C   C3237     1.0  0.90551  0.52390  0.88856  1.0000
  C   C3238     1.0  0.91537  0.57206  0.92135  1.0000
  H   H2608     1.0  0.92648  0.59190  0.87172  1.0000
  H   H2609     1.0  0.99744  0.69995  0.93157  1.0000
  C   C3239     1.0  0.95067  0.73585  0.77065  1.0000
  C   C3240     1.0  0.99532  0.74841  0.86323  1.0000
  H   H2610     1.0  0.88253  0.61456  0.64948  1.0000
  H   H2611     1.0  0.83721  0.51920  0.90103  1.0000
  C   C3241     1.0  0.99697  0.58144  0.79148  1.0000
  H   H2612     1.0  0.94875  0.56617  0.82834  1.0000
  Fe  Fe215     1.0  0.83125  0.50666  0.62796  1.0000
  H   H2613     1.0  0.93095  0.54166  0.67385  1.0000
  H   H2614     1.0  0.71264  0.68535  0.56351  1.0000
  H   H2615     1.0  0.97171  0.71406  0.81544  1.0000
  C   C3242     1.0  0.82416  0.52532  0.91107  1.0000
  C   C3243     1.0  0.88303  0.74594  0.53373  1.0000
  P   P107      1.0  0.73287  0.72631  0.99383  1.0000
  H   H2616     1.0  0.87588  0.73658  0.80972  1.0000
  H   H2617     1.0  0.74164  0.64832  0.99646  1.0000
  H   H2618     1.0  0.88071  0.51884  0.62379  1.0000
  C   C3244     1.0  0.97202  0.63890  0.95005  1.0000
  H   H2619     1.0  0.95490  0.54134  0.75001  1.0000
  C   C3245     1.0  0.93393  0.55964  0.92433  1.0000
  H   H2620     1.0  0.90426  0.57831  0.72214  1.0000
  C   C3246     1.0  0.98551  0.64046  0.93196  1.0000
  C   C3247     1.0  0.84461  0.54165  0.69834  1.0000
  H   H2621     1.0  0.87250  0.60461  0.98015  1.0000
  C   C3248     1.0  0.79249  0.55142  0.64615  1.0000
  H   H2622     1.0  0.79521  0.70279  0.50751  1.0000
  C   C3249     1.0  0.97111  0.69882  0.78627  1.0000
  C   C3250     1.0  0.84407  0.50788  0.56070  1.0000
  H   H2623     1.0  0.94423  0.63025  0.80460  1.0000
  C   C3251     1.0  0.79110  0.50901  0.53380  1.0000
  C   C3252     1.0  0.89645  0.69198  0.52728  1.0000
  C   C3253     1.0  0.97055  0.73767  0.97946  1.0000
  C   C3254     1.0  0.70360  0.72715  0.96245  1.0000
  C   C3255     1.0  0.92736  0.52869  0.64394  1.0000
  C   C3256     1.0  0.69825  0.55074  0.89039  1.0000
  C   C3257     1.0  0.97358  0.54392  0.85783  1.0000
  C   C3258     1.0  0.95862  0.62496  0.83437  1.0000
  H   H2624     1.0  0.89040  0.69523  0.54311  1.0000
  H   H2625     1.0  0.83111  0.53309  0.54121  1.0000
  H   H2626     1.0  0.79203  0.60254  0.98054  1.0000
  H   H2627     1.0  0.94894  0.73132  0.84844  1.0000
  H   H2628     1.0  0.95677  0.52673  0.88323  1.0000
  H   H2629     1.0  0.69372  0.52299  0.68204  1.0000
  C   C3259     1.0  0.98508  0.73172  0.92571  1.0000
  C   C3260     1.0  0.79839  0.71920  0.50879  1.0000
  P   P108      1.0  0.85901  0.53508  0.50231  1.0000
  C   C3261     1.0  0.96565  0.70057  0.76526  1.0000
  C   C3262     1.0  0.96291  0.74038  0.84778  1.0000
  S   S432      1.0  0.68627  0.51197  0.81212  1.0000
  H   H2630     1.0  0.70502  0.71821  0.58266  1.0000
  C   C3263     1.0  0.99231  0.58759  0.89870  1.0000
  S   S433      1.0  0.83341  0.61938  0.51073  1.0000
  C   C3264     1.0  0.96751  0.70048  0.98778  1.0000
  C   C3265     1.0  0.98502  0.54182  0.83836  1.0000
  C   C3266     1.0  0.90585  0.50964  0.90597  1.0000
  H   H2631     1.0  0.79212  0.57847  0.50989  1.0000
  H   H2632     1.0  0.82749  0.56568  0.52028  1.0000
  C   C3267     1.0  0.88950  0.53986  0.88750  1.0000
  H   H2633     1.0  0.99732  0.52073  0.81449  1.0000
  C   C3268     1.0  0.99259  0.73482  0.97918  1.0000
  H   H2634     1.0  0.91255  0.73702  0.79478  1.0000
  C   C3269     1.0  0.88389  0.53072  0.65455  1.0000
  H   H2635     1.0  0.72103  0.72263  0.53811  1.0000
  C   C3270     1.0  0.96575  0.52583  0.86835  1.0000
  C   C3271     1.0  0.74734  0.70117  0.99748  1.0000
  C   C3272     1.0  0.81529  0.72468  0.52013  1.0000
  H   H2636     1.0  0.91763  0.52261  0.87586  1.0000
  H   H2637     1.0  0.96870  0.72762  0.92728  1.0000
  H   H2638     1.0  0.73822  0.50283  0.82241  1.0000
  H   H2639     1.0  0.89271  0.57103  0.98860  1.0000
  C   C3273     1.0  0.74918  0.66293  0.99802  1.0000
  C   C3274     1.0  0.90826  0.74524  0.80904  1.0000
  C   C3275     1.0  0.68320  0.72660  0.95528  1.0000
  H   H2640     1.0  0.70560  0.53438  0.71594  1.0000
  C   C3276     1.0  0.71728  0.53949  0.66299  1.0000
  H   H2641     1.0  0.83243  0.51047  0.57361  1.0000
  H   H2642     1.0  0.80123  0.52089  0.88813  1.0000
  C   C3277     1.0  0.71085  0.73273  0.50734  1.0000
  S   S434      1.0  0.99373  0.71588  0.52947  1.0000
  C   C3278     1.0  0.95804  0.72048  0.98366  1.0000
  C   C3279     1.0  0.80376  0.52612  0.90371  1.0000
  C   C3280     1.0  0.91330  0.52225  0.62976  1.0000
  C   C3281     1.0  0.89207  0.59514  0.51623  1.0000
  C   C3282     1.0  0.75122  0.53483  0.62314  1.0000
  C   C3283     1.0  0.82961  0.51267  0.71897  1.0000
  H   H2643     1.0  0.90311  0.57783  0.54376  1.0000
  C   C3284     1.0  0.72607  0.50373  0.89107  1.0000
  H   H2644     1.0  0.95747  0.68732  0.99068  1.0000
  H   H2645     1.0  0.88605  0.54544  0.53646  1.0000
  C   C3285     1.0  0.71345  0.53964  0.70114  1.0000
  H   H2646     1.0  0.83193  0.75017  0.53101  1.0000
  S   S435      1.0  0.82445  0.62720  0.99466  1.0000
  C   C3286     1.0  0.98962  0.69754  0.98797  1.0000
  C   C3287     1.0  0.89416  0.57731  0.52980  1.0000
  C   C3288     1.0  0.81920  0.60010  0.99954  1.0000
  H   H2647     1.0  0.71647  0.73096  0.95125  1.0000
  C   C3289     1.0  0.89004  0.51118  0.92223  1.0000
  H   H2648     1.0  0.76774  0.71749  0.96193  1.0000
  H   H2649     1.0  0.89930  0.60950  0.51968  1.0000
  C   C3290     1.0  0.77450  0.74698  0.94642  1.0000
  S   S436      1.0  0.00021  0.66399  0.83104  1.0000
  P   P109      1.0  0.00154  0.67147  0.99271  1.0000
  C   C3291     1.0  0.82084  0.55885  0.50701  1.0000
  C   C3292     1.0  0.69000  0.71848  0.99806  1.0000
  H   H2650     1.0  0.73484  0.56280  0.99371  1.0000
  C   C3293     1.0  0.73753  0.68220  0.99573  1.0000
  C   C3294     1.0  0.68181  0.50182  0.98153  1.0000
  C   C3295     1.0  0.88740  0.74495  0.81747  1.0000
  H   H2651     1.0  0.86818  0.74134  0.52844  1.0000
  C   C3296     1.0  0.76889  0.70054  0.00168  1.0000
  C   C3297     1.0  0.98081  0.50427  0.84019  1.0000
  C   C3298     1.0  0.81911  0.74588  0.52189  1.0000
  H   H2652     1.0  0.91356  0.73785  0.57606  1.0000
  H   H2653     1.0  0.87905  0.72862  0.56353  1.0000
  C   C3299     1.0  0.88913  0.73874  0.55374  1.0000
  H   H2654     1.0  0.00227  0.74810  0.97556  1.0000
  Fe  Fe216     1.0  0.99179  0.75036  0.53659  1.0000
  H   H2655     1.0  0.81599  0.50412  0.72466  1.0000
  C   C3300     1.0  0.00213  0.71479  0.98325  1.0000
  H   H2656     1.0  0.94276  0.75009  0.76431  1.0000
  S   S437      1.0  0.69065  0.75085  0.51776  1.0000
  P   P110      1.0  0.69146  0.98921  0.03578  1.0000
  C   C3301     1.0  0.68278  0.92273  0.01273  1.0000
  H   H2657     1.0  0.67788  0.85076  0.12314  1.0000
  C   C3302     1.0  0.70521  0.94801  0.02605  1.0000
  H   H2658     1.0  0.75730  0.99914  0.41092  1.0000
  H   H2659     1.0  0.75707  0.85084  0.04222  1.0000
  Fe  Fe217     1.0  0.71938  0.96759  0.13210  1.0000
  Fe  Fe218     1.0  0.68300  0.97928  0.16399  1.0000
  S   S438      1.0  0.73567  0.94355  0.10988  1.0000
  H   H2660     1.0  0.88384  0.80405  0.46426  1.0000
  C   C3303     1.0  0.86788  0.82939  0.48102  1.0000
  S   S439      1.0  0.71494  0.96212  0.16750  1.0000
  Fe  Fe219     1.0  0.70560  0.85658  0.02628  1.0000
  S   S440      1.0  0.69454  0.87967  0.05179  1.0000
  C   C3304     1.0  0.76312  0.80225  0.06630  1.0000
  C   C3305     1.0  0.76670  0.81907  0.05186  1.0000
  H   H2661     1.0  0.71899  0.76728  0.07166  1.0000
  S   S441      1.0  0.71135  0.82118  0.02834  1.0000
  S   S442      1.0  0.70238  0.84800  0.48132  1.0000
  H   H2662     1.0  0.71123  0.97813  0.07596  1.0000
  Fe  Fe220     1.0  0.88369  0.97609  0.30588  1.0000
  H   H2663     1.0  0.82357  0.75718  0.45804  1.0000
  S   S443      1.0  0.91674  0.96006  0.30076  1.0000
  P   P111      1.0  0.88853  0.76847  0.49492  1.0000
  C   C3306     1.0  0.69170  0.85995  0.12306  1.0000
  S   S444      1.0  0.85105  0.96406  0.30673  1.0000
  C   C3307     1.0  0.97298  0.99867  0.28549  1.0000
  Fe  Fe221     1.0  0.98377  0.85177  0.32037  1.0000
  S   S445      1.0  0.95086  0.86710  0.32750  1.0000
  S   S446      1.0  0.98706  0.81657  0.32562  1.0000
  Fe  Fe222     1.0  0.84247  0.99065  0.28350  1.0000
  C   C3308     1.0  0.68836  0.96332  0.02620  1.0000
  H   H2664     1.0  0.68910  0.87462  0.44025  1.0000
  C   C3309     1.0  0.69101  0.81867  0.09229  1.0000
  S   S447      1.0  0.73469  0.99858  0.13480  1.0000
  C   C3310     1.0  0.72304  0.98444  0.06476  1.0000
  H   H2665     1.0  0.89900  0.86815  0.25339  1.0000
  C   C3311     1.0  0.95841  0.83055  0.24246  1.0000
  C   C3312     1.0  0.92592  0.93428  0.30892  1.0000
  C   C3313     1.0  0.94754  0.92837  0.30570  1.0000
  C   C3314     1.0  0.95545  0.90791  0.31137  1.0000
  C   C3315     1.0  0.94174  0.89303  0.32003  1.0000
  C   C3316     1.0  0.92013  0.89891  0.32324  1.0000
  C   C3317     1.0  0.91227  0.91950  0.31794  1.0000
  H   H2666     1.0  0.95824  0.93959  0.29860  1.0000
  H   H2667     1.0  0.97212  0.90357  0.30896  1.0000
  H   H2668     1.0  0.90942  0.88744  0.32982  1.0000
  H   H2669     1.0  0.89560  0.92379  0.32042  1.0000
  C   C3318     1.0  0.78064  0.78374  0.00223  1.0000
  H   H2670     1.0  0.75810  0.93704  0.01855  1.0000
  C   C3319     1.0  0.79771  0.97651  0.42101  1.0000
  C   C3320     1.0  0.88891  0.98405  0.18840  1.0000
  C   C3321     1.0  0.78952  0.75613  0.50023  1.0000
  H   H2671     1.0  0.72651  0.99727  0.24327  1.0000
  C   C3322     1.0  0.78605  0.75316  0.02643  1.0000
  H   H2672     1.0  0.93430  0.86847  0.28453  1.0000
  H   H2673     1.0  0.73054  0.77499  0.17882  1.0000
  C   C3323     1.0  0.68973  0.87991  0.13149  1.0000
  C   C3324     1.0  0.80123  0.97199  0.39952  1.0000
  C   C3325     1.0  0.67570  0.86604  0.43631  1.0000
  S   S448      1.0  0.82561  0.98013  0.25469  1.0000
  H   H2674     1.0  0.84672  0.98383  0.17774  1.0000
  C   C3326     1.0  0.82599  0.00043  0.41721  1.0000
  C   C3327     1.0  0.79627  0.79957  0.45741  1.0000
  C   C3328     1.0  0.67363  0.99274  0.05882  1.0000
  H   H2675     1.0  0.98835  0.96723  0.32717  1.0000
  H   H2676     1.0  0.67449  0.88620  0.13763  1.0000
  C   C3329     1.0  0.71136  0.85204  0.11460  1.0000
  C   C3330     1.0  0.72381  0.92771  0.09202  1.0000
  C   C3331     1.0  0.70188  0.92649  0.09182  1.0000
  C   C3332     1.0  0.69327  0.91198  0.07908  1.0000
  C   C3333     1.0  0.70638  0.89878  0.06612  1.0000
  C   C3334     1.0  0.72827  0.90073  0.06552  1.0000
  C   C3335     1.0  0.73690  0.91503  0.07851  1.0000
  H   H2677     1.0  0.69160  0.93613  0.10209  1.0000
  H   H2678     1.0  0.89011  0.99063  0.17238  1.0000
  H   H2679     1.0  0.73856  0.89087  0.05551  1.0000
  H   H2680     1.0  0.75388  0.91590  0.07848  1.0000
  C   C3336     1.0  0.97751  0.97915  0.37485  1.0000
  C   C3337     1.0  0.69873  0.99794  0.22536  1.0000
  H   H2681     1.0  0.68178  0.85050  0.08201  1.0000
  S   S449      1.0  0.67815  0.79486  0.47055  1.0000
  H   H2682     1.0  0.74072  0.89350  0.12401  1.0000
  C   C3338     1.0  0.86632  0.96009  0.43726  1.0000
  C   C3339     1.0  0.87151  0.94562  0.45360  1.0000
  C   C3340     1.0  0.88833  0.93072  0.45054  1.0000
  C   C3341     1.0  0.90012  0.93042  0.43123  1.0000
  C   C3342     1.0  0.89562  0.94551  0.41504  1.0000
  C   C3343     1.0  0.87814  0.95990  0.41798  1.0000
  P   P112      1.0  0.90939  0.94413  0.38938  1.0000
  C   C3344     1.0  0.91437  0.96982  0.37761  1.0000
  C   C3345     1.0  0.93516  0.93043  0.38955  1.0000
  C   C3346     1.0  0.94306  0.91937  0.37190  1.0000
  C   C3347     1.0  0.96272  0.90828  0.37206  1.0000
  C   C3348     1.0  0.97491  0.90859  0.38963  1.0000
  C   C3349     1.0  0.96765  0.92040  0.40686  1.0000
  C   C3350     1.0  0.94796  0.93154  0.40671  1.0000
  H   H2683     1.0  0.92027  0.79975  0.48400  1.0000
  H   H2684     1.0  0.72926  0.85464  0.07086  1.0000
  S   S450      1.0  0.87581  0.99711  0.33310  1.0000
  H   H2685     1.0  0.71310  0.77252  0.44133  1.0000
  C   C3351     1.0  0.81012  0.99073  0.43000  1.0000
  C   C3352     1.0  0.89176  0.93055  0.37416  1.0000
  C   C3353     1.0  0.87508  0.94176  0.36430  1.0000
  C   C3354     1.0  0.86028  0.93102  0.35412  1.0000
  C   C3355     1.0  0.86207  0.90912  0.35357  1.0000
  C   C3356     1.0  0.87846  0.89784  0.36358  1.0000
  C   C3357     1.0  0.89312  0.90847  0.37406  1.0000
  H   H2686     1.0  0.85280  0.97116  0.43942  1.0000
  C   C3358     1.0  0.75955  0.76648  0.46604  1.0000
  C   C3359     1.0  0.73894  0.84012  0.07002  1.0000
  H   H2687     1.0  0.91238  0.91810  0.42886  1.0000
  H   H2688     1.0  0.87331  0.97072  0.40523  1.0000
  H   H2689     1.0  0.93395  0.91907  0.35806  1.0000
  H   H2690     1.0  0.96831  0.89917  0.35862  1.0000
  H   H2691     1.0  0.99000  0.89969  0.38979  1.0000
  H   H2692     1.0  0.97723  0.92083  0.42037  1.0000
  H   H2693     1.0  0.94267  0.94085  0.42004  1.0000
  C   C3360     1.0  0.80516  0.83022  0.48518  1.0000
  H   H2694     1.0  0.80829  0.84227  0.49587  1.0000
  C   C3361     1.0  0.74001  0.80631  0.13478  1.0000
  C   C3362     1.0  0.70743  0.89191  0.13190  1.0000
  C   C3363     1.0  0.81717  0.98156  0.38675  1.0000
  H   H2695     1.0  0.87311  0.95872  0.36489  1.0000
  H   H2696     1.0  0.84716  0.93968  0.34693  1.0000
  H   H2697     1.0  0.85059  0.90093  0.34557  1.0000
  H   H2698     1.0  0.87981  0.88083  0.36325  1.0000
  H   H2699     1.0  0.90537  0.89938  0.38217  1.0000
  C   C3364     1.0  0.71801  0.99095  0.04413  1.0000
  H   H2700     1.0  0.93121  0.90319  0.15526  1.0000
  C   C3365     1.0  0.87727  0.79502  0.49718  1.0000
  C   C3366     1.0  0.91492  0.89612  0.20700  1.0000
  C   C3367     1.0  0.93453  0.89617  0.21620  1.0000
  C   C3368     1.0  0.82953  0.99588  0.39572  1.0000
  P   P113      1.0  0.93644  0.89238  0.24439  1.0000
  C   C3369     1.0  0.70239  0.92786  0.01925  1.0000
  H   H2701     1.0  0.78552  0.96887  0.43065  1.0000
  H   H2702     1.0  0.69771  0.77863  0.04112  1.0000
  H   H2703     1.0  0.89857  0.89874  0.17811  1.0000
  Fe  Fe223     1.0  0.84247  0.98715  0.33221  1.0000
  H   H2704     1.0  0.81425  0.81760  0.43391  1.0000
  C   C3370     1.0  0.97478  0.89991  0.26160  1.0000
  H   H2705     1.0  0.86214  0.94568  0.46842  1.0000
  C   C3371     1.0  0.72741  0.78450  0.16462  1.0000
  C   C3372     1.0  0.91085  0.89887  0.25736  1.0000
  C   C3373     1.0  0.89549  0.88374  0.25922  1.0000
  C   C3374     1.0  0.87536  0.88864  0.26848  1.0000
  C   C3375     1.0  0.87038  0.90868  0.27596  1.0000
  C   C3376     1.0  0.88555  0.92373  0.27425  1.0000
  C   C3377     1.0  0.90570  0.91889  0.26505  1.0000
  H   H2706     1.0  0.67632  0.91069  0.07958  1.0000
  C   C3378     1.0  0.93213  0.90134  0.17224  1.0000
  C   C3379     1.0  0.72631  0.88246  0.48501  1.0000
  H   H2707     1.0  0.90047  0.89401  0.21658  1.0000
  C   C3380     1.0  0.98968  0.93404  0.26143  1.0000
  C   C3381     1.0  0.98938  0.97874  0.31411  1.0000
  S   S451      1.0  0.00061  0.78727  0.27508  1.0000
  S   S452      1.0  0.80711  0.99644  0.45716  1.0000
  H   H2708     1.0  0.92124  0.95823  0.34639  1.0000
  C   C3382     1.0  0.80846  0.81634  0.45028  1.0000
  H   H2709     1.0  0.96025  0.80742  0.26825  1.0000
  H   H2710     1.0  0.86362  0.87690  0.26987  1.0000
  H   H2711     1.0  0.85480  0.91257  0.28316  1.0000
  H   H2712     1.0  0.88186  0.93915  0.28038  1.0000
  H   H2713     1.0  0.91710  0.93082  0.26443  1.0000
  H   H2714     1.0  0.96601  0.90286  0.17124  1.0000
  C   C3383     1.0  0.84125  0.99014  0.49922  1.0000
  H   H2715     1.0  0.75854  0.90171  0.00374  1.0000
  H   H2716     1.0  0.99733  0.82729  0.43705  1.0000
  H   H2717     1.0  0.69686  0.78520  0.09822  1.0000
  C   C3384     1.0  0.94082  0.85798  0.27259  1.0000
  C   C3385     1.0  0.91363  0.98768  0.38984  1.0000
  H   H2718     1.0  0.67341  0.88259  0.49686  1.0000
  H   H2719     1.0  0.81262  0.97876  0.16261  1.0000
  H   H2720     1.0  0.69383  0.83651  0.43453  1.0000
  C   C3386     1.0  0.71312  0.75583  0.02072  1.0000
  H   H2721     1.0  0.71523  0.91590  0.01954  1.0000
  H   H2722     1.0  0.90850  0.95627  0.18098  1.0000
  H   H2723     1.0  0.74036  0.96697  0.42328  1.0000
  C   C3387     1.0  0.94679  0.83722  0.27860  1.0000
  C   C3388     1.0  0.72139  0.75924  0.05706  1.0000
  C   C3389     1.0  0.76836  0.99760  0.21335  1.0000
  C   C3390     1.0  0.87681  0.99478  0.20418  1.0000
  C   C3391     1.0  0.72711  0.88396  0.12391  1.0000
  H   H2724     1.0  0.96550  0.81986  0.23094  1.0000
  P   P114      1.0  0.71422  0.82582  0.10482  1.0000
  H   H2725     1.0  0.70591  0.90753  0.13810  1.0000
  C   C3392     1.0  0.70958  0.76576  0.03983  1.0000
  C   C3393     1.0  0.78838  0.79802  0.47851  1.0000
  H   H2726     1.0  0.75999  0.79173  0.15824  1.0000
  C   C3394     1.0  0.95594  0.93048  0.24627  1.0000
  H   H2727     1.0  0.89194  0.91912  0.46302  1.0000
  Fe  Fe224     1.0  0.78188  0.98852  0.48335  1.0000
  H   H2728     1.0  0.97092  0.95984  0.24769  1.0000
  H   H2729     1.0  0.92856  0.99307  0.32983  1.0000
  H   H2730     1.0  0.70868  0.96863  0.44806  1.0000
  S   S453      1.0  0.00000  0.79277  0.46774  1.0000
  C   C3395     1.0  0.95245  0.85136  0.23638  1.0000
  H   H2731     1.0  0.95497  0.85650  0.22002  1.0000
  H   H2732     1.0  0.77235  0.78752  0.06458  1.0000
  H   H2733     1.0  0.97627  0.88326  0.26567  1.0000
  H   H2734     1.0  0.74567  0.90919  0.48717  1.0000
  C   C3396     1.0  0.78105  0.97912  0.21044  1.0000
  H   H2735     1.0  0.68073  0.90699  0.00764  1.0000
  C   C3397     1.0  0.73543  0.82341  0.08474  1.0000
  C   C3398     1.0  0.85876  0.83594  0.50033  1.0000
  H   H2736     1.0  0.96829  0.89819  0.20984  1.0000
  H   H2737     1.0  0.86553  0.99328  0.23699  1.0000
  C   C3399     1.0  0.75457  0.93557  0.00221  1.0000
  H   H2738     1.0  0.72038  0.95134  0.03163  1.0000
  P   P115      1.0  0.77261  0.77638  0.48783  1.0000
  C   C3400     1.0  0.74741  0.80432  0.08258  1.0000
  H   H2739     1.0  0.79287  0.78801  0.44634  1.0000
  C   C3401     1.0  0.75462  0.83800  0.05373  1.0000
  C   C3402     1.0  0.79827  0.97402  0.22334  1.0000
  H   H2740     1.0  0.86789  0.84012  0.46726  1.0000
  C   C3403     1.0  0.71938  0.80911  0.12784  1.0000
  C   C3404     1.0  0.91375  0.89882  0.18511  1.0000
  C   C3405     1.0  0.71572  0.98301  0.44211  1.0000
  H   H2741     1.0  0.96623  0.76564  0.44496  1.0000
  H   H2742     1.0  0.80818  0.95994  0.22054  1.0000
  H   H2743     1.0  0.68655  0.80281  0.13533  1.0000
  C   C3406     1.0  0.95552  0.82349  0.26354  1.0000
  C   C3407     1.0  0.88547  0.96620  0.22941  1.0000
  H   H2744     1.0  0.76001  0.77672  0.02930  1.0000
  C   C3408     1.0  0.72993  0.90349  0.48938  1.0000
  C   C3409     1.0  0.70594  0.87462  0.48771  1.0000
  H   H2745     1.0  0.94274  0.93765  0.23798  1.0000
  C   C3410     1.0  0.74402  0.79389  0.15301  1.0000
  C   C3411     1.0  0.79307  0.81340  0.49238  1.0000
  C   C3412     1.0  0.85194  0.76208  0.47379  1.0000
  C   C3413     1.0  0.72913  0.86408  0.11538  1.0000
  H   H2746     1.0  0.94497  0.83188  0.29504  1.0000
  H   H2747     1.0  0.00217  0.94376  0.26545  1.0000
  H   H2748     1.0  0.75298  0.81387  0.12621  1.0000
  H   H2749     1.0  0.74456  0.85820  0.10939  1.0000
  C   C3414     1.0  0.77407  0.77161  0.02010  1.0000
  Fe  Fe225     1.0  0.67499  0.82568  0.48716  1.0000
  H   H2750     1.0  0.73038  0.78556  0.47132  1.0000
  C   C3415     1.0  0.68709  0.79739  0.09052  1.0000
  S   S454      1.0  0.82059  0.97535  0.35971  1.0000
  C   C3416     1.0  0.89759  0.95565  0.21373  1.0000
  C   C3417     1.0  0.92474  0.99151  0.34666  1.0000
  H   H2751     1.0  0.88381  0.95934  0.24529  1.0000
  C   C3418     1.0  0.80285  0.98696  0.23969  1.0000
  C   C3419     1.0  0.92485  0.78562  0.47572  1.0000
  C   C3420     1.0  0.95172  0.90117  0.18124  1.0000
  C   C3421     1.0  0.73900  0.77414  0.46155  1.0000
  H   H2752     1.0  0.99285  0.94871  0.38051  1.0000
  Fe  Fe226     1.0  0.72805  0.99399  0.17009  1.0000
  C   C3422     1.0  0.74353  0.98610  0.07125  1.0000
  C   C3423     1.0  0.87703  0.80899  0.47940  1.0000
  C   C3424     1.0  0.95294  0.89855  0.20313  1.0000
  C   C3425     1.0  0.97166  0.98405  0.30252  1.0000
  C   C3426     1.0  0.70270  0.80008  0.13987  1.0000
  C   C3427     1.0  0.94401  0.78482  0.46364  1.0000
  C   C3428     1.0  0.95104  0.76640  0.45375  1.0000
  S   S455      1.0  0.68664  0.98225  0.12851  1.0000
  H   H2753     1.0  0.85006  0.77895  0.47134  1.0000
  H   H2754     1.0  0.73942  0.87218  0.47946  1.0000
  C   C3429     1.0  0.67866  0.83407  0.08140  1.0000
  H   H2755     1.0  0.74448  0.79093  0.09322  1.0000
  C   C3430     1.0  0.94356  0.86521  0.25145  1.0000
  H   H2756     1.0  0.74745  0.81638  0.49293  1.0000
  S   S456      1.0  0.67914  0.85439  0.00471  1.0000
  C   C3431     1.0  0.97208  0.94307  0.25144  1.0000
  C   C3432     1.0  0.86909  0.75259  0.48447  1.0000
  C   C3433     1.0  0.73363  0.98207  0.42826  1.0000
  C   C3434     1.0  0.99116  0.91240  0.26620  1.0000
  C   C3435     1.0  0.69275  0.90934  0.49889  1.0000
  C   C3436     1.0  0.95687  0.90885  0.25182  1.0000
  H   H2757     1.0  0.98210  0.75270  0.32827  1.0000
  Fe  Fe227     1.0  0.68640  0.81961  0.00450  1.0000
  C   C3437     1.0  0.71313  0.91718  0.49629  1.0000
  H   H2758     1.0  0.82195  0.84490  0.45849  1.0000
  H   H2759     1.0  0.79153  0.96094  0.39273  1.0000
  C   C3438     1.0  0.81283  0.83171  0.46413  1.0000
  C   C3439     1.0  0.92033  0.97183  0.35604  1.0000
  C   C3440     1.0  0.70675  0.78767  0.15811  1.0000
  C   C3441     1.0  0.89929  0.96455  0.19320  1.0000
  H   H2760     1.0  0.96190  0.97397  0.37958  1.0000
  H   H2761     1.0  0.90545  0.94052  0.21749  1.0000
  H   H2762     1.0  0.77853  0.81728  0.03893  1.0000
  H   H2763     1.0  0.77793  0.96901  0.19793  1.0000
  H   H2764     1.0  0.95383  0.79823  0.46245  1.0000
  C   C3442     1.0  0.91234  0.76804  0.47774  1.0000
  C   C3443     1.0  0.83469  0.99655  0.17804  1.0000
  H   H2765     1.0  0.70365  0.76118  0.00764  1.0000
  H   H2766     1.0  0.90985  0.98650  0.40666  1.0000
  H   H2767     1.0  0.95690  0.97677  0.30667  1.0000
  H   H2768     1.0  0.74723  0.98133  0.08728  1.0000
  S   S457      1.0  0.74661  0.99530  0.48293  1.0000
  C   C3444     1.0  0.99900  0.75400  0.24867  1.0000
  C   C3445     1.0  0.72910  0.76682  0.44444  1.0000
  C   C3446     1.0  0.81539  0.99360  0.16931  1.0000
  H   H2769     1.0  0.69384  0.78069  0.16733  1.0000
  C   C3447     1.0  0.99512  0.96490  0.37555  1.0000
  C   C3448     1.0  0.87509  0.98562  0.22465  1.0000
  C   C3449     1.0  0.67838  0.84449  0.43318  1.0000
  S   S458      1.0  0.00142  0.85053  0.28867  1.0000
  Fe  Fe228     1.0  0.99943  0.76328  0.48973  1.0000
  C   C3450     1.0  0.73393  0.99859  0.02999  1.0000
  H   H2770     1.0  0.70532  0.98607  0.21479  1.0000
  H   H2771     1.0  0.83931  0.97758  0.48870  1.0000
  C   C3451     1.0  0.75917  0.99402  0.05723  1.0000
  H   H2772     1.0  0.77495  0.99548  0.06245  1.0000
  C   C3452     1.0  0.67092  0.79168  0.07822  1.0000
  C   C3453     1.0  0.68917  0.88824  0.49477  1.0000
  C   C3454     1.0  0.97996  0.99998  0.36765  1.0000
  C   C3455     1.0  0.75440  0.00019  0.03658  1.0000
  C   C3456     1.0  0.73960  0.75185  0.43166  1.0000
  C   C3457     1.0  0.77020  0.75183  0.45274  1.0000
  H   H2773     1.0  0.85172  0.85177  0.50159  1.0000
  C   C3458     1.0  0.74329  0.00052  0.42129  1.0000
  S   S459      1.0  0.71640  0.94425  0.50129  1.0000
  C   C3459     1.0  0.00294  0.81349  0.42869  1.0000
  C   C3460     1.0  0.71564  0.95854  0.75684  1.0000
  H   H2774     1.0  0.85155  0.82711  0.53299  1.0000
  C   C3461     1.0  0.69401  0.96391  0.76077  1.0000
  H   H2775     1.0  0.96741  0.81810  0.57814  1.0000
  Fe  Fe229     1.0  0.70635  0.96508  0.85418  1.0000
  H   H2776     1.0  0.80437  0.78574  0.97663  1.0000
  S   S460      1.0  0.71583  0.93176  0.86695  1.0000
  H   H2777     1.0  0.70360  0.91469  0.69660  1.0000
  H   H2778     1.0  0.83645  0.97062  0.52749  1.0000
  S   S461      1.0  0.70519  0.97233  0.81890  1.0000
  C   C3462     1.0  0.78397  0.94863  0.65813  1.0000
  C   C3463     1.0  0.98607  0.76516  0.82971  1.0000
  S   S462      1.0  0.70939  0.82271  0.97613  1.0000
  Fe  Fe230     1.0  0.70386  0.85816  0.97807  1.0000
  S   S463      1.0  0.69282  0.88644  0.95688  1.0000
  Fe  Fe231     1.0  0.85136  0.98242  0.71443  1.0000
  S   S464      1.0  0.85287  0.96489  0.68408  1.0000
  S   S465      1.0  0.82848  0.97062  0.74156  1.0000
  C   C3464     1.0  0.68751  0.98490  0.76438  1.0000
  C   C3465     1.0  0.76580  0.95282  0.70648  1.0000
  H   H2779     1.0  0.88879  0.93192  0.63049  1.0000
  C   C3466     1.0  0.69601  0.96252  0.96217  1.0000
  Fe  Fe232     1.0  0.88846  0.96580  0.68427  1.0000
  S   S466      1.0  0.91392  0.94175  0.67172  1.0000
  S   S467      1.0  0.88704  0.98046  0.71574  1.0000
  H   H2780     1.0  0.67653  0.92421  0.93619  1.0000
  H   H2781     1.0  0.70496  0.90492  0.82596  1.0000
  C   C3467     1.0  0.94082  0.80403  0.59459  1.0000
  S   S468      1.0  0.96604  0.86824  0.72130  1.0000
  H   H2782     1.0  0.69935  0.87750  0.70869  1.0000
  S   S469      1.0  0.98910  0.81630  0.69272  1.0000
  H   H2783     1.0  0.72412  0.76663  0.55083  1.0000
  C   C3468     1.0  0.68367  0.92249  0.74684  1.0000
  C   C3469     1.0  0.72751  0.81211  0.52098  1.0000
  C   C3470     1.0  0.94165  0.79889  0.79703  1.0000
  Fe  Fe233     1.0  0.77988  0.97806  0.53169  1.0000
  S   S470      1.0  0.80128  0.96674  0.55868  1.0000
  S   S471      1.0  0.74445  0.98372  0.53411  1.0000
  H   H2784     1.0  0.73367  0.89462  0.88825  1.0000
  H   H2785     1.0  0.91917  0.90867  0.64041  1.0000
  S   S472      1.0  0.96975  0.75861  0.51036  1.0000
  C   C3471     1.0  0.74572  0.77113  0.52380  1.0000
  C   C3472     1.0  0.76917  0.76852  0.94467  1.0000
  Fe  Fe234     1.0  0.67672  0.99418  0.82708  1.0000
  C   C3473     1.0  0.92933  0.92261  0.68635  1.0000
  C   C3474     1.0  0.94656  0.91167  0.67600  1.0000
  C   C3475     1.0  0.95828  0.89534  0.68659  1.0000
  C   C3476     1.0  0.95290  0.88977  0.70769  1.0000
  C   C3477     1.0  0.93616  0.90119  0.71824  1.0000
  C   C3478     1.0  0.92441  0.91750  0.70765  1.0000
  H   H2786     1.0  0.95072  0.91563  0.65961  1.0000
  H   H2787     1.0  0.97120  0.88680  0.67833  1.0000
  H   H2788     1.0  0.93194  0.89710  0.73460  1.0000
  H   H2789     1.0  0.91129  0.92583  0.71585  1.0000
  H   H2790     1.0  0.72121  0.94233  0.75517  1.0000
  C   C3479     1.0  0.83267  0.97718  0.61138  1.0000
  C   C3480     1.0  0.82597  0.96867  0.59289  1.0000
  C   C3481     1.0  0.80971  0.97886  0.58134  1.0000
  H   H2791     1.0  0.84509  0.96908  0.62009  1.0000
  H   H2792     1.0  0.83331  0.95397  0.58759  1.0000
  C   C3482     1.0  0.93822  0.83799  0.66666  1.0000
  H   H2793     1.0  0.90748  0.88375  0.66765  1.0000
  H   H2794     1.0  0.80761  0.93355  0.73428  1.0000
  H   H2795     1.0  0.92024  0.83906  0.71814  1.0000
  H   H2796     1.0  0.72987  0.77195  0.98298  1.0000
  C   C3483     1.0  0.77734  0.97731  0.78393  1.0000
  C   C3484     1.0  0.79413  0.96896  0.77060  1.0000
  C   C3485     1.0  0.80753  0.98216  0.75822  1.0000
  C   C3486     1.0  0.69216  0.91521  0.82015  1.0000
  C   C3487     1.0  0.80031  0.99779  0.58855  1.0000
  H   H2797     1.0  0.76724  0.96690  0.79325  1.0000
  H   H2798     1.0  0.79682  0.95210  0.77000  1.0000
  H   H2799     1.0  0.92575  0.77419  0.51870  1.0000
  C   C3488     1.0  0.71005  0.92000  0.89250  1.0000
  C   C3489     1.0  0.69414  0.92841  0.90633  1.0000
  C   C3490     1.0  0.69182  0.92128  0.79870  1.0000
  C   C3491     1.0  0.70042  0.89912  0.93219  1.0000
  C   C3492     1.0  0.71669  0.89097  0.91859  1.0000
  C   C3493     1.0  0.72133  0.90128  0.89881  1.0000
  C   C3494     1.0  0.85869  0.82205  0.51803  1.0000
  C   C3495     1.0  0.98698  0.77538  0.60975  1.0000
  H   H2800     1.0  0.97886  0.91942  0.59962  1.0000
  C   C3496     1.0  0.77447  0.97069  0.88740  1.0000
  H   H2801     1.0  0.67356  0.99021  0.99335  1.0000
  C   C3497     1.0  0.92206  0.84374  0.70155  1.0000
  C   C3498     1.0  0.74947  0.91363  0.97312  1.0000
  H   H2802     1.0  0.94595  0.96487  0.69623  1.0000
  C   C3499     1.0  0.99000  0.75255  0.92099  1.0000
  C   C3500     1.0  0.99361  0.77614  0.58818  1.0000
  H   H2803     1.0  0.67701  0.91880  0.85112  1.0000
  H   H2804     1.0  0.86252  0.91952  0.60706  1.0000
  H   H2805     1.0  0.90878  0.82695  0.63276  1.0000
  H   H2806     1.0  0.68623  0.95955  0.66891  1.0000
  H   H2807     1.0  0.92914  0.79898  0.80933  1.0000
  C   C3501     1.0  0.67455  0.96155  0.95859  1.0000
  H   H2808     1.0  0.74884  0.89815  0.96687  1.0000
  C   C3502     1.0  0.69161  0.92718  0.72617  1.0000
  H   H2809     1.0  0.94479  0.90327  0.60640  1.0000
  S   S473      1.0  0.73019  0.86107  0.99983  1.0000
  H   H2810     1.0  0.74884  0.79401  0.95651  1.0000
  S   S474      1.0  0.67651  0.98483  0.86185  1.0000
  C   C3503     1.0  0.70929  0.97379  0.94784  1.0000
  H   H2811     1.0  0.72540  0.87652  0.92311  1.0000
  C   C3504     1.0  0.97374  0.79965  0.76493  1.0000
  C   C3505     1.0  0.96084  0.81775  0.76863  1.0000
  C   C3506     1.0  0.94484  0.81739  0.78473  1.0000
  H   H2812     1.0  0.79176  0.94144  0.67158  1.0000
  C   C3507     1.0  0.97837  0.98174  0.64989  1.0000
  C   C3508     1.0  0.95698  0.87824  0.62751  1.0000
  H   H2813     1.0  0.74000  0.92941  0.94456  1.0000
  H   H2814     1.0  0.79800  0.96200  0.70844  1.0000
  Fe  Fe235     1.0  0.99323  0.84733  0.70727  1.0000
  C   C3509     1.0  0.75183  0.97324  0.92668  1.0000
  C   C3510     1.0  0.91543  0.76416  0.52821  1.0000
  C   C3511     1.0  0.99983  0.76238  0.84616  1.0000
  H   H2815     1.0  0.70835  0.80313  0.54865  1.0000
  H   H2816     1.0  0.99031  0.77542  0.81627  1.0000
  C   C3512     1.0  0.99393  0.78980  0.62372  1.0000
  C   C3513     1.0  0.74317  0.80556  0.50594  1.0000
  C   C3514     1.0  0.79066  0.94226  0.63794  1.0000
  H   H2817     1.0  0.89702  0.85968  0.60403  1.0000
  P   P116      1.0  0.73714  0.97465  0.95197  1.0000
  H   H2818     1.0  0.78718  0.81254  0.50874  1.0000
  H   H2819     1.0  0.96325  0.83204  0.75899  1.0000
  H   H2820     1.0  0.72507  0.95424  0.66586  1.0000
  C   C3515     1.0  0.91513  0.86898  0.67277  1.0000
  H   H2821     1.0  0.98255  0.96737  0.64182  1.0000
  H   H2822     1.0  0.94865  0.82839  0.65645  1.0000
  H   H2823     1.0  0.91389  0.79390  0.61375  1.0000
  H   H2824     1.0  0.68445  0.86907  0.74488  1.0000
  C   C3516     1.0  0.68073  0.90147  0.75337  1.0000
  C   C3517     1.0  0.74453  0.93154  0.96042  1.0000
  C   C3518     1.0  0.75661  0.92212  0.72860  1.0000
  H   H2825     1.0  0.70218  0.95416  0.97592  1.0000
  H   H2826     1.0  0.78130  0.90827  0.74766  1.0000
  C   C3519     1.0  0.95669  0.96286  0.70891  1.0000
  C   C3520     1.0  0.74620  0.95928  0.91178  1.0000
  H   H2827     1.0  0.96265  0.85114  0.59667  1.0000
  H   H2828     1.0  0.86682  0.88336  0.59392  1.0000
  Fe  Fe236     1.0  0.74415  0.96575  0.50418  1.0000
  C   C3521     1.0  0.74214  0.76459  0.97288  1.0000
  C   C3522     1.0  0.69735  0.91100  0.71250  1.0000
  C   C3523     1.0  0.99197  0.95464  0.72107  1.0000
  C   C3524     1.0  0.98380  0.95627  0.74199  1.0000
  C   C3525     1.0  0.78625  0.95099  0.71393  1.0000
  H   H2829     1.0  0.98860  0.78900  0.64021  1.0000
  H   H2830     1.0  0.76430  0.99502  0.72554  1.0000
  C   C3526     1.0  0.92427  0.80660  0.60992  1.0000
  C   C3527     1.0  0.68653  0.88530  0.73968  1.0000
  S   S475      1.0  0.77947  0.95817  0.50301  1.0000
  C   C3528     1.0  0.94875  0.96474  0.72973  1.0000
  C   C3529     1.0  0.95162  0.83902  0.60047  1.0000
  C   C3530     1.0  0.76541  0.96756  0.62259  1.0000
  C   C3531     1.0  0.99607  0.89626  0.61868  1.0000
  H   H2831     1.0  0.90253  0.87228  0.70471  1.0000
  H   H2832     1.0  0.82448  0.75246  0.98701  1.0000
  H   H2833     1.0  0.94342  0.78934  0.58661  1.0000
  C   C3532     1.0  0.67647  0.92318  0.83444  1.0000
  H   H2834     1.0  0.73275  0.94969  0.91489  1.0000
  C   C3533     1.0  0.89632  0.75843  0.52062  1.0000
  C   C3534     1.0  0.71790  0.96578  0.67646  1.0000
  H   H2835     1.0  0.78293  0.96988  0.87211  1.0000
  C   C3535     1.0  0.68928  0.91791  0.92592  1.0000
  C   C3536     1.0  0.75870  0.97403  0.64274  1.0000
  C   C3537     1.0  0.95845  0.89634  0.61409  1.0000
  H   H2836     1.0  0.95601  0.96257  0.76243  1.0000
  C   C3538     1.0  0.95439  0.82027  0.58980  1.0000
  C   C3539     1.0  0.92144  0.82533  0.62065  1.0000
  H   H2837     1.0  0.71070  0.99291  0.91870  1.0000
  C   C3540     1.0  0.75281  0.77724  0.95768  1.0000
  C   C3541     1.0  0.97823  0.95790  0.70453  1.0000
  H   H2838     1.0  0.68526  0.94273  0.90173  1.0000
  C   C3542     1.0  0.68618  0.98299  0.69224  1.0000
  C   C3543     1.0  0.93520  0.84164  0.61613  1.0000
  C   C3544     1.0  0.74478  0.95173  0.96840  1.0000
  C   C3545     1.0  0.91712  0.76645  0.83759  1.0000
  H   H2839     1.0  0.80341  0.93034  0.63597  1.0000
  C   C3546     1.0  0.76878  0.98617  0.92149  1.0000
  C   C3547     1.0  0.97061  0.78119  0.77721  1.0000
  H   H2840     1.0  0.98070  0.76731  0.77407  1.0000
  C   C3548     1.0  0.97537  0.86915  0.63624  1.0000
  H   H2841     1.0  0.97494  0.85480  0.64604  1.0000
  H   H2842     1.0  0.98616  0.79983  0.75245  1.0000
  C   C3549     1.0  0.69584  0.96857  0.67831  1.0000
  H   H2843     1.0  0.77333  0.99748  0.93225  1.0000
  C   C3550     1.0  0.75768  0.95781  0.89240  1.0000
  H   H2844     1.0  0.77783  0.77854  0.93342  1.0000
  C   C3551     1.0  0.81053  0.75767  0.99636  1.0000
  C   C3552     1.0  0.97787  0.90546  0.60995  1.0000
  C   C3553     1.0  0.99482  0.87808  0.63172  1.0000
  H   H2845     1.0  0.00072  0.87765  0.74730  1.0000
  C   C3554     1.0  0.78124  0.95157  0.62021  1.0000
  Fe  Fe237     1.0  0.73420  0.82527  0.00008  1.0000
  H   H2846     1.0  0.86758  0.79108  0.53035  1.0000
  C   C3555     1.0  0.74911  0.95350  0.98968  1.0000
  H   H2847     1.0  0.75202  0.75499  0.52479  1.0000
  C   C3556     1.0  0.83956  0.98626  0.52104  1.0000
  H   H2848     1.0  0.69334  0.94337  0.72066  1.0000
  P   P117      1.0  0.67529  0.94358  0.76387  1.0000
  C   C3557     1.0  0.91210  0.86245  0.69398  1.0000
  C   C3558     1.0  0.73041  0.97404  0.75597  1.0000
  H   H2849     1.0  0.73536  0.93890  0.70804  1.0000
  H   H2850     1.0  0.98391  0.95619  0.68830  1.0000
  H   H2851     1.0  0.78654  0.94674  0.60453  1.0000
  H   H2852     1.0  0.94272  0.81697  0.69381  1.0000
  H   H2853     1.0  0.99404  0.95329  0.75499  1.0000
  H   H2854     1.0  0.74516  0.91094  0.73434  1.0000
  H   H2855     1.0  0.74794  0.96856  0.99686  1.0000
  H   H2856     1.0  0.70448  0.91549  0.78797  1.0000
  H   H2857     1.0  0.97623  0.76364  0.61569  1.0000
  C   C3559     1.0  0.75479  0.91564  0.99392  1.0000
  P   P118      1.0  0.75904  0.97299  0.68668  1.0000
  H   H2858     1.0  0.93488  0.83147  0.78759  1.0000
  H   H2859     1.0  0.80961  0.77783  0.51355  1.0000
  H   H2860     1.0  0.96312  0.75313  0.97624  1.0000
  C   C3560     1.0  0.76772  0.96439  0.66071  1.0000
  C   C3561     1.0  0.95448  0.78058  0.79327  1.0000
  C   C3562     1.0  0.69491  0.89005  0.71929  1.0000
  C   C3563     1.0  0.80635  0.76156  0.51194  1.0000
  C   C3564     1.0  0.79178  0.93482  0.72856  1.0000
  H   H2861     1.0  0.74713  0.96976  0.75345  1.0000
  C   C3565     1.0  0.77695  0.92053  0.73606  1.0000
  C   C3566     1.0  0.72994  0.77770  0.53871  1.0000
  C   C3567     1.0  0.96229  0.96144  0.74628  1.0000
  C   C3568     1.0  0.67556  0.93518  0.79141  1.0000
  C   C3569     1.0  0.93493  0.83142  0.68785  1.0000
  C   C3570     1.0  0.87834  0.88880  0.60405  1.0000
  C   C3571     1.0  0.87590  0.90918  0.61141  1.0000
  C   C3572     1.0  0.89070  0.91621  0.62450  1.0000
  C   C3573     1.0  0.90793  0.90292  0.63018  1.0000
  C   C3574     1.0  0.91048  0.88236  0.62302  1.0000
  C   C3575     1.0  0.89552  0.87539  0.60986  1.0000
  P   P119      1.0  0.93246  0.86509  0.63132  1.0000
  C   C3576     1.0  0.92829  0.85685  0.65887  1.0000
  H   H2862     1.0  0.75324  0.94699  0.88100  1.0000
  C   C3577     1.0  0.73054  0.97762  0.68834  1.0000
  S   S476      1.0  0.98335  0.75817  0.57119  1.0000
  H   H2863     1.0  0.72004  0.82782  0.51955  1.0000
  C   C3578     1.0  0.75110  0.93809  0.71373  1.0000
  C   C3579     1.0  0.72092  0.79820  0.53737  1.0000
  C   C3580     1.0  0.79901  0.77658  0.99047  1.0000
  C   C3581     1.0  0.77996  0.98493  0.90191  1.0000
  C   C3582     1.0  0.77375  0.99911  0.78527  1.0000
  H   H2864     1.0  0.94536  0.97520  0.65473  1.0000
  H   H2865     1.0  0.99306  0.91191  0.72934  1.0000
  H   H2866     1.0  0.93682  0.76059  0.55349  1.0000
  C   C3583     1.0  0.74236  0.99920  0.96350  1.0000
  H   H2867     1.0  0.75867  0.97518  0.60871  1.0000
  H   H2868     1.0  0.83857  0.99952  0.55146  1.0000
  C   C3584     1.0  0.95743  0.98612  0.65715  1.0000
  C   C3585     1.0  0.67928  0.98322  0.92657  1.0000
  S   S477      1.0  0.76736  0.80845  0.99461  1.0000
  H   H2869     1.0  0.79275  0.99518  0.89786  1.0000
  C   C3586     1.0  0.82327  0.99613  0.61855  1.0000
  H   H2870     1.0  0.97740  0.76453  0.91874  1.0000
  H   H2871     1.0  0.92844  0.77488  0.84556  1.0000
  C   C3587     1.0  0.86787  0.80164  0.51648  1.0000
  H   H2872     1.0  0.93201  0.96848  0.73300  1.0000
  C   C3588     1.0  0.70076  0.98416  0.93003  1.0000
  S   S478      1.0  0.66998  0.80948  0.51908  1.0000
  C   C3589     1.0  0.75264  0.78508  0.50743  1.0000
  H   H2873     1.0  0.67396  0.89755  0.76899  1.0000
  H   H2874     1.0  0.67959  0.91970  0.50417  1.0000
  C   C3590     1.0  0.72064  0.99196  0.70241  1.0000
  H   H2875     1.0  0.67292  0.99109  0.91262  1.0000
  C   C3591     1.0  0.89626  0.76612  0.84597  1.0000
  H   H2876     1.0  0.89161  0.77415  0.86032  1.0000
  S   S479      1.0  0.88923  0.99681  0.66566  1.0000
  Fe  Fe238     1.0  0.85357  0.99685  0.66769  1.0000
  C   C3592     1.0  0.92164  0.75671  0.54809  1.0000
  S   S480      1.0  0.72824  0.99082  0.85896  1.0000
  C   C3593     1.0  0.99393  0.99572  0.65330  1.0000
  H   H2877     1.0  0.77310  0.98825  0.97413  1.0000
  Fe  Fe239     1.0  0.72542  0.99919  0.82421  1.0000
  H   H2878     1.0  0.74671  0.98675  0.64428  1.0000
  C   C3594     1.0  0.96756  0.75407  0.83034  1.0000
  C   C3595     1.0  0.69858  0.99457  0.70438  1.0000
  C   C3596     1.0  0.77180  0.99675  0.69178  1.0000
  C   C3597     1.0  0.72377  0.99492  0.75949  1.0000
  H   H2879     1.0  0.67110  0.98925  0.76841  1.0000
  P   P120      1.0  0.95036  0.75631  0.80855  1.0000
  Fe  Fe240     1.0  0.67159  0.77892  0.50231  1.0000
  H   H2880     1.0  0.86526  0.75505  0.84250  1.0000
  C   C3598     1.0  0.92330  0.75596  0.81908  1.0000
  C   C3599     1.0  0.88141  0.75536  0.83593  1.0000
  C   C3600     1.0  0.70234  0.00033  0.76377  1.0000
