data_image0
_chemical_formula_structural       FeS2FeS2FeSFeS3C2SFeSHSCFeSCHFeSH2C2SCSC2PH2C6H4C3H2C6H4C6H4SHC4HCH5C2H5CH4CHCHC3SCHCHC4HCHC3H4CSH2C6PC18H11CH7C4H2SC3HSH2C4H2C2HC4H2C2FeHCHC2H2C6PC8HC7H10CH6FeHSH5C5HCHCHCH2CHC2FeS2FeS2FeSFeS3CHSFeSCH2FeSCHFeSHCHCHCSCH2C8H4CHCH2C6H4C6H5C3HC2HCHSHCH2C3HC3H2SH2C2HC9PC2FeHC3H6SH4CHC2H4CH2CHCHCHC6H2SH2CHCHC2PH5C10PC2HC5FeH2C7H6CH4CH7C3PC21H3CH12CHPC4H2C12H2CH8C2H3CHC3HCH3C3S3H3C2HFeHC3H2PCH2C4HCFeS2FeS2FeSFeS3FeHSCSHCSFeHCSCHFeSHC2HC7H4C6H4C6H4C3H2C3H3C12HCH6C2HPC6PC18HCH18PH2C3H2CPH2C2H2C2HSHC2HC2HCHCH2CSH2C4PC5H2C11H5CH2CH11FeHCH3CH3C6H3C4SHC3HC2SCHCHC2HCHC2H2C4HCHCH3C3HC2SH2CSC4H2C3H2C6H2FeC4H4CH2CHPH4FeS2FeS2FeSFeS3FeS2HCHCSCH2SH2FeSC2HCHC6H4C6H4C6H4FeC2HCHCH3CHSH2CPHC3SH2CH2C6SC2H2C6HCHCH3SHC2HCH2C3HCHC4PC6HC5HCH2CH2CH3C2H5CH2CHCH3CH2C5SFeCHC4PC15HC2H15CH2SCH5C7PC10H2CH2C4H4C4H2PH2CHCH6FeH4C2S2CFeSHS2CFeSFeSCSFeH2SFeS2C3FeCSCSH3FeSC2H3C2H3C2HCH2CH3CHC9H2CHC6H4CHC9H4C6H6CH6C2SPCHCH2C2HSC3HFeC6H2SHFeHFeH2C2HSCH2FeC2H2CHSHCFeHSCHCHCHC2H6C2HC6PC15H7FeCH2C2H2CH2C6PC15H2CH17CH4C3HPCH2CH3C13H3C12H2S2C6HSH2CHCHSH2CH2CHC2HC2SH3C4PCH4C2H5CHC3SHFeSFeS2H2CFeSHSC2S2FeSFeS2CHCSHSHSCFeSHC5HCHCH2CHC2H3SHC3HC6H4C6H3CH3FeHC6H4C6H4CH3CSHCH2CHSH2FeCH3CH3CH2SHCFeHC4FeHC5HC2HC3H2FeHC2H2C7PC3H2C4H2C4FeC2H6CH3C2H4CH3CHCPC2HC2H3C2H2CHC5HC2HCH2C2H2CH2CHC2HCHC3HCPCHCFeC10HC7H8CHC3HC3PC6HSHSPC2HCHPC2HC2HC4H2SH2CH2FeSFeSH3S3FeSFeSH2CFeS2FeHC2SC4FeS2FeSCS2C5HCH4C6H4C6H3C6H4C6H4C2HFeCH4CHCH3CHC2HCHC6PC2HCHCHC11H2CH4C2H3FeH7CHCH2C2SC4HCHS2FeC2SCH2CFeH2SHCSC4H2SCHCHCH3CFeCHCHC11HCHSCHCPH2C3H8C3HCH2CHC2H2CHCH2C3H3C6PHC6H3C8H10CH2PHC5HCS2CHCH2CH2SCHCHC2H2PHFeSFeSFeSCS3FeSFeSC3FeS2FeSHS2C2HSFeS2FeSPS2HC5H4C7H4C6H3C6H4C6H4C2H4CHFe2H2C3H2CHC3HCHCH2SH2CHCH3C10PC18H21CHSHCFeH2C2HCHCH2CH3SHCH3C7H3CH2FeH2SC2H2CH3CHCH4C7PC18H20C7PC18H3CHCHC3H2C3H2C2H2CHFeH2CHCSHC2HCSHFeS2FeS2FeSFeS3FeS2CSHFeSFeS2CFeHSC3HC2H2C6HC6H4C3H2C6H4C6H4C6PC5HC2H8CH2CHCH2CPC2H2C3H2CHCHCHC2HSC2H2C2HC2FeC5HC2H2C4HC2H2CHC2HCHC3P2C19HCH14C2H3CHCH3CSHC2H2CHC8HC2H3CH6C3PCH5CPH2CH2C4H2CHC3HC5H2C2HCH4CH2SHCHCSH4CH4FeS2FeS2FeSFeS3FeS2HSCFeSFeCSCFeCSHS2H2C4HCHC2HC6H4C2PHC7H4C6H6CHSCHCHC2H2CH2C6SC4HCHC3H2CPHC2SCH2CH2C2H5CH2C2HC2HC4H2C2HCH2C6PC18H10C2H6C2HC3PCSHC4H4CHC3H2CHC2H8C4H2CHCHCHC3HFeC2HCH2CHCH2CHC2HPHC6PC18H12CHC2H4C2H5PH3C2H2CHCSCH2CH2CHCFeHC2FeS2FeS2FeSFeS3FeCSFeS2H2C2S2FeCSCS2CH2C3HC7H4C6H4C6H4C4H2C2H3C3HC2H2C2HC2H6CH4CH2C3HC8PC2H5CHCPC7SFeHCHC2HC4H7CHCH2C5HCH2C2H2C3HCH2C2PCHCHCH3CH2CHFeC4H2C5HSCH2C2HCHPHCHCHCPC5H3C3H2C2H3FeCH6C2SCH2CH5C2HC2H2CH4CHC2HCHC7PC12H2CH4C2SH3CHCHC2HC2HC5HCHC2H8C2H2FeS2FeS2FeSFeS3FeHCFeS2FeCHCS2FeHSHCSH2C12H4C6H4C6H4C3H3CH3SC2H4PCHC4HC8H8CHCH2C2H2C3H2PH2C6PC3H2C9H6CH2CHSH4SCPC5HC6HC2H2CHC2HCFeC3H3C3HC3H3C2HCHCHC3H4CHC4H2C3HC4PCHCH2C2HCHC4HC3HCH4C2H2CH5C2SH2C2H3C2SHC2HC5H4C4H2
_chemical_formula_sum              "Fe128 S256 C1920 H1536 P64"
_cell_length_a       76.1735
_cell_length_b       38.4584
_cell_length_c       47.2547
_cell_angle_alpha    91.2459
_cell_angle_beta     91.1443
_cell_angle_gamma    89.733

_space_group_name_H-M_alt    "P 1"
_space_group_IT_number       1

loop_
  _space_group_symop_operation_xyz
  'x, y, z'

loop_
  _atom_site_type_symbol
  _atom_site_label
  _atom_site_symmetry_multiplicity
  _atom_site_fract_x
  _atom_site_fract_y
  _atom_site_fract_z
  _atom_site_occupancy
  Fe  Fe1       1.0  0.13108  0.19761  0.24079  1.0000
  S   S1        1.0  0.15804  0.17461  0.23416  1.0000
  S   S2        1.0  0.11132  0.22129  0.20836  1.0000
  Fe  Fe2       1.0  0.13363  0.18742  0.30606  1.0000
  S   S3        1.0  0.16071  0.16389  0.30316  1.0000
  S   S4        1.0  0.11830  0.19051  0.34783  1.0000
  Fe  Fe3       1.0  0.16659  0.20639  0.27261  1.0000
  S   S5        1.0  0.19038  0.24256  0.27952  1.0000
  Fe  Fe4       1.0  0.15051  0.13285  0.26511  1.0000
  S   S6        1.0  0.16124  0.07645  0.25897  1.0000
  S   S7        1.0  0.13996  0.23167  0.27788  1.0000
  S   S8        1.0  0.12295  0.15405  0.26948  1.0000
  C   C1        1.0  0.06258  0.17260  0.03023  1.0000
  C   C2        1.0  0.05935  0.41781  0.30846  1.0000
  S   S9        1.0  0.10624  0.29985  0.45103  1.0000
  Fe  Fe5       1.0  0.05193  0.32331  0.01590  1.0000
  S   S10       1.0  0.06859  0.35379  0.04814  1.0000
  H   H1        1.0  0.30924  0.07832  0.06832  1.0000
  S   S11       1.0  0.10254  0.32675  0.01298  1.0000
  C   C3        1.0  0.08594  0.29340  0.28817  1.0000
  Fe  Fe6       1.0  0.08661  0.30628  0.04875  1.0000
  S   S12       1.0  0.10568  0.28131  0.08173  1.0000
  C   C4        1.0  0.99022  0.44805  0.05221  1.0000
  H   H2        1.0  0.13430  0.25856  0.36304  1.0000
  Fe  Fe7       1.0  0.29383  0.28342  0.24703  1.0000
  S   S13       1.0  0.26826  0.25626  0.23185  1.0000
  H   H3        1.0  0.06893  0.99997  0.42097  1.0000
  H   H4        1.0  0.10743  0.21954  0.03602  1.0000
  C   C5        1.0  0.09487  0.36111  0.38030  1.0000
  C   C6        1.0  0.31837  0.45443  0.25280  1.0000
  S   S14       1.0  0.30956  0.31390  0.21592  1.0000
  C   C7        1.0  0.05263  0.34743  0.29706  1.0000
  S   S15       1.0  0.02217  0.33507  0.01199  1.0000
  C   C8        1.0  0.00036  0.28216  0.03129  1.0000
  C   C9        1.0  0.00169  0.31382  0.01744  1.0000
  P   P1        1.0  0.07546  0.32372  0.33933  1.0000
  H   H5        1.0  0.01214  0.26950  0.03915  1.0000
  H   H6        1.0  0.08672  0.31957  0.28034  1.0000
  C   C10       1.0  0.21220  0.24462  0.26659  1.0000
  C   C11       1.0  0.22380  0.26954  0.27860  1.0000
  C   C12       1.0  0.24109  0.27293  0.26881  1.0000
  C   C13       1.0  0.24702  0.25160  0.24659  1.0000
  C   C14       1.0  0.23545  0.22652  0.23468  1.0000
  C   C15       1.0  0.21817  0.22301  0.24458  1.0000
  H   H7        1.0  0.21935  0.28649  0.29558  1.0000
  H   H8        1.0  0.24977  0.29236  0.27820  1.0000
  H   H9        1.0  0.23986  0.20987  0.21750  1.0000
  H   H10       1.0  0.20942  0.20398  0.23490  1.0000
  C   C16       1.0  0.15409  0.03185  0.25997  1.0000
  C   C17       1.0  0.99625  0.43530  0.45642  1.0000
  C   C18       1.0  0.13656  0.02244  0.26394  1.0000
  H   H11       1.0  0.18012  0.01155  0.25314  1.0000
  H   H12       1.0  0.12676  0.04257  0.26682  1.0000
  C   C19       1.0  0.11010  0.23738  0.17289  1.0000
  C   C20       1.0  0.09442  0.25331  0.16328  1.0000
  C   C21       1.0  0.09274  0.26670  0.13563  1.0000
  C   C22       1.0  0.10679  0.26448  0.11698  1.0000
  C   C23       1.0  0.12243  0.24830  0.12651  1.0000
  C   C24       1.0  0.12408  0.23480  0.15412  1.0000
  H   H13       1.0  0.08343  0.25537  0.17738  1.0000
  H   H14       1.0  0.08059  0.27887  0.12882  1.0000
  H   H15       1.0  0.13335  0.24592  0.11235  1.0000
  H   H16       1.0  0.13615  0.22226  0.16082  1.0000
  C   C25       1.0  0.11526  0.22146  0.37627  1.0000
  C   C26       1.0  0.10296  0.21423  0.39724  1.0000
  C   C27       1.0  0.10016  0.23748  0.42038  1.0000
  C   C28       1.0  0.10972  0.26844  0.42303  1.0000
  C   C29       1.0  0.12210  0.27558  0.40215  1.0000
  C   C30       1.0  0.12478  0.25249  0.37886  1.0000
  H   H17       1.0  0.09551  0.19037  0.39560  1.0000
  H   H18       1.0  0.09060  0.23140  0.43612  1.0000
  H   H19       1.0  0.12963  0.29928  0.40394  1.0000
  H   H20       1.0  0.03494  0.36536  0.26430  1.0000
  S   S16       1.0  0.31678  0.24863  0.25853  1.0000
  H   H21       1.0  0.14523  0.31015  0.07532  1.0000
  C   C31       1.0  0.15298  0.33033  0.11652  1.0000
  C   C32       1.0  0.09552  0.34079  0.35526  1.0000
  C   C33       1.0  0.13405  0.37556  0.46634  1.0000
  C   C34       1.0  0.99763  0.47131  0.46094  1.0000
  H   H22       1.0  0.15277  0.00775  0.36052  1.0000
  C   C35       1.0  0.14010  0.22590  0.00012  1.0000
  H   H23       1.0  0.14358  0.35158  0.11593  1.0000
  H   H24       1.0  0.04097  0.42785  0.27432  1.0000
  H   H25       1.0  0.03105  0.28327  0.42854  1.0000
  H   H26       1.0  0.31936  0.39595  0.32154  1.0000
  H   H27       1.0  0.16227  0.37760  0.46813  1.0000
  C   C36       1.0  0.11186  0.33418  0.34286  1.0000
  C   C37       1.0  0.09029  0.26550  0.27014  1.0000
  H   H28       1.0  0.16628  0.26076  0.07675  1.0000
  H   H29       1.0  0.06278  0.17620  0.07588  1.0000
  H   H30       1.0  0.08248  0.36620  0.39049  1.0000
  H   H31       1.0  0.04978  0.32026  0.29253  1.0000
  H   H32       1.0  0.31146  0.44638  0.29603  1.0000
  C   C38       1.0  0.16574  0.27908  0.09445  1.0000
  H   H33       1.0  0.08503  0.19909  0.31547  1.0000
  H   H34       1.0  0.13837  0.37863  0.38971  1.0000
  H   H35       1.0  0.03681  0.32517  0.34582  1.0000
  H   H36       1.0  0.06696  0.10597  0.00093  1.0000
  C   C39       1.0  0.31523  0.46527  0.28077  1.0000
  H   H37       1.0  0.21235  0.31674  0.99869  1.0000
  C   C40       1.0  0.12643  0.36834  0.38000  1.0000
  H   H38       1.0  0.25926  0.04524  0.38679  1.0000
  C   C41       1.0  0.29755  0.06555  0.99881  1.0000
  C   C42       1.0  0.13899  0.26139  0.00679  1.0000
  C   C43       1.0  0.03200  0.30459  0.38669  1.0000
  S   S17       1.0  0.06893  0.27484  0.01881  1.0000
  C   C44       1.0  0.03938  0.29062  0.41130  1.0000
  H   H39       1.0  0.07745  0.24787  0.34757  1.0000
  C   C45       1.0  0.06831  0.29575  0.39166  1.0000
  H   H40       1.0  0.05086  0.05039  0.99969  1.0000
  C   C46       1.0  0.00135  0.41880  0.05101  1.0000
  C   C47       1.0  0.12723  0.34797  0.35520  1.0000
  C   C48       1.0  0.27937  0.06304  0.00178  1.0000
  C   C49       1.0  0.04752  0.40811  0.28675  1.0000
  H   H41       1.0  0.27282  0.10337  0.39422  1.0000
  C   C50       1.0  0.08064  0.25325  0.32588  1.0000
  H   H42       1.0  0.09427  0.27006  0.24863  1.0000
  C   C51       1.0  0.05754  0.28615  0.41374  1.0000
  C   C52       1.0  0.08974  0.23153  0.27988  1.0000
  C   C53       1.0  0.08648  0.46721  0.01013  1.0000
  H   H43       1.0  0.06332  0.27543  0.43284  1.0000
  H   H44       1.0  0.24416  0.32310  0.21748  1.0000
  H   H45       1.0  0.13325  0.27004  0.02659  1.0000
  H   H46       1.0  0.01790  0.30792  0.38487  1.0000
  C   C54       1.0  0.06474  0.35694  0.31865  1.0000
  S   S18       1.0  0.09261  0.42512  0.99737  1.0000
  H   H47       1.0  0.04963  0.16113  0.02903  1.0000
  H   H48       1.0  0.13980  0.34232  0.34575  1.0000
  C   C55       1.0  0.19128  0.22541  0.35225  1.0000
  C   C56       1.0  0.18033  0.20311  0.36667  1.0000
  C   C57       1.0  0.18532  0.16849  0.37042  1.0000
  C   C58       1.0  0.20117  0.15607  0.35954  1.0000
  C   C59       1.0  0.21229  0.17838  0.34506  1.0000
  C   C60       1.0  0.20716  0.21312  0.34146  1.0000
  P   P2        1.0  0.23162  0.16172  0.32764  1.0000
  C   C61       1.0  0.24037  0.12515  0.34693  1.0000
  C   C62       1.0  0.22566  0.14525  0.29266  1.0000
  C   C63       1.0  0.23760  0.12447  0.27748  1.0000
  C   C64       1.0  0.23256  0.10879  0.25161  1.0000
  C   C65       1.0  0.21547  0.11318  0.24098  1.0000
  C   C66       1.0  0.20352  0.13370  0.25597  1.0000
  C   C67       1.0  0.20861  0.15001  0.28154  1.0000
  C   C68       1.0  0.25484  0.12897  0.36564  1.0000
  C   C69       1.0  0.26159  0.10023  0.37996  1.0000
  C   C70       1.0  0.25398  0.06748  0.37574  1.0000
  C   C71       1.0  0.23960  0.06342  0.35716  1.0000
  C   C72       1.0  0.23283  0.09208  0.34277  1.0000
  C   C73       1.0  0.24817  0.19535  0.32673  1.0000
  C   C74       1.0  0.25112  0.21714  0.35061  1.0000
  C   C75       1.0  0.26470  0.24155  0.35097  1.0000
  C   C76       1.0  0.27542  0.24446  0.32750  1.0000
  C   C77       1.0  0.27238  0.22333  0.30353  1.0000
  C   C78       1.0  0.25874  0.19908  0.30298  1.0000
  H   H49       1.0  0.18714  0.25189  0.34829  1.0000
  H   H50       1.0  0.16773  0.21236  0.37419  1.0000
  H   H51       1.0  0.17657  0.15103  0.38095  1.0000
  H   H52       1.0  0.20441  0.12891  0.36186  1.0000
  H   H53       1.0  0.21507  0.23044  0.32928  1.0000
  H   H54       1.0  0.25074  0.12003  0.28587  1.0000
  H   H55       1.0  0.24182  0.09276  0.24004  1.0000
  H   H56       1.0  0.21135  0.10037  0.22133  1.0000
  H   H57       1.0  0.19018  0.13656  0.24800  1.0000
  H   H58       1.0  0.19912  0.16593  0.29264  1.0000
  H   H59       1.0  0.26108  0.15391  0.36915  1.0000
  C   C79       1.0  0.02318  0.44923  0.98732  1.0000
  H   H60       1.0  0.23370  0.03804  0.35378  1.0000
  H   H61       1.0  0.22169  0.08841  0.32838  1.0000
  H   H62       1.0  0.24310  0.21486  0.36914  1.0000
  H   H63       1.0  0.26704  0.25809  0.36949  1.0000
  H   H64       1.0  0.28608  0.26312  0.32781  1.0000
  H   H65       1.0  0.28051  0.22601  0.28514  1.0000
  H   H66       1.0  0.25654  0.18369  0.28387  1.0000
  C   C80       1.0  0.01573  0.48480  0.06103  1.0000
  C   C81       1.0  0.11026  0.37480  0.39258  1.0000
  C   C82       1.0  0.04280  0.31433  0.36458  1.0000
  C   C83       1.0  0.15396  0.30701  0.09353  1.0000
  H   H67       1.0  0.08233  0.29226  0.39386  1.0000
  H   H68       1.0  0.25791  0.06443  0.03087  1.0000
  S   S19       1.0  0.31752  0.40938  0.24126  1.0000
  C   C84       1.0  0.14481  0.28581  0.98760  1.0000
  C   C85       1.0  0.08089  0.28745  0.31612  1.0000
  C   C86       1.0  0.08494  0.22542  0.30772  1.0000
  H   H69       1.0  0.11288  0.31805  0.32393  1.0000
  S   S20       1.0  0.29910  0.32192  0.28293  1.0000
  H   H70       1.0  0.10596  0.37772  0.47024  1.0000
  H   H71       1.0  0.13545  0.20700  0.01485  1.0000
  C   C87       1.0  0.28283  0.07215  0.05243  1.0000
  C   C88       1.0  0.08625  0.19760  0.05884  1.0000
  C   C89       1.0  0.02671  0.45563  0.05941  1.0000
  C   C90       1.0  0.30846  0.07202  0.02261  1.0000
  H   H72       1.0  0.09331  0.20997  0.26594  1.0000
  H   H73       1.0  0.02802  0.39994  0.05311  1.0000
  C   C91       1.0  0.11853  0.38439  0.48003  1.0000
  C   C92       1.0  0.04413  0.37293  0.28110  1.0000
  H   H74       1.0  0.07178  0.44977  0.04541  1.0000
  C   C93       1.0  0.07168  0.17970  0.00543  1.0000
  C   C94       1.0  0.01951  0.42262  0.05459  1.0000
  C   C95       1.0  0.27200  0.06649  0.02856  1.0000
  C   C96       1.0  0.06110  0.31016  0.36702  1.0000
  H   H75       1.0  0.10963  0.39004  0.41209  1.0000
  H   H76       1.0  0.07697  0.40053  0.34115  1.0000
  C   C97       1.0  0.07621  0.47213  0.03410  1.0000
  C   C98       1.0  0.06789  0.39237  0.32444  1.0000
  Fe  Fe8       1.0  0.31641  0.35062  0.25273  1.0000
  H   H77       1.0  0.09169  0.20545  0.07939  1.0000
  C   C99       1.0  0.09527  0.20516  0.03429  1.0000
  H   H78       1.0  0.14371  0.31319  0.99313  1.0000
  C   C100      1.0  0.06993  0.18125  0.05681  1.0000
  C   C101      1.0  0.30102  0.07464  0.04953  1.0000
  H   H79       1.0  0.08868  0.44316  0.48414  1.0000
  H   H80       1.0  0.00885  0.38531  0.46157  1.0000
  C   C102      1.0  0.14224  0.29550  0.22144  1.0000
  C   C103      1.0  0.14847  0.30745  0.24787  1.0000
  C   C104      1.0  0.16645  0.31247  0.25251  1.0000
  C   C105      1.0  0.17819  0.30637  0.23056  1.0000
  C   C106      1.0  0.17201  0.29540  0.20364  1.0000
  C   C107      1.0  0.15395  0.28923  0.19951  1.0000
  P   P3        1.0  0.18698  0.28817  0.17479  1.0000
  C   C108      1.0  0.17512  0.29689  0.14209  1.0000
  C   C109      1.0  0.20567  0.31682  0.17941  1.0000
  C   C110      1.0  0.21904  0.30875  0.19915  1.0000
  C   C111      1.0  0.23380  0.32998  0.20247  1.0000
  C   C112      1.0  0.23527  0.35977  0.18633  1.0000
  C   C113      1.0  0.22197  0.36828  0.16682  1.0000
  C   C114      1.0  0.20723  0.34687  0.16329  1.0000
  C   C115      1.0  0.16360  0.32549  0.14063  1.0000
  H   H81       1.0  0.06194  0.44509  0.31291  1.0000
  C   C116      1.0  0.17628  0.27395  0.11864  1.0000
  C   C117      1.0  0.19430  0.24338  0.17430  1.0000
  C   C118      1.0  0.21146  0.23469  0.16616  1.0000
  C   C119      1.0  0.21701  0.19998  0.16550  1.0000
  C   C120      1.0  0.20537  0.17360  0.17223  1.0000
  C   C121      1.0  0.18814  0.18191  0.17944  1.0000
  C   C122      1.0  0.18262  0.21667  0.18062  1.0000
  H   H82       1.0  0.12836  0.29033  0.21807  1.0000
  H   H83       1.0  0.13943  0.31153  0.26504  1.0000
  H   H84       1.0  0.17142  0.31998  0.27338  1.0000
  H   H85       1.0  0.19205  0.30968  0.23504  1.0000
  H   H86       1.0  0.14883  0.27954  0.17936  1.0000
  H   H87       1.0  0.21812  0.28583  0.21192  1.0000
  H   H88       1.0  0.24676  0.37616  0.18898  1.0000
  H   H89       1.0  0.22314  0.39144  0.15437  1.0000
  H   H90       1.0  0.19717  0.35386  0.14796  1.0000
  H   H91       1.0  0.16237  0.34337  0.15853  1.0000
  C   C123      1.0  0.16654  0.00488  0.25627  1.0000
  H   H92       1.0  0.18495  0.25159  0.11920  1.0000
  H   H93       1.0  0.22066  0.25459  0.16047  1.0000
  H   H94       1.0  0.23041  0.19362  0.16001  1.0000
  H   H95       1.0  0.20969  0.14672  0.17188  1.0000
  H   H96       1.0  0.17908  0.16135  0.18429  1.0000
  H   H97       1.0  0.16924  0.22262  0.18643  1.0000
  Fe  Fe9       1.0  0.08334  0.37117  0.01016  1.0000
  H   H98       1.0  0.99606  0.39295  0.04707  1.0000
  S   S21       1.0  0.06301  0.34211  0.47927  1.0000
  H   H99       1.0  0.04081  0.45858  0.06169  1.0000
  H   H100      1.0  0.02522  0.18498  0.98954  1.0000
  H   H101      1.0  0.13345  0.36170  0.44612  1.0000
  H   H102      1.0  0.98703  0.35377  0.99629  1.0000
  H   H103      1.0  0.27716  0.07438  0.07325  1.0000
  C   C124      1.0  0.02519  0.42730  0.47731  1.0000
  C   C125      1.0  0.00994  0.41326  0.46489  1.0000
  C   C126      1.0  0.99753  0.48101  0.05773  1.0000
  C   C127      1.0  0.15025  0.38405  0.47898  1.0000
  C   C128      1.0  0.02653  0.46319  0.48213  1.0000
  H   H104      1.0  0.01810  0.42444  0.99384  1.0000
  C   C129      1.0  0.08806  0.19623  0.00765  1.0000
  H   H105      1.0  0.03599  0.41036  0.48344  1.0000
  C   C130      1.0  0.01267  0.47924  0.98827  1.0000
  H   H106      1.0  0.99950  0.47762  0.99619  1.0000
  C   C131      1.0  0.13162  0.98689  0.26378  1.0000
  H   H107      1.0  0.18116  0.30361  0.98886  1.0000
  H   H108      1.0  0.09492  0.20366  0.98890  1.0000
  C   C132      1.0  0.01250  0.48541  0.47492  1.0000
  H   H109      1.0  0.31505  0.12948  0.98607  1.0000
  C   C133      1.0  0.05529  0.10330  0.98759  1.0000
  C   C134      1.0  0.04626  0.07169  0.98682  1.0000
  Fe  Fe10      1.0  0.14315  0.19886  0.72775  1.0000
  S   S22       1.0  0.16580  0.16237  0.73871  1.0000
  S   S23       1.0  0.14103  0.21661  0.68110  1.0000
  Fe  Fe11      1.0  0.13281  0.20670  0.79060  1.0000
  S   S24       1.0  0.15462  0.17137  0.80487  1.0000
  S   S25       1.0  0.11298  0.23624  0.81891  1.0000
  Fe  Fe12      1.0  0.17202  0.19954  0.77482  1.0000
  S   S26       1.0  0.19960  0.21309  0.79269  1.0000
  Fe  Fe13      1.0  0.14702  0.13591  0.76779  1.0000
  S   S27       1.0  0.14873  0.07740  0.77875  1.0000
  S   S28       1.0  0.15064  0.23742  0.76266  1.0000
  S   S29       1.0  0.12398  0.16998  0.75479  1.0000
  C   C135      1.0  0.26464  0.13307  0.63139  1.0000
  H   H110      1.0  0.17992  0.25518  0.90497  1.0000
  S   S30       1.0  0.10002  0.26047  0.95226  1.0000
  Fe  Fe14      1.0  0.04774  0.30463  0.50511  1.0000
  S   S31       1.0  0.05362  0.33285  0.54608  1.0000
  C   C136      1.0  0.08357  0.16994  0.89310  1.0000
  H   H111      1.0  0.23107  0.05893  0.71392  1.0000
  H   H112      1.0  0.25538  0.15083  0.62185  1.0000
  Fe  Fe15      1.0  0.07755  0.29804  0.55045  1.0000
  S   S32       1.0  0.08135  0.27632  0.59563  1.0000
  C   C137      1.0  0.02106  0.25721  0.56399  1.0000
  H   H113      1.0  0.12959  0.20669  0.87017  1.0000
  Fe  Fe16      1.0  0.29715  0.28750  0.75174  1.0000
  S   S33       1.0  0.26828  0.27779  0.73823  1.0000
  H   H114      1.0  0.18913  0.08673  0.80762  1.0000
  C   C138      1.0  0.08562  0.46684  0.49579  1.0000
  H   H115      1.0  0.00833  0.32843  0.53671  1.0000
  C   C139      1.0  0.28282  0.27320  0.66493  1.0000
  H   H116      1.0  0.21143  0.39526  0.83353  1.0000
  C   C140      1.0  0.31833  0.19469  0.57379  1.0000
  S   S34       1.0  0.07051  0.26710  0.51037  1.0000
  C   C141      1.0  0.02563  0.09470  0.95230  1.0000
  H   H117      1.0  0.15760  0.22979  0.93491  1.0000
  H   H118      1.0  0.03308  0.25743  0.55206  1.0000
  C   C142      1.0  0.04743  0.48301  0.97082  1.0000
  C   C143      1.0  0.15447  0.37885  0.94231  1.0000
  C   C144      1.0  0.21879  0.22929  0.77644  1.0000
  C   C145      1.0  0.23464  0.23092  0.79227  1.0000
  C   C146      1.0  0.24998  0.24509  0.78083  1.0000
  C   C147      1.0  0.24966  0.25793  0.75338  1.0000
  C   C148      1.0  0.23393  0.25549  0.73729  1.0000
  C   C149      1.0  0.21861  0.24119  0.74869  1.0000
  H   H119      1.0  0.23501  0.22148  0.81366  1.0000
  H   H120      1.0  0.26202  0.24646  0.79330  1.0000
  H   H121      1.0  0.23348  0.26529  0.71601  1.0000
  H   H122      1.0  0.20652  0.24046  0.73632  1.0000
  C   C150      1.0  0.14292  0.03370  0.76817  1.0000
  H   H123      1.0  0.00035  0.30326  0.61548  1.0000
  C   C151      1.0  0.13157  0.02608  0.74520  1.0000
  H   H124      1.0  0.15894  0.01103  0.80113  1.0000
  H   H125      1.0  0.12561  0.04709  0.73354  1.0000
  C   C152      1.0  0.12418  0.23345  0.65784  1.0000
  C   C153      1.0  0.10674  0.23806  0.66605  1.0000
  C   C154      1.0  0.09395  0.25110  0.64677  1.0000
  C   C155      1.0  0.09828  0.25988  0.61892  1.0000
  C   C156      1.0  0.11575  0.25542  0.61073  1.0000
  C   C157      1.0  0.12853  0.24232  0.63000  1.0000
  H   H126      1.0  0.10306  0.23148  0.68726  1.0000
  H   H127      1.0  0.08055  0.25437  0.65352  1.0000
  H   H128      1.0  0.11940  0.26192  0.58949  1.0000
  H   H129      1.0  0.14192  0.23893  0.62323  1.0000
  C   C158      1.0  0.10975  0.24270  0.85618  1.0000
  C   C159      1.0  0.09687  0.26666  0.86540  1.0000
  C   C160      1.0  0.09386  0.27292  0.89455  1.0000
  C   C161      1.0  0.10357  0.25494  0.91505  1.0000
  C   C162      1.0  0.11644  0.23104  0.90585  1.0000
  C   C163      1.0  0.11962  0.22511  0.87673  1.0000
  H   H130      1.0  0.08917  0.28056  0.84981  1.0000
  H   H131      1.0  0.08389  0.29133  0.90110  1.0000
  H   H132      1.0  0.12383  0.21651  0.92136  1.0000
  H   H133      1.0  0.21486  0.22126  0.62063  1.0000
  H   H134      1.0  0.28833  0.11840  0.69201  1.0000
  C   C164      1.0  0.99704  0.31848  0.52497  1.0000
  C   C165      1.0  0.11803  0.37395  0.94716  1.0000
  C   C166      1.0  0.01808  0.28269  0.58486  1.0000
  H   H135      1.0  0.21890  0.34409  0.91182  1.0000
  C   C167      1.0  0.18219  0.31580  0.94436  1.0000
  C   C168      1.0  0.98955  0.25750  0.59399  1.0000
  H   H136      1.0  0.31188  0.47376  0.71862  1.0000
  C   C169      1.0  0.04646  0.20775  0.96644  1.0000
  H   H137      1.0  0.30936  0.13991  0.62686  1.0000
  S   S35       1.0  0.09463  0.33563  0.52767  1.0000
  H   H138      1.0  0.12163  0.31886  0.94219  1.0000
  C   C170      1.0  0.03140  0.06743  0.96927  1.0000
  H   H139      1.0  0.20091  0.43082  0.87385  1.0000
  H   H140      1.0  0.02045  0.41150  0.53558  1.0000
  C   C171      1.0  0.00927  0.41233  0.54944  1.0000
  C   C172      1.0  0.27661  0.33056  0.84184  1.0000
  C   C173      1.0  0.21360  0.41805  0.87530  1.0000
  H   H141      1.0  0.24802  0.43155  0.82052  1.0000
  C   C174      1.0  0.01834  0.23578  0.97513  1.0000
  C   C175      1.0  0.27084  0.10508  0.61496  1.0000
  C   C176      1.0  0.04934  0.13104  0.97106  1.0000
  H   H142      1.0  0.29841  0.06829  0.66327  1.0000
  H   H143      1.0  0.02798  0.30230  0.58934  1.0000
  S   S36       1.0  0.06509  0.42636  0.53079  1.0000
  H   H144      1.0  0.27099  0.05815  0.98333  1.0000
  H   H145      1.0  0.04525  0.28958  0.94001  1.0000
  C   C177      1.0  0.28298  0.11461  0.67076  1.0000
  C   C178      1.0  0.15271  0.23914  0.95497  1.0000
  H   H146      1.0  0.28414  0.43910  0.75240  1.0000
  C   C179      1.0  0.24056  0.40626  0.90140  1.0000
  C   C180      1.0  0.15165  0.27490  0.96141  1.0000
  C   C181      1.0  0.04057  0.45117  0.97871  1.0000
  C   C182      1.0  0.27999  0.18104  0.76354  1.0000
  C   C183      1.0  0.27181  0.15222  0.77493  1.0000
  C   C184      1.0  0.26158  0.13020  0.75748  1.0000
  C   C185      1.0  0.25942  0.13718  0.72869  1.0000
  C   C186      1.0  0.26729  0.16656  0.71722  1.0000
  C   C187      1.0  0.27777  0.18819  0.73481  1.0000
  P   P4        1.0  0.26386  0.17595  0.68018  1.0000
  C   C188      1.0  0.27790  0.21140  0.67069  1.0000
  C   C189      1.0  0.02393  0.26537  0.96130  1.0000
  Fe  Fe17      1.0  0.07032  0.36850  0.52068  1.0000
  H   H147      1.0  0.18705  0.29302  0.82102  1.0000
  C   C190      1.0  0.30024  0.26646  0.65775  1.0000
  C   C191      1.0  0.30658  0.23236  0.65737  1.0000
  C   C192      1.0  0.29551  0.20497  0.66405  1.0000
  H   H148      1.0  0.28777  0.19841  0.77707  1.0000
  H   H149      1.0  0.27332  0.14718  0.79732  1.0000
  H   H150      1.0  0.25513  0.10802  0.76641  1.0000
  H   H151      1.0  0.25134  0.12012  0.71543  1.0000
  H   H152      1.0  0.28407  0.21097  0.72664  1.0000
  H   H153      1.0  0.25939  0.37381  0.88035  1.0000
  S   S37       1.0  0.30656  0.32412  0.78645  1.0000
  H   H154      1.0  0.18765  0.33182  0.90172  1.0000
  H   H155      1.0  0.31222  0.21468  0.56108  1.0000
  H   H156      1.0  0.30084  0.17898  0.66463  1.0000
  H   H157      1.0  0.23161  0.17506  0.71437  1.0000
  C   C193      1.0  0.04078  0.26636  0.95021  1.0000
  H   H158      1.0  0.18781  0.46328  0.61353  1.0000
  C   C194      1.0  0.26485  0.26382  0.85364  1.0000
  C   C195      1.0  0.01003  0.39442  0.57483  1.0000
  H   H159      1.0  0.20689  0.32180  0.74065  1.0000
  H   H160      1.0  0.03021  0.14702  0.93936  1.0000
  H   H161      1.0  0.21948  0.43827  0.91730  1.0000
  H   H162      1.0  0.99445  0.20178  0.62884  1.0000
  C   C196      1.0  0.27064  0.13813  0.65948  1.0000
  H   H163      1.0  0.18384  0.29449  0.76895  1.0000
  H   H164      1.0  0.04886  0.42812  0.97866  1.0000
  C   C197      1.0  0.12812  0.34386  0.94323  1.0000
  H   H165      1.0  0.26628  0.10164  0.59320  1.0000
  C   C198      1.0  0.23617  0.20188  0.64674  1.0000
  H   H166      1.0  0.14743  0.18730  0.96885  1.0000
  C   C199      1.0  0.07464  0.46567  0.51913  1.0000
  H   H167      1.0  0.19213  0.21130  0.65652  1.0000
  C   C200      1.0  0.15759  0.29002  0.90080  1.0000
  C   C201      1.0  0.16976  0.26515  0.89095  1.0000
  C   C202      1.0  0.16880  0.25271  0.86293  1.0000
  C   C203      1.0  0.15591  0.26546  0.84445  1.0000
  C   C204      1.0  0.14408  0.29080  0.85383  1.0000
  C   C205      1.0  0.14473  0.30276  0.88196  1.0000
  H   H168      1.0  0.01076  0.21217  0.54181  1.0000
  H   H169      1.0  0.20071  0.18809  0.70322  1.0000
  S   S38       1.0  0.31284  0.31437  0.71871  1.0000
  H   H170      1.0  0.27813  0.29981  0.66654  1.0000
  H   H171      1.0  0.31276  0.21444  0.98409  1.0000
  C   C206      1.0  0.05204  0.23777  0.95291  1.0000
  H   H172      1.0  0.06518  0.23939  0.94481  1.0000
  C   C207      1.0  0.15021  0.00566  0.78325  1.0000
  H   H173      1.0  0.30899  0.28776  0.65338  1.0000
  C   C208      1.0  0.12612  0.40646  0.94869  1.0000
  C   C209      1.0  0.28295  0.08167  0.62648  1.0000
  P   P5        1.0  0.06125  0.17143  0.97130  1.0000
  H   H174      1.0  0.01423  0.09128  0.93845  1.0000
  H   H175      1.0  0.17794  0.23300  0.85543  1.0000
  H   H176      1.0  0.15487  0.25532  0.82294  1.0000
  H   H177      1.0  0.13386  0.30002  0.83950  1.0000
  H   H178      1.0  0.13501  0.32153  0.88880  1.0000
  C   C210      1.0  0.28843  0.30550  0.85174  1.0000
  C   C211      1.0  0.28894  0.08633  0.65441  1.0000
  C   C212      1.0  0.24110  0.18758  0.67286  1.0000
  C   C213      1.0  0.12785  0.99114  0.73725  1.0000
  C   C214      1.0  0.11083  0.35496  0.60567  1.0000
  C   C215      1.0  0.09345  0.36659  0.60474  1.0000
  C   C216      1.0  0.08904  0.39640  0.58980  1.0000
  C   C217      1.0  0.10197  0.41446  0.57559  1.0000
  C   C218      1.0  0.11952  0.40307  0.57643  1.0000
  C   C219      1.0  0.12380  0.37295  0.59152  1.0000
  P   P6        1.0  0.13591  0.42514  0.55615  1.0000
  C   C220      1.0  0.13539  0.40714  0.52047  1.0000
  C   C221      1.0  0.13063  0.47093  0.55468  1.0000
  H   H179      1.0  0.20626  0.00673  0.74321  1.0000
  C   C222      1.0  0.02961  0.20721  0.97798  1.0000
  C   C223      1.0  0.20576  0.20460  0.66095  1.0000
  C   C224      1.0  0.21060  0.19137  0.68725  1.0000
  C   C225      1.0  0.19505  0.99606  0.73162  1.0000
  C   C226      1.0  0.15094  0.40016  0.50583  1.0000
  Fe  Fe18      1.0  0.08628  0.30669  0.48706  1.0000
  H   H180      1.0  0.30312  0.06220  0.97799  1.0000
  H   H181      1.0  0.06101  0.48456  0.96459  1.0000
  C   C227      1.0  0.11919  0.40043  0.50687  1.0000
  C   C228      1.0  0.15734  0.41952  0.57274  1.0000
  C   C229      1.0  0.16527  0.44683  0.58847  1.0000
  C   C230      1.0  0.18178  0.44213  0.60139  1.0000
  C   C231      1.0  0.19048  0.41019  0.59877  1.0000
  C   C232      1.0  0.18269  0.38288  0.58319  1.0000
  C   C233      1.0  0.16621  0.38749  0.57023  1.0000
  H   H182      1.0  0.11411  0.33144  0.61690  1.0000
  H   H183      1.0  0.08337  0.35197  0.61510  1.0000
  H   H184      1.0  0.21292  0.31918  0.84527  1.0000
  H   H185      1.0  0.09813  0.43689  0.56344  1.0000
  H   H186      1.0  0.13701  0.36278  0.59225  1.0000
  H   H187      1.0  0.12115  0.47470  0.59757  1.0000
  C   C234      1.0  0.99951  0.29776  0.50067  1.0000
  H   H188      1.0  0.28777  0.06003  0.61371  1.0000
  H   H189      1.0  0.03851  0.47351  0.49176  1.0000
  H   H190      1.0  0.16362  0.40677  0.51509  1.0000
  H   H191      1.0  0.30800  0.26793  0.95632  1.0000
  C   C235      1.0  0.21957  0.39769  0.85254  1.0000
  H   H192      1.0  0.10701  0.40679  0.51722  1.0000
  H   H193      1.0  0.99879  0.16801  0.67208  1.0000
  H   H194      1.0  0.31372  0.02842  0.56430  1.0000
  H   H195      1.0  0.20324  0.40656  0.60889  1.0000
  H   H196      1.0  0.18938  0.35804  0.58125  1.0000
  H   H197      1.0  0.16032  0.36597  0.55831  1.0000
  H   H198      1.0  0.31915  0.08636  0.58561  1.0000
  C   C236      1.0  0.00845  0.23163  0.55826  1.0000
  C   C237      1.0  0.18573  0.01630  0.71196  1.0000
  C   C238      1.0  0.22407  0.42229  0.89975  1.0000
  P   P7        1.0  0.19276  0.06015  0.70523  1.0000
  C   C239      1.0  0.17512  0.08620  0.69073  1.0000
  C   C240      1.0  0.19899  0.08294  0.73760  1.0000
  C   C241      1.0  0.20957  0.11264  0.73666  1.0000
  C   C242      1.0  0.21328  0.13217  0.76136  1.0000
  C   C243      1.0  0.20613  0.12258  0.78702  1.0000
  C   C244      1.0  0.19539  0.09331  0.78805  1.0000
  C   C245      1.0  0.19186  0.07353  0.76345  1.0000
  C   C246      1.0  0.15810  0.08261  0.70098  1.0000
  C   C247      1.0  0.14435  0.10321  0.69064  1.0000
  C   C248      1.0  0.14758  0.12813  0.67038  1.0000
  C   C249      1.0  0.16464  0.13290  0.66082  1.0000
  C   C250      1.0  0.17842  0.11217  0.67107  1.0000
  C   C251      1.0  0.21077  0.05632  0.68120  1.0000
  C   C252      1.0  0.20739  0.05112  0.65211  1.0000
  C   C253      1.0  0.22129  0.04714  0.63341  1.0000
  C   C254      1.0  0.23862  0.04782  0.64367  1.0000
  C   C255      1.0  0.24208  0.05245  0.67267  1.0000
  C   C256      1.0  0.22820  0.05637  0.69144  1.0000
  C   C257      1.0  0.21857  0.21014  0.64078  1.0000
  C   C258      1.0  0.17159  0.00133  0.69659  1.0000
  C   C259      1.0  0.00236  0.28305  0.59967  1.0000
  H   H199      1.0  0.21446  0.12121  0.71668  1.0000
  H   H200      1.0  0.22105  0.15564  0.76060  1.0000
  H   H201      1.0  0.20835  0.13862  0.80589  1.0000
  C   C260      1.0  0.22819  0.18340  0.69334  1.0000
  H   H202      1.0  0.18289  0.05186  0.76454  1.0000
  H   H203      1.0  0.15556  0.06438  0.71744  1.0000
  H   H204      1.0  0.13128  0.10054  0.69898  1.0000
  H   H205      1.0  0.13697  0.14460  0.66279  1.0000
  H   H206      1.0  0.16711  0.15335  0.64602  1.0000
  H   H207      1.0  0.19160  0.11697  0.66408  1.0000
  H   H208      1.0  0.19400  0.04991  0.64394  1.0000
  H   H209      1.0  0.26036  0.23775  0.85769  1.0000
  H   H210      1.0  0.24595  0.20727  0.63113  1.0000
  H   H211      1.0  0.24933  0.04422  0.62918  1.0000
  H   H212      1.0  0.24879  0.40995  0.92019  1.0000
  H   H213      1.0  0.07549  0.40499  0.58851  1.0000
  C   C261      1.0  0.23594  0.38081  0.85429  1.0000
  H   H214      1.0  0.10393  0.37206  0.94952  1.0000
  P   P8        1.0  0.24375  0.35525  0.82453  1.0000
  C   C262      1.0  0.25566  0.38241  0.80085  1.0000
  C   C263      1.0  0.25877  0.32241  0.83756  1.0000
  C   C264      1.0  0.27168  0.24580  0.67140  1.0000
  C   C265      1.0  0.21766  0.33113  0.95587  1.0000
  H   H215      1.0  0.25552  0.05251  0.68065  1.0000
  H   H216      1.0  0.28153  0.35615  0.83715  1.0000
  C   C266      1.0  0.25295  0.28891  0.84385  1.0000
  C   C267      1.0  0.26580  0.36687  0.77951  1.0000
  C   C268      1.0  0.27583  0.38734  0.76193  1.0000
  C   C269      1.0  0.27595  0.42345  0.76564  1.0000
  C   C270      1.0  0.26579  0.43921  0.78667  1.0000
  C   C271      1.0  0.25563  0.41881  0.80421  1.0000
  C   C272      1.0  0.22502  0.33530  0.80658  1.0000
  C   C273      1.0  0.21176  0.32012  0.82243  1.0000
  C   C274      1.0  0.19696  0.30564  0.80887  1.0000
  C   C275      1.0  0.19513  0.30653  0.77945  1.0000
  C   C276      1.0  0.20814  0.32183  0.76352  1.0000
  C   C277      1.0  0.22309  0.33596  0.77695  1.0000
  H   H217      1.0  0.25845  0.25177  0.67804  1.0000
  H   H218      1.0  0.16853  0.38136  0.94064  1.0000
  C   C278      1.0  0.24651  0.38568  0.87874  1.0000
  H   H219      1.0  0.99609  0.38058  0.61211  1.0000
  H   H220      1.0  0.23937  0.28164  0.84059  1.0000
  H   H221      1.0  0.26613  0.33882  0.77665  1.0000
  H   H222      1.0  0.28388  0.37517  0.74578  1.0000
  H   H223      1.0  0.23305  0.34706  0.76397  1.0000
  H   H224      1.0  0.99351  0.44377  0.52173  1.0000
  H   H225      1.0  0.30225  0.31177  0.85432  1.0000
  H   H226      1.0  0.11824  0.42967  0.95218  1.0000
  C   C279      1.0  0.99288  0.23141  0.57347  1.0000
  C   C280      1.0  0.20695  0.31977  0.97749  1.0000
  H   H227      1.0  0.10840  0.14816  0.88071  1.0000
  H   H228      1.0  0.08020  0.17854  0.87196  1.0000
  H   H229      1.0  0.02175  0.37977  0.58043  1.0000
  C   C281      1.0  0.07210  0.17630  0.91539  1.0000
  H   H230      1.0  0.11640  0.12888  0.92908  1.0000
  C   C282      1.0  0.10405  0.14223  0.92534  1.0000
  C   C283      1.0  0.07676  0.16659  0.94305  1.0000
  C   C284      1.0  0.09266  0.14880  0.94772  1.0000
  H   H231      1.0  0.00537  0.23538  0.98415  1.0000
  C   C285      1.0  0.14432  0.40894  0.94619  1.0000
  H   H232      1.0  0.02444  0.04289  0.96863  1.0000
  H   H233      1.0  0.05962  0.18875  0.91090  1.0000
  H   H234      1.0  0.01536  0.28787  0.95981  1.0000
  C   C286      1.0  0.09951  0.15282  0.89805  1.0000
  C   C287      1.0  0.98848  0.18751  0.67115  1.0000
  C   C288      1.0  0.03465  0.12633  0.95300  1.0000
  S   S39       1.0  0.02079  0.28655  0.48834  1.0000
  S   S40       1.0  0.31852  0.24803  0.76006  1.0000
  S   S41       1.0  0.06654  0.34230  0.97794  1.0000
  H   H235      1.0  0.29523  0.18522  0.59788  1.0000
  H   H236      1.0  0.09622  0.13978  0.96861  1.0000
  H   H237      1.0  0.16443  0.01590  0.68075  1.0000
  C   C289      1.0  0.19293  0.32802  0.92290  1.0000
  C   C290      1.0  0.21064  0.33530  0.92860  1.0000
  H   H238      1.0  0.23138  0.33675  0.96029  1.0000
  Fe  Fe19      1.0  0.08477  0.29652  0.98317  1.0000
  H   H239      1.0  0.29200  0.25251  0.86422  1.0000
  C   C291      1.0  0.18925  0.31224  0.97181  1.0000
  C   C292      1.0  0.28262  0.27206  0.85737  1.0000
  C   C293      1.0  0.30881  0.17811  0.59450  1.0000
  H   H240      1.0  0.15051  0.43422  0.94760  1.0000
  H   H241      1.0  0.26604  0.46723  0.78953  1.0000
  P   P9        1.0  0.15930  0.30674  0.93684  1.0000
  C   C294      1.0  0.14642  0.34604  0.94095  1.0000
  H   H242      1.0  0.15880  0.47177  0.59089  1.0000
  H   H243      1.0  0.21858  0.04315  0.61097  1.0000
  C   C295      1.0  0.14693  0.21480  0.97424  1.0000
  C   C296      1.0  0.99561  0.39499  0.59268  1.0000
  C   C297      1.0  0.31690  0.15271  0.61106  1.0000
  C   C298      1.0  0.99405  0.43069  0.54178  1.0000
  H   H244      1.0  0.13909  0.47667  0.51146  1.0000
  C   C299      1.0  0.31923  0.47963  0.73793  1.0000
  Fe  Fe20      1.0  0.18037  0.80974  0.25789  1.0000
  S   S42       1.0  0.16343  0.76249  0.26118  1.0000
  S   S43       1.0  0.21056  0.81242  0.25803  1.0000
  Fe  Fe21      1.0  0.14856  0.85959  0.25987  1.0000
  S   S44       1.0  0.12939  0.81462  0.26370  1.0000
  S   S45       1.0  0.13677  0.91539  0.25927  1.0000
  Fe  Fe22      1.0  0.14862  0.79180  0.29519  1.0000
  S   S46       1.0  0.14478  0.76192  0.33674  1.0000
  Fe  Fe23      1.0  0.14517  0.78802  0.22934  1.0000
  S   S47       1.0  0.13412  0.75016  0.19480  1.0000
  S   S48       1.0  0.16672  0.83818  0.29368  1.0000
  S   S49       1.0  0.16318  0.83380  0.22381  1.0000
  Fe  Fe24      1.0  0.08094  0.70776  0.04301  1.0000
  H   H245      1.0  0.99983  0.78729  0.26278  1.0000
  S   S50       1.0  0.09074  0.74872  0.07628  1.0000
  C   C300      1.0  0.09443  0.85373  0.33650  1.0000
  S   S51       1.0  0.07337  0.57754  0.04407  1.0000
  H   H246      1.0  0.04092  0.60321  0.06066  1.0000
  C   C301      1.0  0.14320  0.70688  0.99683  1.0000
  S   S52       1.0  0.08716  0.73037  0.43126  1.0000
  Fe  Fe25      1.0  0.04743  0.68792  0.00779  1.0000
  H   H247      1.0  0.11332  0.93086  0.42383  1.0000
  C   C302      1.0  0.24004  0.65312  0.36801  1.0000
  S   S53       1.0  0.05837  0.67147  0.04994  1.0000
  C   C303      1.0  0.99796  0.58108  0.06386  1.0000
  H   H248      1.0  0.18963  0.77141  0.31653  1.0000
  Fe  Fe26      1.0  0.30095  0.68958  0.25414  1.0000
  S   S54       1.0  0.27127  0.69701  0.24567  1.0000
  H   H249      1.0  0.18404  0.70907  0.32416  1.0000
  C   C304      1.0  0.99839  0.68318  0.00572  1.0000
  C   C305      1.0  0.99623  0.66759  0.03188  1.0000
  H   H250      1.0  0.26332  0.83579  0.20364  1.0000
  C   C306      1.0  0.30133  0.84662  0.20019  1.0000
  C   C307      1.0  0.22710  0.77947  0.25529  1.0000
  C   C308      1.0  0.22341  0.74559  0.24564  1.0000
  C   C309      1.0  0.23709  0.72089  0.24285  1.0000
  C   C310      1.0  0.25460  0.72936  0.25019  1.0000
  C   C311      1.0  0.25824  0.76303  0.26041  1.0000
  C   C312      1.0  0.24463  0.78798  0.26259  1.0000
  H   H251      1.0  0.21004  0.73857  0.23995  1.0000
  H   H252      1.0  0.23408  0.69500  0.23488  1.0000
  H   H253      1.0  0.27151  0.76989  0.26655  1.0000
  H   H254      1.0  0.24767  0.81405  0.27014  1.0000
  C   C313      1.0  0.12172  0.75077  0.16213  1.0000
  C   C314      1.0  0.11729  0.78155  0.14836  1.0000
  C   C315      1.0  0.10791  0.78034  0.12218  1.0000
  C   C316      1.0  0.10280  0.74844  0.10929  1.0000
  C   C317      1.0  0.10704  0.71772  0.12327  1.0000
  C   C318      1.0  0.11645  0.71890  0.14939  1.0000
  H   H255      1.0  0.12121  0.80630  0.15770  1.0000
  H   H256      1.0  0.10462  0.80436  0.11179  1.0000
  H   H257      1.0  0.10274  0.69309  0.11423  1.0000
  H   H258      1.0  0.11966  0.69488  0.15982  1.0000
  C   C319      1.0  0.12830  0.75265  0.36219  1.0000
  C   C320      1.0  0.13247  0.73029  0.38466  1.0000
  C   C321      1.0  0.12009  0.72278  0.40567  1.0000
  C   C322      1.0  0.10327  0.73766  0.40469  1.0000
  C   C323      1.0  0.09907  0.75984  0.38207  1.0000
  C   C324      1.0  0.11144  0.76722  0.36102  1.0000
  H   H259      1.0  0.14542  0.71874  0.38591  1.0000
  H   H260      1.0  0.12363  0.70567  0.42276  1.0000
  H   H261      1.0  0.08617  0.77164  0.38098  1.0000
  H   H262      1.0  0.10805  0.78440  0.34399  1.0000
  C   C325      1.0  0.07479  0.97305  0.38179  1.0000
  C   C326      1.0  0.02577  0.58049  0.02606  1.0000
  C   C327      1.0  0.10245  0.94214  0.41199  1.0000
  H   H263      1.0  0.16682  0.92085  0.30701  1.0000
  H   H264      1.0  0.31565  0.75387  0.13975  1.0000
  C   C328      1.0  0.14470  0.91305  0.33375  1.0000
  C   C329      1.0  0.14405  0.95996  0.25986  1.0000
  C   C330      1.0  0.30845  0.84271  0.25023  1.0000
  H   H265      1.0  0.17140  0.94924  0.25313  1.0000
  H   H266      1.0  0.14645  0.85963  0.36977  1.0000
  H   H267      1.0  0.11800  0.98026  0.26661  1.0000
  C   C331      1.0  0.08790  0.53058  0.00525  1.0000
  C   C332      1.0  0.07209  0.50609  0.04385  1.0000
  C   C333      1.0  0.26647  0.70325  0.34854  1.0000
  C   C334      1.0  0.25183  0.65112  0.30879  1.0000
  C   C335      1.0  0.26804  0.63351  0.30804  1.0000
  C   C336      1.0  0.27213  0.61162  0.28507  1.0000
  C   C337      1.0  0.26010  0.60724  0.26260  1.0000
  C   C338      1.0  0.13364  0.92773  0.35425  1.0000
  C   C339      1.0  0.25530  0.81908  0.19005  1.0000
  C   C340      1.0  0.27175  0.70788  0.37703  1.0000
  C   C341      1.0  0.28739  0.72533  0.38403  1.0000
  C   C342      1.0  0.25185  0.77467  0.15321  1.0000
  H   H268      1.0  0.25230  0.60523  0.35316  1.0000
  C   C343      1.0  0.12974  0.81154  0.42200  1.0000
  H   H269      1.0  0.07260  0.56094  0.44485  1.0000
  H   H270      1.0  0.27763  0.63687  0.32510  1.0000
  H   H271      1.0  0.28479  0.59854  0.28442  1.0000
  H   H272      1.0  0.26348  0.59088  0.24455  1.0000
  H   H273      1.0  0.26399  0.69776  0.39385  1.0000
  H   H274      1.0  0.29153  0.72854  0.40597  1.0000
  C   C344      1.0  0.11353  0.82813  0.42509  1.0000
  C   C345      1.0  0.30310  0.80802  0.24960  1.0000
  H   H275      1.0  0.22007  0.79369  0.31752  1.0000
  P   P10       1.0  0.24684  0.67918  0.33882  1.0000
  C   C346      1.0  0.01665  0.75723  0.23536  1.0000
  C   C347      1.0  0.01287  0.78464  0.25419  1.0000
  C   C348      1.0  0.02596  0.80848  0.26211  1.0000
  C   C349      1.0  0.04280  0.80499  0.25112  1.0000
  C   C350      1.0  0.04667  0.77775  0.23191  1.0000
  C   C351      1.0  0.03349  0.75365  0.22435  1.0000
  P   P11       1.0  0.06865  0.77245  0.21864  1.0000
  C   C352      1.0  0.06758  0.74666  0.18623  1.0000
  C   C353      1.0  0.07789  0.81430  0.21047  1.0000
  C   C354      1.0  0.09617  0.81894  0.21082  1.0000
  C   C355      1.0  0.10335  0.85159  0.20580  1.0000
  C   C356      1.0  0.09237  0.87973  0.19980  1.0000
  C   C357      1.0  0.07418  0.87514  0.19841  1.0000
  C   C358      1.0  0.06695  0.84252  0.20354  1.0000
  C   C359      1.0  0.06893  0.71022  0.18690  1.0000
  C   C360      1.0  0.06749  0.69030  0.16183  1.0000
  C   C361      1.0  0.06442  0.70655  0.13602  1.0000
  C   C362      1.0  0.06281  0.74269  0.13526  1.0000
  C   C363      1.0  0.06447  0.76273  0.16019  1.0000
  C   C364      1.0  0.08253  0.75175  0.24496  1.0000
  C   C365      1.0  0.07847  0.75373  0.27385  1.0000
  C   C366      1.0  0.09013  0.74034  0.29418  1.0000
  C   C367      1.0  0.10598  0.72522  0.28590  1.0000
  C   C368      1.0  0.10989  0.72233  0.25718  1.0000
  C   C369      1.0  0.09810  0.73511  0.23682  1.0000
  H   H276      1.0  0.00653  0.73860  0.22937  1.0000
  C   C370      1.0  0.16161  0.96934  0.25628  1.0000
  H   H277      1.0  0.02307  0.82958  0.27690  1.0000
  H   H278      1.0  0.05282  0.82346  0.25774  1.0000
  H   H279      1.0  0.03614  0.73202  0.21001  1.0000
  H   H280      1.0  0.10501  0.79751  0.21492  1.0000
  H   H281      1.0  0.11748  0.85508  0.20662  1.0000
  H   H282      1.0  0.09803  0.90502  0.19606  1.0000
  H   H283      1.0  0.06570  0.89690  0.19324  1.0000
  H   H284      1.0  0.05285  0.83940  0.20195  1.0000
  H   H285      1.0  0.07112  0.69716  0.20673  1.0000
  H   H286      1.0  0.06893  0.66229  0.16232  1.0000
  H   H287      1.0  0.06369  0.69130  0.11646  1.0000
  H   H288      1.0  0.06083  0.75527  0.11511  1.0000
  H   H289      1.0  0.06345  0.79071  0.15892  1.0000
  H   H290      1.0  0.06647  0.76585  0.28090  1.0000
  H   H291      1.0  0.08706  0.74208  0.31646  1.0000
  H   H292      1.0  0.11530  0.71597  0.30175  1.0000
  H   H293      1.0  0.12224  0.71087  0.25064  1.0000
  H   H294      1.0  0.10139  0.73288  0.21469  1.0000
  P   P12       1.0  0.11463  0.90397  0.36550  1.0000
  H   H295      1.0  0.06055  0.58192  0.39927  1.0000
  H   H296      1.0  0.30023  0.86232  0.18150  1.0000
  C   C371      1.0  0.20054  0.75386  0.32058  1.0000
  C   C372      1.0  0.09973  0.93345  0.38322  1.0000
  C   C373      1.0  0.08666  0.83835  0.31231  1.0000
  H   H297      1.0  0.31151  0.88905  0.22605  1.0000
  H   H298      1.0  0.09338  0.84080  0.35649  1.0000
  C   C374      1.0  0.29430  0.81476  0.13681  1.0000
  P   P13       1.0  0.28649  0.79251  0.16743  1.0000
  H   H299      1.0  0.02844  0.57951  0.38927  1.0000
  H   H300      1.0  0.20887  0.66868  0.33307  1.0000
  C   C375      1.0  0.27690  0.71682  0.32730  1.0000
  C   C376      1.0  0.07790  0.53549  0.02952  1.0000
  H   H301      1.0  0.06420  0.98536  0.37000  1.0000
  H   H302      1.0  0.06448  0.50964  0.06278  1.0000
  C   C377      1.0  0.22630  0.79788  0.17697  1.0000
  C   C378      1.0  0.29231  0.74686  0.16474  1.0000
  H   H303      1.0  0.22665  0.69578  0.38930  1.0000
  S   S55       1.0  0.09728  0.66722  0.02019  1.0000
  H   H304      1.0  0.20745  0.61711  0.04551  1.0000
  C   C379      1.0  0.02822  0.59343  0.05376  1.0000
  C   C380      1.0  0.29784  0.73822  0.36268  1.0000
  H   H305      1.0  0.00740  0.66500  0.04618  1.0000
  C   C381      1.0  0.09678  0.88580  0.28421  1.0000
  C   C382      1.0  0.02910  0.54767  0.45613  1.0000
  H   H306      1.0  0.30076  0.74374  0.31779  1.0000
  C   C383      1.0  0.23025  0.66849  0.38990  1.0000
  H   H307      1.0  0.22741  0.66031  0.28569  1.0000
  C   C384      1.0  0.13683  0.96190  0.36419  1.0000
  H   H308      1.0  0.22327  0.66028  0.01733  1.0000
  H   H309      1.0  0.23481  0.62182  0.24542  1.0000
  C   C385      1.0  0.22491  0.64870  0.41265  1.0000
  S   S56       1.0  0.31098  0.66573  0.29439  1.0000
  H   H310      1.0  0.14212  0.88733  0.32487  1.0000
  H   H311      1.0  0.09628  0.86834  0.41049  1.0000
  C   C386      1.0  0.20149  0.69624  0.01580  1.0000
  C   C387      1.0  0.18420  0.70280  0.02387  1.0000
  C   C388      1.0  0.17502  0.67805  0.03912  1.0000
  C   C389      1.0  0.18362  0.64739  0.04729  1.0000
  P   P14       1.0  0.15326  0.68769  0.05141  1.0000
  C   C390      1.0  0.15642  0.71059  0.08490  1.0000
  C   C391      1.0  0.14111  0.71307  0.02598  1.0000
  C   C392      1.0  0.12833  0.73693  0.03508  1.0000
  C   C393      1.0  0.11819  0.75522  0.01539  1.0000
  C   C394      1.0  0.10385  0.88484  0.33456  1.0000
  H   H312      1.0  0.00776  0.60536  0.47230  1.0000
  H   H313      1.0  0.15228  0.68726  0.98925  1.0000
  C   C395      1.0  0.15816  0.74696  0.08582  1.0000
  C   C396      1.0  0.16094  0.76464  0.11168  1.0000
  C   C397      1.0  0.16244  0.74611  0.13670  1.0000
  C   C398      1.0  0.16120  0.70988  0.13591  1.0000
  C   C399      1.0  0.15836  0.69209  0.11009  1.0000
  C   C400      1.0  0.14061  0.64839  0.05416  1.0000
  C   C401      1.0  0.12791  0.64567  0.07508  1.0000
  C   C402      1.0  0.11742  0.61600  0.07619  1.0000
  C   C403      1.0  0.11939  0.58904  0.05620  1.0000
  C   C404      1.0  0.13172  0.59187  0.03489  1.0000
  C   C405      1.0  0.14223  0.62154  0.03373  1.0000
  H   H314      1.0  0.20850  0.71544  0.00400  1.0000
  H   H315      1.0  0.24504  0.75411  0.32583  1.0000
  H   H316      1.0  0.17804  0.72729  0.01846  1.0000
  H   H317      1.0  0.17703  0.62868  0.06016  1.0000
  H   H318      1.0  0.12581  0.74078  0.05739  1.0000
  C   C406      1.0  0.99764  0.75806  0.04594  1.0000
  H   H319      1.0  0.26888  0.81814  0.11555  1.0000
  H   H320      1.0  0.10807  0.77304  0.02264  1.0000
  C   C407      1.0  0.08589  0.94925  0.36814  1.0000
  H   H321      1.0  0.15724  0.76178  0.06664  1.0000
  H   H322      1.0  0.16167  0.79277  0.11245  1.0000
  H   H323      1.0  0.16421  0.75986  0.15684  1.0000
  H   H324      1.0  0.16206  0.69576  0.15550  1.0000
  H   H325      1.0  0.15757  0.66400  0.10989  1.0000
  H   H326      1.0  0.12579  0.66684  0.09004  1.0000
  H   H327      1.0  0.10735  0.61428  0.09198  1.0000
  H   H328      1.0  0.11100  0.56636  0.05676  1.0000
  H   H329      1.0  0.13275  0.57139  0.01889  1.0000
  H   H330      1.0  0.15130  0.62382  0.01654  1.0000
  H   H331      1.0  0.10101  0.49952  0.46920  1.0000
  Fe  Fe27      1.0  0.07401  0.63170  0.02477  1.0000
  H   H332      1.0  0.00843  0.55714  0.42506  1.0000
  C   C408      1.0  0.08805  0.85413  0.28610  1.0000
  H   H333      1.0  0.21717  0.66063  0.42926  1.0000
  H   H334      1.0  0.01636  0.60403  0.09397  1.0000
  H   H335      1.0  0.13284  0.78869  0.43420  1.0000
  C   C409      1.0  0.14156  0.82333  0.40217  1.0000
  H   H336      1.0  0.29250  0.76575  0.22435  1.0000
  H   H337      1.0  0.10411  0.81791  0.43965  1.0000
  H   H338      1.0  0.24285  0.57079  0.39325  1.0000
  C   C410      1.0  0.23710  0.81990  0.19338  1.0000
  C   C411      1.0  0.23935  0.59810  0.39236  1.0000
  C   C412      1.0  0.19743  0.71862  0.32476  1.0000
  C   C413      1.0  0.20091  0.64087  0.03918  1.0000
  C   C414      1.0  0.30715  0.73569  0.14977  1.0000
  C   C415      1.0  0.24469  0.61781  0.36955  1.0000
  H   H339      1.0  0.11141  0.92569  0.30631  1.0000
  H   H340      1.0  0.02140  0.51037  0.06468  1.0000
  H   H341      1.0  0.23136  0.83687  0.20937  1.0000
  C   C416      1.0  0.28202  0.72199  0.17796  1.0000
  C   C417      1.0  0.29693  0.79249  0.22428  1.0000
  C   C418      1.0  0.28919  0.83885  0.09019  1.0000
  C   C419      1.0  0.31698  0.50067  0.28916  1.0000
  S   S57       1.0  0.31450  0.64919  0.22671  1.0000
  H   H342      1.0  0.09810  0.89794  0.26387  1.0000
  C   C420      1.0  0.23186  0.74377  0.32592  1.0000
  C   C421      1.0  0.05177  0.57190  0.41488  1.0000
  C   C422      1.0  0.13726  0.85187  0.38551  1.0000
  H   H343      1.0  0.08267  0.84167  0.26718  1.0000
  C   C423      1.0  0.24395  0.62461  0.26316  1.0000
  C   C424      1.0  0.01436  0.59378  0.07263  1.0000
  S   S58       1.0  0.06883  0.72769  0.00212  1.0000
  C   C425      1.0  0.22943  0.61349  0.41385  1.0000
  H   H344      1.0  0.25739  0.75664  0.13784  1.0000
  C   C426      1.0  0.23980  0.64651  0.28613  1.0000
  H   H345      1.0  0.07989  0.81383  0.31390  1.0000
  C   C427      1.0  0.29252  0.73418  0.33436  1.0000
  C   C428      1.0  0.05857  0.56022  0.44066  1.0000
  H   H346      1.0  0.31219  0.85684  0.06900  1.0000
  C   C429      1.0  0.28278  0.82340  0.11445  1.0000
  H   H347      1.0  0.27079  0.72979  0.19034  1.0000
  C   C430      1.0  0.21152  0.69591  0.32971  1.0000
  C   C431      1.0  0.31869  0.83690  0.11010  1.0000
  H   H348      1.0  0.01154  0.75193  0.04490  1.0000
  H   H349      1.0  0.27854  0.66782  0.18682  1.0000
  C   C432      1.0  0.29612  0.81159  0.19934  1.0000
  C   C433      1.0  0.99444  0.55715  0.48138  1.0000
  C   C434      1.0  0.22886  0.70834  0.33038  1.0000
  C   C435      1.0  0.10916  0.85668  0.40847  1.0000
  H   H350      1.0  0.27311  0.71343  0.30522  1.0000
  C   C436      1.0  0.28633  0.68667  0.17592  1.0000
  H   H351      1.0  0.22519  0.59811  0.43139  1.0000
  C   C437      1.0  0.21772  0.76642  0.32130  1.0000
  H   H352      1.0  0.22525  0.75814  0.14424  1.0000
  H   H353      1.0  0.15378  0.80942  0.39885  1.0000
  H   H354      1.0  0.31019  0.75095  0.36794  1.0000
  C   C438      1.0  0.26286  0.79619  0.17010  1.0000
  C   C439      1.0  0.00924  0.56827  0.01690  1.0000
  C   C440      1.0  0.98880  0.75518  0.07139  1.0000
  H   H355      1.0  0.21226  0.79791  0.18038  1.0000
  C   C441      1.0  0.20983  0.66523  0.02336  1.0000
  C   C442      1.0  0.23365  0.77544  0.15674  1.0000
  S   S59       1.0  0.06684  0.65033  0.47351  1.0000
  H   H356      1.0  0.28027  0.84540  0.07297  1.0000
  H   H357      1.0  0.31479  0.50829  0.31097  1.0000
  C   C443      1.0  0.12105  0.86897  0.38862  1.0000
  S   S60       1.0  0.01882  0.70122  0.99557  1.0000
  C   C444      1.0  0.31229  0.82189  0.13451  1.0000
  C   C445      1.0  0.03369  0.57064  0.40933  1.0000
  C   C446      1.0  0.10451  0.90132  0.30837  1.0000
  C   C447      1.0  0.12056  0.74943  0.98645  1.0000
  H   H358      1.0  0.08375  0.94362  0.34580  1.0000
  H   H359      1.0  0.03679  0.58014  0.01188  1.0000
  C   C448      1.0  0.31149  0.70037  0.14795  1.0000
  C   C449      1.0  0.30759  0.86200  0.22552  1.0000
  C   C450      1.0  0.15871  0.93206  0.32348  1.0000
  H   H360      1.0  0.12841  0.97431  0.37957  1.0000
  H   H361      1.0  0.99592  0.74721  0.09023  1.0000
  C   C451      1.0  0.02240  0.55817  0.42974  1.0000
  C   C452      1.0  0.07747  0.98133  0.41049  1.0000
  C   C453      1.0  0.30715  0.84542  0.08796  1.0000
  C   C454      1.0  0.09231  0.49663  0.99582  1.0000
  C   C455      1.0  0.99541  0.56839  0.03616  1.0000
  C   C456      1.0  0.04730  0.54794  0.46117  1.0000
  H   H362      1.0  0.31306  0.85466  0.26995  1.0000
  H   H363      1.0  0.30358  0.79313  0.26882  1.0000
  Fe  Fe28      1.0  0.08484  0.69713  0.47156  1.0000
  C   C457      1.0  0.15071  0.98105  0.35351  1.0000
  C   C458      1.0  0.98851  0.76816  0.02152  1.0000
  C   C459      1.0  0.16159  0.96618  0.33307  1.0000
  C   C460      1.0  0.09130  0.96589  0.42558  1.0000
  H   H364      1.0  0.05283  0.53891  0.48095  1.0000
  H   H365      1.0  0.31371  0.69113  0.43800  1.0000
  H   H366      1.0  0.17197  0.98137  0.32407  1.0000
  H   H367      1.0  0.99542  0.76978  0.00174  1.0000
  C   C461      1.0  0.99528  0.59289  0.47581  1.0000
  H   H368      1.0  0.09348  0.97258  0.44777  1.0000
  H   H369      1.0  0.98928  0.50378  0.05955  1.0000
  C   C462      1.0  0.30107  0.67586  0.16094  1.0000
  H   H370      1.0  0.09257  0.55293  0.99414  1.0000
  P   P15       1.0  0.01449  0.53162  0.48239  1.0000
  H   H371      1.0  0.30474  0.64860  0.16012  1.0000
  H   H372      1.0  0.31946  0.85246  0.40476  1.0000
  H   H373      1.0  0.98716  0.48788  0.45325  1.0000
  H   H374      1.0  0.98714  0.58148  0.07840  1.0000
  Fe  Fe29      1.0  0.16649  0.80661  0.76568  1.0000
  S   S61       1.0  0.14415  0.76577  0.77210  1.0000
  S   S62       1.0  0.21226  0.79533  0.76624  1.0000
  Fe  Fe30      1.0  0.13557  0.86376  0.75593  1.0000
  S   S63       1.0  0.11354  0.82575  0.76207  1.0000
  S   S64       1.0  0.13051  0.91948  0.74016  1.0000
  Fe  Fe31      1.0  0.12956  0.80520  0.79880  1.0000
  S   S65       1.0  0.11621  0.79926  0.84203  1.0000
  Fe  Fe32      1.0  0.12881  0.78794  0.73496  1.0000
  S   S66       1.0  0.11342  0.75241  0.70311  1.0000
  S   S67       1.0  0.15054  0.84601  0.79433  1.0000
  S   S68       1.0  0.14967  0.82681  0.72650  1.0000
  Fe  Fe33      1.0  0.09465  0.69323  0.53570  1.0000
  S   S69       1.0  0.07341  0.72167  0.51133  1.0000
  S   S70       1.0  0.11232  0.72287  0.56844  1.0000
  H   H375      1.0  0.21639  0.78378  0.82634  1.0000
  C   C463      1.0  0.15773  0.70931  0.58512  1.0000
  H   H376      1.0  0.19687  0.73221  0.87546  1.0000
  C   C464      1.0  0.29938  0.76937  0.82027  1.0000
  S   S71       1.0  0.09878  0.68742  0.93739  1.0000
  C   C465      1.0  0.24338  0.71328  0.82719  1.0000
  H   H377      1.0  0.15563  0.78908  0.83271  1.0000
  H   H378      1.0  0.18888  0.68542  0.77472  1.0000
  S   S72       1.0  0.07802  0.64578  0.54140  1.0000
  H   H379      1.0  0.11807  0.56890  0.55048  1.0000
  H   H380      1.0  0.14562  0.81204  0.87868  1.0000
  Fe  Fe34      1.0  0.30289  0.67937  0.75414  1.0000
  S   S73       1.0  0.27278  0.68099  0.74922  1.0000
  C   C466      1.0  0.00404  0.70243  0.50288  1.0000
  C   C467      1.0  0.00785  0.67754  0.52329  1.0000
  H   H381      1.0  0.14332  0.71575  0.71457  1.0000
  C   C468      1.0  0.03762  0.57880  0.55197  1.0000
  H   H382      1.0  0.03067  0.64024  0.89649  1.0000
  C   C469      1.0  0.22877  0.76328  0.75961  1.0000
  C   C470      1.0  0.22486  0.72837  0.75349  1.0000
  C   C471      1.0  0.23851  0.70375  0.75031  1.0000
  C   C472      1.0  0.25625  0.71360  0.75299  1.0000
  C   C473      1.0  0.26019  0.74866  0.75832  1.0000
  C   C474      1.0  0.24653  0.77325  0.76171  1.0000
  H   H383      1.0  0.21138  0.72012  0.75167  1.0000
  H   H384      1.0  0.23530  0.67676  0.74598  1.0000
  H   H385      1.0  0.27373  0.75691  0.75979  1.0000
  H   H386      1.0  0.24974  0.80018  0.76631  1.0000
  C   C475      1.0  0.11330  0.74472  0.66560  1.0000
  C   C476      1.0  0.10335  0.71696  0.65386  1.0000
  C   C477      1.0  0.10266  0.71015  0.62430  1.0000
  C   C478      1.0  0.11217  0.73072  0.60598  1.0000
  C   C479      1.0  0.12215  0.75846  0.61775  1.0000
  C   C480      1.0  0.12251  0.76569  0.64726  1.0000
  H   H387      1.0  0.09608  0.70062  0.66776  1.0000
  H   H388      1.0  0.09494  0.68872  0.61574  1.0000
  H   H389      1.0  0.12946  0.77477  0.60387  1.0000
  H   H390      1.0  0.12964  0.78779  0.65589  1.0000
  C   C481      1.0  0.11102  0.76740  0.86782  1.0000
  C   C482      1.0  0.11551  0.73222  0.86462  1.0000
  C   C483      1.0  0.11167  0.70835  0.88603  1.0000
  C   C484      1.0  0.10286  0.71894  0.91078  1.0000
  C   C485      1.0  0.09797  0.75398  0.91367  1.0000
  C   C486      1.0  0.10217  0.77798  0.89252  1.0000
  H   H391      1.0  0.12173  0.72340  0.84546  1.0000
  H   H392      1.0  0.11537  0.68133  0.88327  1.0000
  H   H393      1.0  0.09092  0.76267  0.93217  1.0000
  H   H394      1.0  0.09840  0.80499  0.89524  1.0000
  Fe  Fe35      1.0  0.05725  0.67302  0.51484  1.0000
  C   C487      1.0  0.23807  0.74806  0.82856  1.0000
  C   C488      1.0  0.12941  0.52476  0.52876  1.0000
  H   H395      1.0  0.23940  0.70730  0.89992  1.0000
  C   C489      1.0  0.29307  0.73539  0.81789  1.0000
  H   H396      1.0  0.01481  0.76927  0.65822  1.0000
  C   C490      1.0  0.02323  0.63632  0.93997  1.0000
  H   H397      1.0  0.04212  0.55864  0.59362  1.0000
  H   H398      1.0  0.15213  0.94964  0.78731  1.0000
  H   H399      1.0  0.18631  0.75471  0.92131  1.0000
  C   C491      1.0  0.09248  0.49893  0.48721  1.0000
  H   H400      1.0  0.15309  0.72753  0.54293  1.0000
  S   S74       1.0  0.06173  0.64627  0.98302  1.0000
  H   H401      1.0  0.02164  0.74041  0.57027  1.0000
  H   H402      1.0  0.11313  0.53691  0.59470  1.0000
  C   C492      1.0  0.13368  0.48944  0.52998  1.0000
  P   P16       1.0  0.30417  0.69533  0.89559  1.0000
  H   H403      1.0  0.02786  0.82627  0.64310  1.0000
  C   C493      1.0  0.30234  0.72489  0.86648  1.0000
  C   C494      1.0  0.05107  0.81668  0.54574  1.0000
  C   C495      1.0  0.31194  0.65439  0.88090  1.0000
  S   S75       1.0  0.10685  0.67120  0.49573  1.0000
  H   H404      1.0  0.01357  0.53949  0.92167  1.0000
  H   H405      1.0  0.07406  0.55284  0.53630  1.0000
  C   C496      1.0  0.29454  0.71326  0.84086  1.0000
  H   H406      1.0  0.04339  0.83343  0.53209  1.0000
  H   H407      1.0  0.04282  0.53752  0.96618  1.0000
  C   C497      1.0  0.28292  0.69000  0.91125  1.0000
  C   C498      1.0  0.28175  0.67328  0.93726  1.0000
  C   C499      1.0  0.26541  0.66865  0.94962  1.0000
  C   C500      1.0  0.02585  0.62325  0.91258  1.0000
  C   C501      1.0  0.25120  0.69773  0.91037  1.0000
  C   C502      1.0  0.26753  0.70250  0.89802  1.0000
  S   S76       1.0  0.02978  0.66614  0.53335  1.0000
  C   C503      1.0  0.04633  0.84598  0.67436  1.0000
  C   C504      1.0  0.17510  0.94804  0.72258  1.0000
  H   H408      1.0  0.99660  0.64294  0.55324  1.0000
  H   H409      1.0  0.29082  0.62278  0.89644  1.0000
  C   C505      1.0  0.02049  0.75778  0.61427  1.0000
  C   C506      1.0  0.30865  0.59227  0.87164  1.0000
  C   C507      1.0  0.06867  0.80986  0.53983  1.0000
  C   C508      1.0  0.04341  0.80201  0.56933  1.0000
  C   C509      1.0  0.18964  0.96218  0.73710  1.0000
  C   C510      1.0  0.03696  0.51295  0.97152  1.0000
  H   H410      1.0  0.29350  0.66372  0.94790  1.0000
  C   C511      1.0  0.01397  0.57933  0.95476  1.0000
  H   H411      1.0  0.26800  0.71611  0.87830  1.0000
  C   C512      1.0  0.08825  0.53029  0.50153  1.0000
  H   H412      1.0  0.02992  0.80841  0.57404  1.0000
  H   H413      1.0  0.15701  0.65897  0.72335  1.0000
  H   H414      1.0  0.18771  0.84846  0.72773  1.0000
  S   S77       1.0  0.31772  0.64126  0.72618  1.0000
  H   H415      1.0  0.10027  0.49313  0.97727  1.0000
  C   C513      1.0  0.16283  0.78223  0.85173  1.0000
  C   C514      1.0  0.03099  0.57209  0.52460  1.0000
  H   H416      1.0  0.28982  0.68681  0.83845  1.0000
  C   C515      1.0  0.30273  0.62325  0.88442  1.0000
  H   H417      1.0  0.28748  0.72574  0.79800  1.0000
  H   H418      1.0  0.14784  0.68915  0.58303  1.0000
  C   C516      1.0  0.02952  0.52096  0.56565  1.0000
  C   C517      1.0  0.31372  0.74071  0.93990  1.0000
  C   C518      1.0  0.31876  0.71165  0.92338  1.0000
  H   H419      1.0  0.18897  0.86700  0.78052  1.0000
  C   C519      1.0  0.01329  0.74605  0.58816  1.0000
  H   H420      1.0  0.29867  0.78616  0.80217  1.0000
  C   C520      1.0  0.07862  0.78852  0.55758  1.0000
  C   C521      1.0  0.07089  0.77320  0.58080  1.0000
  C   C522      1.0  0.05317  0.77938  0.58658  1.0000
  C   C523      1.0  0.07728  0.52907  0.52487  1.0000
  P   P17       1.0  0.04395  0.76295  0.61844  1.0000
  C   C524      1.0  0.05169  0.71960  0.62566  1.0000
  C   C525      1.0  0.05095  0.79339  0.64598  1.0000
  C   C526      1.0  0.06777  0.79007  0.65843  1.0000
  C   C527      1.0  0.07356  0.81383  0.67933  1.0000
  C   C528      1.0  0.06282  0.84169  0.68742  1.0000
  C   C529      1.0  0.11906  0.52369  0.57679  1.0000
  H   H421      1.0  0.13425  0.71980  0.95467  1.0000
  C   C530      1.0  0.05448  0.70911  0.65370  1.0000
  C   C531      1.0  0.05947  0.67489  0.65936  1.0000
  C   C532      1.0  0.06119  0.65065  0.63715  1.0000
  C   C533      1.0  0.05788  0.66063  0.60930  1.0000
  C   C534      1.0  0.05326  0.69502  0.60347  1.0000
  H   H422      1.0  0.17040  0.92236  0.72763  1.0000
  C   C535      1.0  0.12350  0.48842  0.57823  1.0000
  H   H423      1.0  0.02432  0.57823  0.88479  1.0000
  H   H424      1.0  0.17178  0.63220  0.76436  1.0000
  C   C536      1.0  0.16066  0.73109  0.56246  1.0000
  H   H425      1.0  0.09230  0.78334  0.55310  1.0000
  H   H426      1.0  0.07877  0.75672  0.59431  1.0000
  C   C537      1.0  0.16357  0.67728  0.71015  1.0000
  H   H427      1.0  0.07649  0.76918  0.65197  1.0000
  H   H428      1.0  0.08647  0.81063  0.68917  1.0000
  H   H429      1.0  0.06741  0.86013  0.70358  1.0000
  C   C538      1.0  0.03688  0.55332  0.57250  1.0000
  C   C539      1.0  0.00944  0.76223  0.63751  1.0000
  H   H430      1.0  0.05274  0.72719  0.67130  1.0000
  H   H431      1.0  0.06194  0.66719  0.68100  1.0000
  H   H432      1.0  0.06498  0.62409  0.64150  1.0000
  H   H433      1.0  0.05878  0.64167  0.59218  1.0000
  H   H434      1.0  0.05063  0.70220  0.58172  1.0000
  C   C540      1.0  0.30879  0.75901  0.86870  1.0000
  H   H435      1.0  0.99366  0.56336  0.56469  1.0000
  H   H436      1.0  0.13388  0.66399  0.82600  1.0000
  C   C541      1.0  0.21299  0.69550  0.82250  1.0000
  H   H437      1.0  0.23500  0.66003  0.82391  1.0000
  C   C542      1.0  0.02232  0.58834  0.90606  1.0000
  H   H438      1.0  0.18073  0.73719  0.75172  1.0000
  H   H439      1.0  0.25720  0.70667  0.82750  1.0000
  H   H440      1.0  0.20360  0.67459  0.82123  1.0000
  C   C543      1.0  0.23083  0.68700  0.82477  1.0000
  H   H441      1.0  0.16063  0.79465  0.92306  1.0000
  H   H442      1.0  0.06240  0.49626  0.55193  1.0000
  C   C544      1.0  0.15698  0.79499  0.87785  1.0000
  C   C545      1.0  0.25013  0.68076  0.93613  1.0000
  C   C546      1.0  0.22024  0.75664  0.82607  1.0000
  C   C547      1.0  0.01930  0.51116  0.97948  1.0000
  C   C548      1.0  0.20760  0.73052  0.82164  1.0000
  S   S78       1.0  0.31500  0.65841  0.79416  1.0000
  Fe  Fe36      1.0  0.08830  0.62580  0.49995  1.0000
  C   C549      1.0  0.15570  0.70933  0.70489  1.0000
  H   H443      1.0  0.18682  0.82100  0.81912  1.0000
  C   C550      1.0  0.17958  0.66871  0.69789  1.0000
  C   C551      1.0  0.18754  0.69203  0.67990  1.0000
  C   C552      1.0  0.17964  0.72438  0.67430  1.0000
  C   C553      1.0  0.16351  0.73267  0.68672  1.0000
  P   P18       1.0  0.18900  0.75215  0.64820  1.0000
  C   C554      1.0  0.18404  0.79758  0.65528  1.0000
  C   C555      1.0  0.21251  0.74531  0.64925  1.0000
  C   C556      1.0  0.22160  0.74640  0.67546  1.0000
  C   C557      1.0  0.23968  0.74014  0.67682  1.0000
  C   C558      1.0  0.24882  0.73247  0.65212  1.0000
  C   C559      1.0  0.23989  0.73115  0.62599  1.0000
  C   C560      1.0  0.22177  0.73746  0.62451  1.0000
  C   C561      1.0  0.19678  0.82068  0.66647  1.0000
  C   C562      1.0  0.19261  0.85580  0.67117  1.0000
  C   C563      1.0  0.17568  0.86806  0.66509  1.0000
  C   C564      1.0  0.16303  0.84540  0.65360  1.0000
  C   C565      1.0  0.16726  0.81047  0.64838  1.0000
  C   C566      1.0  0.17905  0.74173  0.61402  1.0000
  C   C567      1.0  0.16686  0.71452  0.61081  1.0000
  C   C568      1.0  0.07062  0.49695  0.53362  1.0000
  H   H444      1.0  0.17496  0.77510  0.54783  1.0000
  C   C569      1.0  0.17290  0.75796  0.56534  1.0000
  C   C570      1.0  0.18203  0.76337  0.59104  1.0000
  H   H445      1.0  0.18567  0.64373  0.70186  1.0000
  H   H446      1.0  0.19968  0.68440  0.66991  1.0000
  H   H447      1.0  0.15677  0.75683  0.68233  1.0000
  H   H448      1.0  0.21472  0.75206  0.69492  1.0000
  H   H449      1.0  0.24661  0.74099  0.69710  1.0000
  H   H450      1.0  0.26283  0.72733  0.65335  1.0000
  H   H451      1.0  0.24700  0.72496  0.60689  1.0000
  H   H452      1.0  0.21509  0.73576  0.60413  1.0000
  H   H453      1.0  0.20992  0.81195  0.67172  1.0000
  H   H454      1.0  0.20245  0.87341  0.68002  1.0000
  H   H455      1.0  0.17234  0.89509  0.66928  1.0000
  H   H456      1.0  0.14989  0.85485  0.64882  1.0000
  H   H457      1.0  0.15745  0.79344  0.63883  1.0000
  H   H458      1.0  0.16382  0.69791  0.62822  1.0000
  H   H459      1.0  0.15131  0.71596  0.83786  1.0000
  C   C571      1.0  0.16618  0.96750  0.70218  1.0000
  H   H460      1.0  0.19104  0.78501  0.59327  1.0000
  H   H461      1.0  0.24780  0.76850  0.83018  1.0000
  S   S79       1.0  0.09740  0.57001  0.48998  1.0000
  C   C572      1.0  0.04045  0.82208  0.65352  1.0000
  H   H462      1.0  0.30130  0.75363  0.93576  1.0000
  H   H463      1.0  0.18359  0.78318  0.71345  1.0000
  H   H464      1.0  0.14402  0.62167  0.78942  1.0000
  H   H465      1.0  0.13129  0.53877  0.50938  1.0000
  H   H466      1.0  0.03818  0.86802  0.68028  1.0000
  C   C573      1.0  0.13516  0.96311  0.75229  1.0000
  C   C574      1.0  0.18668  0.84007  0.77452  1.0000
  C   C575      1.0  0.18598  0.82921  0.74370  1.0000
  C   C576      1.0  0.18348  0.79110  0.73539  1.0000
  C   C577      1.0  0.18190  0.76416  0.75808  1.0000
  C   C578      1.0  0.18281  0.77496  0.78924  1.0000
  C   C579      1.0  0.18521  0.81296  0.79716  1.0000
  P   P19       1.0  0.18469  0.74246  0.81668  1.0000
  C   C580      1.0  0.17746  0.76003  0.85038  1.0000
  C   C581      1.0  0.17145  0.70483  0.80715  1.0000
  C   C582      1.0  0.15588  0.69827  0.82151  1.0000
  C   C583      1.0  0.14597  0.66858  0.81493  1.0000
  C   C584      1.0  0.15166  0.64481  0.79429  1.0000
  C   C585      1.0  0.16721  0.65090  0.78005  1.0000
  C   C586      1.0  0.17689  0.68110  0.78602  1.0000
  C   C587      1.0  0.18586  0.75004  0.87573  1.0000
  C   C588      1.0  0.17988  0.76263  0.90185  1.0000
  C   C589      1.0  0.16545  0.78513  0.90289  1.0000
  H   H467      1.0  0.02598  0.66342  0.94496  1.0000
  H   H468      1.0  0.23747  0.67709  0.94567  1.0000
  C   C590      1.0  0.30721  0.78119  0.84568  1.0000
  H   H469      1.0  0.31416  0.63183  0.53653  1.0000
  H   H470      1.0  0.04332  0.60391  0.55716  1.0000
  C   C591      1.0  0.14635  0.97070  0.77548  1.0000
  C   C592      1.0  0.01729  0.61450  0.96103  1.0000
  C   C593      1.0  0.01628  0.56648  0.92702  1.0000
  C   C594      1.0  0.99520  0.74085  0.58496  1.0000
  H   H471      1.0  0.30522  0.57098  0.52701  1.0000
  H   H472      1.0  0.99050  0.49959  0.56061  1.0000
  H   H473      1.0  0.31272  0.80708  0.84717  1.0000
  H   H474      1.0  0.19643  0.94715  0.75309  1.0000
  C   C595      1.0  0.99133  0.75682  0.63426  1.0000
  C   C596      1.0  0.99382  0.66211  0.53732  1.0000
  C   C597      1.0  0.02374  0.53954  0.51744  1.0000
  C   C598      1.0  0.02303  0.51404  0.53822  1.0000
  H   H475      1.0  0.01466  0.71470  0.49202  1.0000
  H   H476      1.0  0.15463  0.95673  0.69151  1.0000
  P   P20       1.0  0.00622  0.55053  0.98138  1.0000
  H   H477      1.0  0.07462  0.82098  0.52147  1.0000
  H   H478      1.0  0.03158  0.59240  0.50910  1.0000
  C   C599      1.0  0.13304  0.72525  0.97716  1.0000
  H   H479      1.0  0.11917  0.98579  0.71931  1.0000
  C   C600      1.0  0.12194  0.54181  0.55201  1.0000
  H   H480      1.0  0.02911  0.50097  0.58143  1.0000
  H   H481      1.0  0.26462  0.65563  0.96966  1.0000
  H   H482      1.0  0.31892  0.71516  0.63293  1.0000
  H   H483      1.0  0.30137  0.56840  0.87387  1.0000
  H   H484      1.0  0.31558  0.76833  0.88764  1.0000
  H   H485      1.0  0.31775  0.53552  0.73250  1.0000
  Fe  Fe37      1.0  0.08383  0.68514  0.97964  1.0000
  H   H486      1.0  0.98975  0.73209  0.56466  1.0000
  H   H487      1.0  0.11233  0.76285  0.97121  1.0000
  H   H488      1.0  0.01742  0.48883  0.53346  1.0000
  H   H489      1.0  0.01539  0.62518  0.98211  1.0000
  C   C601      1.0  0.31833  0.57928  0.52181  1.0000
  C   C602      1.0  0.34547  0.40092  0.30543  1.0000
  S   S80       1.0  0.60699  0.17133  0.99741  1.0000
  S   S81       1.0  0.34055  0.31924  0.26490  1.0000
  C   C603      1.0  0.36290  0.38927  0.30681  1.0000
  Fe  Fe38      1.0  0.33274  0.28144  0.22936  1.0000
  S   S82       1.0  0.35424  0.25686  0.20098  1.0000
  H   H490      1.0  0.53279  0.24458  0.47291  1.0000
  S   S83       1.0  0.32874  0.27691  0.34048  1.0000
  S   S84       1.0  0.62263  0.32451  0.25420  1.0000
  C   C604      1.0  0.32267  0.48014  0.23324  1.0000
  Fe  Fe39      1.0  0.63240  0.29938  0.29425  1.0000
  S   S85       1.0  0.61095  0.28322  0.32546  1.0000
  Fe  Fe40      1.0  0.63937  0.28674  0.22954  1.0000
  S   S86       1.0  0.62864  0.24863  0.19467  1.0000
  C   C605      1.0  0.47604  0.05661  0.99317  1.0000
  S   S87       1.0  0.57434  0.14384  0.03688  1.0000
  Fe  Fe41      1.0  0.32300  0.28823  0.29303  1.0000
  H   H491      1.0  0.57982  0.29806  0.07916  1.0000
  H   H492      1.0  0.48942  0.05048  0.99919  1.0000
  S   S88       1.0  0.60551  0.22311  0.45103  1.0000
  Fe  Fe42      1.0  0.58953  0.19386  0.03154  1.0000
  S   S89       1.0  0.60198  0.23239  0.06461  1.0000
  S   S90       1.0  0.57744  0.06650  0.48372  1.0000
  C   C606      1.0  0.39345  0.02422  0.99204  1.0000
  C   C607      1.0  0.41519  0.18324  0.40186  1.0000
  C   C608      1.0  0.45808  0.01221  0.06126  1.0000
  Fe  Fe43      1.0  0.38347  0.17245  0.47107  1.0000
  C   C609      1.0  0.37442  0.38383  0.24953  1.0000
  S   S91       1.0  0.37283  0.17797  0.42498  1.0000
  C   C610      1.0  0.35725  0.37765  0.20580  1.0000
  S   S92       1.0  0.40787  0.16545  0.05267  1.0000
  H   H493      1.0  0.58142  0.28418  0.44340  1.0000
  H   H494      1.0  0.35469  0.42055  0.23505  1.0000
  H   H495      1.0  0.36155  0.33053  0.18133  1.0000
  Fe  Fe44      1.0  0.38499  0.19829  0.03901  1.0000
  S   S93       1.0  0.36529  0.22858  0.06724  1.0000
  C   C611      1.0  0.45858  0.00322  0.08994  1.0000
  C   C612      1.0  0.37531  0.45283  0.27896  1.0000
  H   H496      1.0  0.36541  0.15796  0.10429  1.0000
  H   H497      1.0  0.35782  0.32639  0.35583  1.0000
  H   H498      1.0  0.36485  0.24761  0.00613  1.0000
  C   C613      1.0  0.36542  0.34579  0.19998  1.0000
  C   C614      1.0  0.35844  0.08984  0.05841  1.0000
  H   H499      1.0  0.41920  0.10483  0.10560  1.0000
  H   H500      1.0  0.63718  0.35881  0.19288  1.0000
  H   H501      1.0  0.48784  0.07142  0.43998  1.0000
  C   C615      1.0  0.33425  0.13081  0.05627  1.0000
  C   C616      1.0  0.34195  0.09933  0.04725  1.0000
  H   H502      1.0  0.32197  0.13961  0.04694  1.0000
  C   C617      1.0  0.37802  0.33277  0.21892  1.0000
  H   H503      1.0  0.43392  0.05753  0.07982  1.0000
  H   H504      1.0  0.56962  0.05040  0.02153  1.0000
  C   C618      1.0  0.60672  0.33257  0.46035  1.0000
  H   H505      1.0  0.41211  0.39294  0.25456  1.0000
  H   H506      1.0  0.54953  0.22865  0.12833  1.0000
  H   H507      1.0  0.54165  0.05505  0.07503  1.0000
  C   C619      1.0  0.64735  0.46119  0.25197  1.0000
  H   H508      1.0  0.39152  0.34032  0.25877  1.0000
  C   C620      1.0  0.44559  0.04489  0.43864  1.0000
  C   C621      1.0  0.60041  0.99767  0.99178  1.0000
  C   C622      1.0  0.48708  0.20889  0.02726  1.0000
  C   C623      1.0  0.60913  0.23616  0.10100  1.0000
  C   C624      1.0  0.60782  0.20893  0.12005  1.0000
  C   C625      1.0  0.61390  0.21329  0.14843  1.0000
  C   C626      1.0  0.62115  0.24502  0.15846  1.0000
  C   C627      1.0  0.62226  0.27239  0.13951  1.0000
  C   C628      1.0  0.61644  0.26785  0.11104  1.0000
  H   H509      1.0  0.60226  0.18440  0.11285  1.0000
  H   H510      1.0  0.61294  0.19184  0.16273  1.0000
  C   C629      1.0  0.36171  0.39659  0.23045  1.0000
  H   H511      1.0  0.61752  0.28919  0.09666  1.0000
  C   C630      1.0  0.60998  0.26496  0.35999  1.0000
  C   C631      1.0  0.62451  0.26396  0.37854  1.0000
  C   C632      1.0  0.62288  0.25064  0.40603  1.0000
  C   C633      1.0  0.60678  0.23775  0.41541  1.0000
  C   C634      1.0  0.59234  0.23790  0.39663  1.0000
  C   C635      1.0  0.59391  0.25169  0.36927  1.0000
  H   H512      1.0  0.63690  0.27433  0.37196  1.0000
  H   H513      1.0  0.63414  0.25084  0.42030  1.0000
  H   H514      1.0  0.57989  0.22787  0.40329  1.0000
  H   H515      1.0  0.58254  0.25216  0.35518  1.0000
  C   C636      1.0  0.43708  0.21091  0.43236  1.0000
  H   H516      1.0  0.63909  0.33685  0.39781  1.0000
  C   C637      1.0  0.40083  0.40069  0.29596  1.0000
  C   C638      1.0  0.39768  0.02862  0.02082  1.0000
  C   C639      1.0  0.62781  0.15091  0.41855  1.0000
  C   C640      1.0  0.35695  0.24938  0.16362  1.0000
  C   C641      1.0  0.34452  0.25999  0.14326  1.0000
  C   C642      1.0  0.34737  0.25352  0.11406  1.0000
  C   C643      1.0  0.36262  0.23627  0.10457  1.0000
  C   C644      1.0  0.37509  0.22583  0.12490  1.0000
  C   C645      1.0  0.37226  0.23235  0.15409  1.0000
  H   H517      1.0  0.33269  0.27313  0.15003  1.0000
  H   H518      1.0  0.33760  0.26185  0.09870  1.0000
  H   H519      1.0  0.38693  0.21272  0.11816  1.0000
  H   H520      1.0  0.38201  0.22402  0.16948  1.0000
  C   C646      1.0  0.34086  0.24858  0.36355  1.0000
  C   C647      1.0  0.34890  0.21776  0.35399  1.0000
  C   C648      1.0  0.35859  0.19677  0.37306  1.0000
  C   C649      1.0  0.36038  0.20593  0.40204  1.0000
  C   C650      1.0  0.35226  0.23662  0.41162  1.0000
  C   C651      1.0  0.34262  0.25771  0.39255  1.0000
  H   H521      1.0  0.34762  0.21000  0.33191  1.0000
  H   H522      1.0  0.36468  0.17306  0.36527  1.0000
  H   H523      1.0  0.35325  0.24392  0.43380  1.0000
  H   H524      1.0  0.33645  0.28130  0.40039  1.0000
  H   H525      1.0  0.63459  0.15644  0.08555  1.0000
  H   H526      1.0  0.38030  0.35043  0.32472  1.0000
  C   C652      1.0  0.59224  0.02871  0.00095  1.0000
  H   H527      1.0  0.34133  0.20483  0.00907  1.0000
  H   H528      1.0  0.34692  0.38710  0.19181  1.0000
  H   H529      1.0  0.55590  0.24591  0.43668  1.0000
  H   H530      1.0  0.42449  0.40069  0.35799  1.0000
  H   H531      1.0  0.49230  0.00274  0.07814  1.0000
  H   H532      1.0  0.64721  0.18034  0.24154  1.0000
  C   C653      1.0  0.40461  0.40390  0.32510  1.0000
  C   C654      1.0  0.35469  0.34823  0.34253  1.0000
  S   S94       1.0  0.60289  0.06905  0.99564  1.0000
  P   P21       1.0  0.37862  0.40654  0.28280  1.0000
  C   C655      1.0  0.35880  0.14145  0.08861  1.0000
  H   H533      1.0  0.38918  0.29307  0.07488  1.0000
  C   C656      1.0  0.49065  0.14787  0.99511  1.0000
  H   H534      1.0  0.44846  0.38639  0.32486  1.0000
  H   H535      1.0  0.40280  0.00206  0.05986  1.0000
  C   C657      1.0  0.39941  0.99897  0.03761  1.0000
  C   C658      1.0  0.51770  0.99820  0.00191  1.0000
  H   H536      1.0  0.34093  0.45269  0.99741  1.0000
  S   S95       1.0  0.40235  0.12738  0.47650  1.0000
  C   C659      1.0  0.62357  0.16381  0.28601  1.0000
  C   C660      1.0  0.62446  0.19555  0.30083  1.0000
  C   C661      1.0  0.45290  0.00458  0.47579  1.0000
  H   H537      1.0  0.57000  0.39586  0.21303  1.0000
  Fe  Fe45      1.0  0.42300  0.18823  0.01709  1.0000
  C   C662      1.0  0.33288  0.38726  0.32311  1.0000
  C   C663      1.0  0.42860  0.18086  0.42232  1.0000
  C   C664      1.0  0.65181  0.19925  0.09595  1.0000
  C   C665      1.0  0.34257  0.15155  0.07715  1.0000
  C   C666      1.0  0.41031  0.30468  0.04693  1.0000
  C   C667      1.0  0.34158  0.01027  0.99382  1.0000
  H   H538      1.0  0.36601  0.30024  0.03851  1.0000
  H   H539      1.0  0.56225  0.24461  0.08248  1.0000
  S   S96       1.0  0.40061  0.07032  0.03711  1.0000
  H   H540      1.0  0.62777  0.29695  0.14664  1.0000
  Fe  Fe46      1.0  0.39857  0.12560  0.02003  1.0000
  H   H541      1.0  0.44088  0.07028  0.43228  1.0000
  Fe  Fe47      1.0  0.59044  0.12291  0.00076  1.0000
  H   H542      1.0  0.61402  0.16024  0.26889  1.0000
  H   H543      1.0  0.61564  0.21660  0.29526  1.0000
  C   C668      1.0  0.50591  0.16515  0.00507  1.0000
  C   C669      1.0  0.64474  0.16633  0.09997  1.0000
  H   H544      1.0  0.46089  0.17448  0.08613  1.0000
  S   S97       1.0  0.52684  0.14614  0.99785  1.0000
  C   C670      1.0  0.52470  0.37326  0.17857  1.0000
  H   H545      1.0  0.38659  0.45420  0.23729  1.0000
  H   H546      1.0  0.38378  0.30738  0.21477  1.0000
  Fe  Fe48      1.0  0.55576  0.16360  0.00268  1.0000
  C   C671      1.0  0.61229  0.34263  0.41069  1.0000
  C   C672      1.0  0.64840  0.17359  0.33023  1.0000
  H   H547      1.0  0.33676  0.17608  0.08392  1.0000
  H   H548      1.0  0.49618  0.10116  0.03661  1.0000
  C   C673      1.0  0.57555  0.99513  0.48409  1.0000
  H   H549      1.0  0.42844  0.31713  0.01434  1.0000
  S   S98       1.0  0.37442  0.15696  0.00839  1.0000
  H   H550      1.0  0.39693  0.03898  0.48039  1.0000
  C   C674      1.0  0.38237  0.35152  0.24376  1.0000
  Fe  Fe49      1.0  0.58693  0.19520  0.48139  1.0000
  H   H551      1.0  0.63722  0.22524  0.33393  1.0000
  S   S99       1.0  0.45082  0.20926  0.02616  1.0000
  C   C675      1.0  0.54381  0.26218  0.47558  1.0000
  H   H552      1.0  0.33937  0.02619  0.06495  1.0000
  C   C676      1.0  0.33908  0.22825  0.99713  1.0000
  H   H553      1.0  0.39433  0.41055  0.33981  1.0000
  C   C677      1.0  0.54306  0.41141  0.20769  1.0000
  H   H554      1.0  0.63211  0.12641  0.45859  1.0000
  C   C678      1.0  0.34409  0.36456  0.00127  1.0000
  C   C679      1.0  0.47372  0.16070  0.00143  1.0000
  H   H555      1.0  0.46491  0.02022  0.10559  1.0000
  H   H556      1.0  0.63421  0.41751  0.17301  1.0000
  H   H557      1.0  0.48229  0.13287  0.47067  1.0000
  H   H558      1.0  0.49236  0.98986  0.46541  1.0000
  H   H559      1.0  0.62725  0.17601  0.37854  1.0000
  H   H560      1.0  0.43210  0.15587  0.43105  1.0000
  C   C680      1.0  0.34160  0.01241  0.04511  1.0000
  C   C681      1.0  0.63551  0.16315  0.39409  1.0000
  H   H561      1.0  0.34160  0.42013  0.29021  1.0000
  C   C682      1.0  0.58943  0.25088  0.23182  1.0000
  C   C683      1.0  0.58573  0.26382  0.25890  1.0000
  C   C684      1.0  0.57818  0.29675  0.26227  1.0000
  C   C685      1.0  0.57426  0.31676  0.23856  1.0000
  C   C686      1.0  0.57774  0.30380  0.21119  1.0000
  C   C687      1.0  0.58554  0.27082  0.20809  1.0000
  P   P22       1.0  0.57425  0.33071  0.18060  1.0000
  C   C688      1.0  0.59350  0.35710  0.17597  1.0000
  C   C689      1.0  0.57025  0.30370  0.14937  1.0000
  C   C690      1.0  0.56005  0.27346  0.15100  1.0000
  C   C691      1.0  0.55708  0.25233  0.12693  1.0000
  C   C692      1.0  0.56411  0.26140  0.10104  1.0000
  C   C693      1.0  0.57402  0.29170  0.09917  1.0000
  C   C694      1.0  0.57715  0.31275  0.12322  1.0000
  C   C695      1.0  0.59204  0.38986  0.16350  1.0000
  C   C696      1.0  0.60672  0.41147  0.16218  1.0000
  C   C697      1.0  0.35243  0.25293  0.99571  1.0000
  C   C698      1.0  0.62464  0.36724  0.18428  1.0000
  C   C699      1.0  0.61002  0.34553  0.18553  1.0000
  C   C700      1.0  0.55551  0.35888  0.18642  1.0000
  C   C701      1.0  0.53902  0.35103  0.17412  1.0000
  C   C702      1.0  0.55740  0.38925  0.20328  1.0000
  H   H562      1.0  0.59593  0.22593  0.22917  1.0000
  H   H563      1.0  0.58917  0.24887  0.27739  1.0000
  H   H564      1.0  0.57596  0.30717  0.28341  1.0000
  H   H565      1.0  0.56893  0.34254  0.24188  1.0000
  H   H566      1.0  0.58918  0.26082  0.18742  1.0000
  H   H567      1.0  0.55453  0.26605  0.17091  1.0000
  H   H568      1.0  0.60546  0.43712  0.15331  1.0000
  Fe  Fe50      1.0  0.64645  0.35956  0.25737  1.0000
  C   C703      1.0  0.36739  0.47289  0.30044  1.0000
  H   H569      1.0  0.58521  0.33562  0.12132  1.0000
  H   H570      1.0  0.57953  0.39899  0.15526  1.0000
  C   C704      1.0  0.63015  0.33609  0.41535  1.0000
  C   C705      1.0  0.52570  0.02971  0.99559  1.0000
  H   H571      1.0  0.61161  0.31999  0.19440  1.0000
  H   H572      1.0  0.53712  0.32793  0.16099  1.0000
  C   C706      1.0  0.36678  0.11072  0.07911  1.0000
  H   H573      1.0  0.47613  0.12769  0.06112  1.0000
  H   H574      1.0  0.48580  0.23268  0.03969  1.0000
  C   C707      1.0  0.36806  0.33887  0.42209  1.0000
  C   C708      1.0  0.36547  0.32243  0.44777  1.0000
  C   C709      1.0  0.37683  0.29584  0.45628  1.0000
  C   C710      1.0  0.39063  0.28527  0.43897  1.0000
  C   C711      1.0  0.39324  0.30148  0.41302  1.0000
  C   C712      1.0  0.38199  0.32867  0.40491  1.0000
  P   P23       1.0  0.41105  0.28832  0.39041  1.0000
  C   C713      1.0  0.40274  0.28574  0.35422  1.0000
  C   C714      1.0  0.42905  0.31873  0.39377  1.0000
  C   C715      1.0  0.44560  0.30946  0.38330  1.0000
  C   C716      1.0  0.45972  0.33245  0.38623  1.0000
  C   C717      1.0  0.45747  0.36475  0.39981  1.0000
  C   C718      1.0  0.44109  0.37408  0.41049  1.0000
  C   C719      1.0  0.42691  0.35120  0.40750  1.0000
  C   C720      1.0  0.38562  0.27375  0.34859  1.0000
  C   C721      1.0  0.37893  0.27191  0.32082  1.0000
  C   C722      1.0  0.38929  0.28169  0.29836  1.0000
  C   C723      1.0  0.40634  0.29382  0.30370  1.0000
  C   C724      1.0  0.41303  0.29600  0.33149  1.0000
  C   C725      1.0  0.41865  0.24601  0.40137  1.0000
  C   C726      1.0  0.43208  0.24338  0.42211  1.0000
  C   C727      1.0  0.64732  0.14158  0.31537  1.0000
  H   H575      1.0  0.32768  0.35007  0.35518  1.0000
  H   H576      1.0  0.52389  0.00445  0.08887  1.0000
  C   C728      1.0  0.41018  0.21565  0.39144  1.0000
  H   H577      1.0  0.35916  0.35930  0.41541  1.0000
  H   H578      1.0  0.35459  0.33005  0.46101  1.0000
  H   H579      1.0  0.37476  0.28280  0.47608  1.0000
  H   H580      1.0  0.39898  0.26411  0.44583  1.0000
  H   H581      1.0  0.38393  0.34176  0.38518  1.0000
  H   H582      1.0  0.44760  0.28425  0.37312  1.0000
  H   H583      1.0  0.47249  0.32496  0.37833  1.0000
  H   H584      1.0  0.46849  0.38236  0.40242  1.0000
  H   H585      1.0  0.43942  0.39891  0.42142  1.0000
  H   H586      1.0  0.41444  0.35882  0.41631  1.0000
  H   H587      1.0  0.37742  0.26578  0.36572  1.0000
  H   H588      1.0  0.36561  0.26303  0.31664  1.0000
  H   H589      1.0  0.38401  0.27982  0.27687  1.0000
  H   H590      1.0  0.41438  0.30138  0.28623  1.0000
  H   H591      1.0  0.42621  0.30557  0.33497  1.0000
  H   H592      1.0  0.43833  0.26639  0.43112  1.0000
  H   H593      1.0  0.60746  0.34834  0.38953  1.0000
  C   C729      1.0  0.33917  0.02922  0.01921  1.0000
  H   H594      1.0  0.42050  0.30078  0.06289  1.0000
  H   H595      1.0  0.39923  0.21683  0.37657  1.0000
  H   H596      1.0  0.58688  0.34705  0.42927  1.0000
  H   H597      1.0  0.44718  0.20902  0.44879  1.0000
  C   C730      1.0  0.44912  0.99047  0.04160  1.0000
  C   C731      1.0  0.50401  0.19587  0.02113  1.0000
  C   C732      1.0  0.43166  0.38854  0.28766  1.0000
  H   H598      1.0  0.51952  0.07646  0.42927  1.0000
  P   P24       1.0  0.46775  0.05276  0.05064  1.0000
  C   C733      1.0  0.45699  0.08782  0.07006  1.0000
  H   H599      1.0  0.62281  0.48313  0.23726  1.0000
  H   H600      1.0  0.51562  0.42067  0.19868  1.0000
  C   C734      1.0  0.57601  0.02679  0.01421  1.0000
  H   H601      1.0  0.54466  0.43481  0.22067  1.0000
  H   H602      1.0  0.43268  0.16338  0.10946  1.0000
  H   H603      1.0  0.52752  0.10338  0.04901  1.0000
  C   C735      1.0  0.44056  0.08227  0.08227  1.0000
  C   C736      1.0  0.43202  0.10922  0.09686  1.0000
  C   C737      1.0  0.43957  0.14221  0.09893  1.0000
  C   C738      1.0  0.45551  0.14841  0.08596  1.0000
  C   C739      1.0  0.46418  0.12145  0.07160  1.0000
  C   C740      1.0  0.49132  0.05294  0.05794  1.0000
  C   C741      1.0  0.50174  0.08061  0.04915  1.0000
  C   C742      1.0  0.51969  0.08168  0.05581  1.0000
  C   C743      1.0  0.52765  0.05444  0.07039  1.0000
  C   C744      1.0  0.51762  0.02603  0.07820  1.0000
  C   C745      1.0  0.49957  0.02525  0.07205  1.0000
  C   C746      1.0  0.55682  0.26297  0.45519  1.0000
  C   C747      1.0  0.47180  0.19143  0.01754  1.0000
  H   H604      1.0  0.65018  0.32255  0.44596  1.0000
  H   H605      1.0  0.43541  0.06959  0.02027  1.0000
  H   H606      1.0  0.51203  0.36710  0.16892  1.0000
  C   C748      1.0  0.46299  0.05991  0.01362  1.0000
  C   C749      1.0  0.56808  0.99416  0.01810  1.0000
  C   C750      1.0  0.62472  0.32609  0.46488  1.0000
  C   C751      1.0  0.42170  0.39845  0.33548  1.0000
  C   C752      1.0  0.63636  0.32779  0.44242  1.0000
  C   C753      1.0  0.45065  0.02007  0.41832  1.0000
  C   C754      1.0  0.41477  0.31373  0.01952  1.0000
  C   C755      1.0  0.36732  0.36185  0.32480  1.0000
  C   C756      1.0  0.65062  0.14644  0.12271  1.0000
  C   C757      1.0  0.63503  0.13682  0.29324  1.0000
  C   C758      1.0  0.52671  0.40344  0.19532  1.0000
  C   C759      1.0  0.49251  0.06090  0.48408  1.0000
  H   H607      1.0  0.63430  0.11213  0.28181  1.0000
  H   H608      1.0  0.61380  0.15411  0.42154  1.0000
  S   S100      1.0  0.56288  0.16185  0.47391  1.0000
  S   S101      1.0  0.56972  0.21510  0.99951  1.0000
  C   C760      1.0  0.39270  0.30027  0.05366  1.0000
  C   C761      1.0  0.60065  0.34135  0.43315  1.0000
  C   C762      1.0  0.49768  0.06774  0.45653  1.0000
  C   C763      1.0  0.38028  0.46901  0.25400  1.0000
  C   C764      1.0  0.33756  0.36129  0.34197  1.0000
  C   C765      1.0  0.63683  0.20046  0.32280  1.0000
  H   H609      1.0  0.57502  0.99686  0.46127  1.0000
  S   S102      1.0  0.64787  0.25978  0.26950  1.0000
  H   H610      1.0  0.53350  0.04355  0.01153  1.0000
  H   H611      1.0  0.44219  0.38306  0.27309  1.0000
  C   C766      1.0  0.41457  0.39394  0.27722  1.0000
  H   H612      1.0  0.44799  0.99705  0.01953  1.0000
  C   C767      1.0  0.51548  0.07061  0.45049  1.0000
  H   H613      1.0  0.36509  0.06670  0.05073  1.0000
  S   S103      1.0  0.40066  0.22431  0.00513  1.0000
  H   H614      1.0  0.37968  0.10349  0.08718  1.0000
  H   H615      1.0  0.40807  0.16011  0.39498  1.0000
  C   C768      1.0  0.44569  0.06726  0.00490  1.0000
  H   H616      1.0  0.64515  0.12086  0.12570  1.0000
  H   H617      1.0  0.32689  0.40269  0.02026  1.0000
  C   C769      1.0  0.34575  0.42651  0.99344  1.0000
  H   H618      1.0  0.55557  0.99290  0.02841  1.0000
  C   C770      1.0  0.43521  0.39051  0.31679  1.0000
  C   C771      1.0  0.44665  0.03709  0.46732  1.0000
  H   H619      1.0  0.51556  0.20950  0.02899  1.0000
  C   C772      1.0  0.57130  0.28491  0.45906  1.0000
  C   C773      1.0  0.33780  0.39834  0.00622  1.0000
  S   S104      1.0  0.63969  0.41712  0.24742  1.0000
  H   H620      1.0  0.32506  0.47243  0.21150  1.0000
  H   H621      1.0  0.44996  0.02631  0.39608  1.0000
  H   H622      1.0  0.64704  0.21473  0.07845  1.0000
  C   C774      1.0  0.38400  0.31110  0.00483  1.0000
  C   C775      1.0  0.63817  0.13545  0.43953  1.0000
  C   C776      1.0  0.40165  0.31754  0.99864  1.0000
  C   C777      1.0  0.37957  0.30397  0.03282  1.0000
  P   P25       1.0  0.33193  0.07402  0.01878  1.0000
  C   C778      1.0  0.62296  0.40035  0.17298  1.0000
  H   H623      1.0  0.65169  0.22098  0.46235  1.0000
  H   H624      1.0  0.51259  0.15169  0.48406  1.0000
  H   H625      1.0  0.36366  0.46132  0.32009  1.0000
  H   H626      1.0  0.33804  0.34308  0.01184  1.0000
  C   C779      1.0  0.57284  0.30638  0.48340  1.0000
  C   C780      1.0  0.52811  0.06624  0.47194  1.0000
  H   H627      1.0  0.54191  0.06854  0.46725  1.0000
  H   H628      1.0  0.51943  0.98812  0.02297  1.0000
  H   H629      1.0  0.46216  0.14690  0.99378  1.0000
  H   H630      1.0  0.44273  0.05651  0.48298  1.0000
  H   H631      1.0  0.55760  0.37142  0.48552  1.0000
  C   C781      1.0  0.33788  0.09567  0.98689  1.0000
  H   H632      1.0  0.62987  0.32001  0.48568  1.0000
  C   C782      1.0  0.45646  0.98717  0.42667  1.0000
  C   C783      1.0  0.38303  0.99142  0.53540  1.0000
  C   C784      1.0  0.33930  0.06870  0.61517  1.0000
  S   S105      1.0  0.34662  0.31362  0.76285  1.0000
  H   H633      1.0  0.63985  0.11022  0.52517  1.0000
  Fe  Fe51      1.0  0.33487  0.27740  0.72877  1.0000
  S   S106      1.0  0.35065  0.24390  0.69633  1.0000
  Fe  Fe52      1.0  0.32905  0.28600  0.79351  1.0000
  S   S107      1.0  0.33373  0.27284  0.84105  1.0000
  S   S108      1.0  0.63473  0.32413  0.76786  1.0000
  H   H634      1.0  0.62231  0.10256  0.94564  1.0000
  H   H635      1.0  0.61218  0.34254  0.58996  1.0000
  C   C785      1.0  0.50144  0.16319  0.49463  1.0000
  Fe  Fe53      1.0  0.64022  0.29457  0.72658  1.0000
  S   S109      1.0  0.61880  0.28876  0.69149  1.0000
  H   H636      1.0  0.56449  0.42691  0.89378  1.0000
  S   S110      1.0  0.56524  0.14259  0.54251  1.0000
  C   C786      1.0  0.37260  0.32035  0.89210  1.0000
  C   C787      1.0  0.57663  0.02582  0.50081  1.0000
  S   S111      1.0  0.57618  0.22077  0.52106  1.0000
  S   S112      1.0  0.59000  0.21579  0.92232  1.0000
  Fe  Fe54      1.0  0.58890  0.17801  0.54582  1.0000
  S   S113      1.0  0.60769  0.18399  0.58459  1.0000
  Fe  Fe55      1.0  0.55302  0.18414  0.51525  1.0000
  S   S114      1.0  0.52545  0.20510  0.52495  1.0000
  S   S115      1.0  0.60093  0.15406  0.50662  1.0000
  C   C788      1.0  0.60969  0.38410  0.72820  1.0000
  H   H637      1.0  0.39240  0.04669  0.97875  1.0000
  C   C789      1.0  0.38633  0.29698  0.88698  1.0000
  S   S116      1.0  0.38431  0.18849  0.92747  1.0000
  H   H638      1.0  0.33892  0.17404  0.66376  1.0000
  S   S117      1.0  0.40702  0.15037  0.54363  1.0000
  H   H639      1.0  0.53307  0.05569  0.51575  1.0000
  S   S118      1.0  0.40153  0.20970  0.49489  1.0000
  C   C790      1.0  0.62282  0.09626  0.60082  1.0000
  Fe  Fe56      1.0  0.38741  0.19325  0.53471  1.0000
  S   S119      1.0  0.37553  0.23389  0.56612  1.0000
  H   H640      1.0  0.60701  0.26719  0.50362  1.0000
  C   C791      1.0  0.54975  0.43583  0.82586  1.0000
  C   C792      1.0  0.61596  0.27101  0.54700  1.0000
  C   C793      1.0  0.54483  0.17848  0.91308  1.0000
  C   C794      1.0  0.56562  0.43110  0.81186  1.0000
  C   C795      1.0  0.51180  0.09665  0.61583  1.0000
  H   H641      1.0  0.56582  0.43317  0.78904  1.0000
  C   C796      1.0  0.57740  0.99019  0.54277  1.0000
  H   H642      1.0  0.52060  0.18436  0.93555  1.0000
  C   C797      1.0  0.57740  0.02320  0.53028  1.0000
  H   H643      1.0  0.62812  0.21593  0.49715  1.0000
  H   H644      1.0  0.57824  0.04656  0.54338  1.0000
  C   C798      1.0  0.50412  0.18921  0.51541  1.0000
  H   H645      1.0  0.62338  0.28202  0.59048  1.0000
  C   C799      1.0  0.62025  0.08645  0.55016  1.0000
  C   C800      1.0  0.58409  0.35431  0.74485  1.0000
  H   H646      1.0  0.63994  0.41752  0.81332  1.0000
  H   H647      1.0  0.57005  0.01747  0.86075  1.0000
  H   H648      1.0  0.47221  0.09954  0.53099  1.0000
  S   S120      1.0  0.38310  0.06285  0.53511  1.0000
  H   H649      1.0  0.42801  0.07668  0.96983  1.0000
  C   C801      1.0  0.63531  0.10641  0.54644  1.0000
  C   C802      1.0  0.33300  0.00269  0.59047  1.0000
  C   C803      1.0  0.32302  0.23374  0.98312  1.0000
  H   H650      1.0  0.57395  0.33493  0.74145  1.0000
  C   C804      1.0  0.60997  0.21292  0.61465  1.0000
  C   C805      1.0  0.59884  0.24149  0.61920  1.0000
  C   C806      1.0  0.60172  0.26426  0.64278  1.0000
  C   C807      1.0  0.61572  0.25885  0.66223  1.0000
  C   C808      1.0  0.62668  0.23003  0.65785  1.0000
  C   C809      1.0  0.62377  0.20726  0.63434  1.0000
  H   H651      1.0  0.58811  0.24627  0.60442  1.0000
  H   H652      1.0  0.59305  0.28629  0.64594  1.0000
  H   H653      1.0  0.63739  0.22521  0.67265  1.0000
  H   H654      1.0  0.63238  0.18516  0.63133  1.0000
  C   C810      1.0  0.63240  0.24562  0.85760  1.0000
  C   C811      1.0  0.61444  0.24804  0.85094  1.0000
  C   C812      1.0  0.60180  0.23894  0.87103  1.0000
  C   C813      1.0  0.60679  0.22711  0.89809  1.0000
  C   C814      1.0  0.62477  0.22461  0.90473  1.0000
  C   C815      1.0  0.63742  0.23367  0.88461  1.0000
  H   H655      1.0  0.61028  0.25708  0.83034  1.0000
  H   H656      1.0  0.58799  0.24103  0.86553  1.0000
  H   H657      1.0  0.62889  0.21568  0.92538  1.0000
  C   C816      1.0  0.32032  0.26395  0.96765  1.0000
  H   H658      1.0  0.48208  0.06048  0.94899  1.0000
  H   H659      1.0  0.64433  0.12777  0.61564  1.0000
  H   H660      1.0  0.33933  0.02220  0.97354  1.0000
  Fe  Fe57      1.0  0.58671  0.19008  0.96588  1.0000
  H   H661      1.0  0.45405  0.99954  0.49816  1.0000
  C   C817      1.0  0.35760  0.24253  0.66005  1.0000
  C   C818      1.0  0.35214  0.26680  0.63996  1.0000
  C   C819      1.0  0.35770  0.26362  0.61152  1.0000
  C   C820      1.0  0.36866  0.23600  0.60243  1.0000
  C   C821      1.0  0.37406  0.21171  0.62253  1.0000
  C   C822      1.0  0.36870  0.21521  0.65102  1.0000
  H   H662      1.0  0.34374  0.28820  0.64635  1.0000
  H   H663      1.0  0.35350  0.28284  0.59642  1.0000
  H   H664      1.0  0.38268  0.19063  0.61624  1.0000
  H   H665      1.0  0.37338  0.19688  0.66641  1.0000
  C   C823      1.0  0.34768  0.24809  0.86444  1.0000
  C   C824      1.0  0.36191  0.22809  0.85495  1.0000
  C   C825      1.0  0.37271  0.20978  0.87443  1.0000
  C   C826      1.0  0.36962  0.21116  0.90379  1.0000
  C   C827      1.0  0.35519  0.23057  0.91321  1.0000
  C   C828      1.0  0.34437  0.24886  0.89376  1.0000
  H   H666      1.0  0.36473  0.22699  0.83260  1.0000
  H   H667      1.0  0.38375  0.19483  0.86669  1.0000
  H   H668      1.0  0.35249  0.23172  0.93553  1.0000
  H   H669      1.0  0.33346  0.26410  0.90154  1.0000
  C   C829      1.0  0.33360  0.28885  0.96647  1.0000
  H   H670      1.0  0.36640  0.44282  0.96623  1.0000
  H   H671      1.0  0.57658  0.36643  0.78744  1.0000
  H   H672      1.0  0.55923  0.00781  0.96327  1.0000
  C   C830      1.0  0.33494  0.46030  0.77955  1.0000
  S   S121      1.0  0.36860  0.15806  0.51014  1.0000
  H   H673      1.0  0.51395  0.03456  0.92609  1.0000
  C   C831      1.0  0.64939  0.45980  0.73735  1.0000
  H   H674      1.0  0.63319  0.18434  0.54119  1.0000
  H   H675      1.0  0.33144  0.31184  0.95402  1.0000
  C   C832      1.0  0.59892  0.39708  0.77534  1.0000
  H   H676      1.0  0.64474  0.43811  0.72436  1.0000
  S   S122      1.0  0.57148  0.14009  0.96717  1.0000
  H   H677      1.0  0.62096  0.16157  0.86935  1.0000
  H   H678      1.0  0.61805  0.31807  0.86736  1.0000
  Fe  Fe58      1.0  0.38903  0.11611  0.51694  1.0000
  C   C833      1.0  0.61122  0.40215  0.75413  1.0000
  H   H679      1.0  0.65303  0.22138  0.57544  1.0000
  H   H680      1.0  0.52597  0.15843  0.57132  1.0000
  H   H681      1.0  0.59826  0.36566  0.54675  1.0000
  C   C834      1.0  0.32642  0.06437  0.59368  1.0000
  H   H682      1.0  0.52391  0.14689  0.62244  1.0000
  H   H683      1.0  0.54991  0.43336  0.49062  1.0000
  H   H684      1.0  0.63621  0.14467  0.91382  1.0000
  C   C835      1.0  0.39378  0.01647  0.49262  1.0000
  H   H685      1.0  0.62287  0.46416  0.84703  1.0000
  H   H686      1.0  0.62015  0.24411  0.54776  1.0000
  S   S123      1.0  0.44820  0.15183  0.49002  1.0000
  H   H687      1.0  0.32870  0.18397  0.71232  1.0000
  C   C836      1.0  0.60219  0.31849  0.52151  1.0000
  Fe  Fe59      1.0  0.32338  0.34944  0.75412  1.0000
  H   H688      1.0  0.49195  0.12422  0.98257  1.0000
  C   C837      1.0  0.52300  0.05909  0.49946  1.0000
  C   C838      1.0  0.56479  0.42792  0.87089  1.0000
  C   C839      1.0  0.34825  0.13222  0.93928  1.0000
  C   C840      1.0  0.64690  0.37341  0.83817  1.0000
  Fe  Fe60      1.0  0.41966  0.16374  0.50247  1.0000
  H   H689      1.0  0.36599  0.33278  0.87446  1.0000
  C   C841      1.0  0.56149  0.01013  0.94090  1.0000
  C   C842      1.0  0.52535  0.13099  0.92306  1.0000
  C   C843      1.0  0.35917  0.10648  0.95050  1.0000
  C   C844      1.0  0.33288  0.08968  0.68196  1.0000
  C   C845      1.0  0.64090  0.20465  0.50148  1.0000
  H   H690      1.0  0.45137  0.07326  0.93401  1.0000
  C   C846      1.0  0.63499  0.39647  0.82567  1.0000
  C   C847      1.0  0.52565  0.00314  0.56139  1.0000
  H   H691      1.0  0.36302  0.06966  0.98358  1.0000
  C   C848      1.0  0.60348  0.33949  0.54619  1.0000
  C   C849      1.0  0.36009  0.42095  0.97587  1.0000
  C   C850      1.0  0.61129  0.32644  0.57086  1.0000
  H   H692      1.0  0.51074  0.09179  0.63822  1.0000
  H   H693      1.0  0.49988  0.04819  0.60288  1.0000
  Fe  Fe61      1.0  0.39116  0.18157  0.97522  1.0000
  H   H694      1.0  0.39034  0.29143  0.86547  1.0000
  C   C851      1.0  0.38702  0.02101  0.51978  1.0000
  C   C852      1.0  0.52396  0.04332  0.96857  1.0000
  H   H695      1.0  0.60213  0.06660  0.58015  1.0000
  H   H696      1.0  0.35237  0.14655  0.92107  1.0000
  C   C853      1.0  0.61686  0.39153  0.82814  1.0000
  C   C854      1.0  0.57726  0.07338  0.80060  1.0000
  C   C855      1.0  0.56127  0.08336  0.78815  1.0000
  C   C856      1.0  0.54747  0.09464  0.80516  1.0000
  C   C857      1.0  0.54966  0.09620  0.83462  1.0000
  C   C858      1.0  0.56579  0.08676  0.84726  1.0000
  C   C859      1.0  0.57950  0.07489  0.83005  1.0000
  P   P26       1.0  0.56881  0.08885  0.88527  1.0000
  C   C860      1.0  0.55301  0.11928  0.89974  1.0000
  C   C861      1.0  0.56618  0.04622  0.90016  1.0000
  C   C862      1.0  0.56759  0.01594  0.88312  1.0000
  H   H697      1.0  0.46099  0.20435  0.53197  1.0000
  H   H698      1.0  0.40539  0.32492  0.97765  1.0000
  C   C863      1.0  0.58068  0.42321  0.85694  1.0000
  C   C864      1.0  0.56314  0.04299  0.92920  1.0000
  C   C865      1.0  0.53705  0.10751  0.91036  1.0000
  C   C866      1.0  0.32706  0.09549  0.70961  1.0000
  H   H699      1.0  0.54812  0.20587  0.91471  1.0000
  H   H700      1.0  0.52998  0.06810  0.96417  1.0000
  C   C867      1.0  0.55654  0.15508  0.90042  1.0000
  C   C868      1.0  0.59054  0.10532  0.89382  1.0000
  C   C869      1.0  0.59850  0.12921  0.87604  1.0000
  C   C870      1.0  0.61509  0.14265  0.88291  1.0000
  Fe  Fe62      1.0  0.65098  0.28259  0.78938  1.0000
  C   C871      1.0  0.32536  0.12944  0.72046  1.0000
  C   C872      1.0  0.59943  0.09552  0.91876  1.0000
  H   H701      1.0  0.58797  0.06471  0.78740  1.0000
  H   H702      1.0  0.55959  0.08248  0.76531  1.0000
  H   H703      1.0  0.53508  0.10244  0.79550  1.0000
  H   H704      1.0  0.53883  0.10515  0.84739  1.0000
  H   H705      1.0  0.59196  0.06709  0.83943  1.0000
  H   H706      1.0  0.49125  0.22409  0.54479  1.0000
  C   C873      1.0  0.44792  0.01881  0.55828  1.0000
  H   H707      1.0  0.61942  0.38759  0.71208  1.0000
  H   H708      1.0  0.56236  0.06582  0.94300  1.0000
  H   H709      1.0  0.53378  0.08022  0.90932  1.0000
  C   C874      1.0  0.32329  0.03146  0.58144  1.0000
  C   C875      1.0  0.47216  0.19281  0.52146  1.0000
  H   H710      1.0  0.47870  0.05914  0.48819  1.0000
  H   H711      1.0  0.56858  0.16504  0.89206  1.0000
  H   H712      1.0  0.59172  0.13830  0.85723  1.0000
  H   H713      1.0  0.44003  0.10057  0.53489  1.0000
  C   C876      1.0  0.39038  0.99061  0.98048  1.0000
  H   H714      1.0  0.37185  0.10138  0.94120  1.0000
  H   H715      1.0  0.59365  0.07778  0.93331  1.0000
  H   H716      1.0  0.59690  0.35739  0.84399  1.0000
  C   C877      1.0  0.57656  0.45002  0.49841  1.0000
  H   H717      1.0  0.37781  0.99468  0.55642  1.0000
  C   C878      1.0  0.50711  0.99277  0.95337  1.0000
  P   P27       1.0  0.60165  0.41905  0.80923  1.0000
  C   C879      1.0  0.52039  0.13420  0.57814  1.0000
  C   C880      1.0  0.50569  0.07204  0.59578  1.0000
  H   H718      1.0  0.33984  0.43959  0.79270  1.0000
  C   C881      1.0  0.51919  0.12769  0.60700  1.0000
  C   C882      1.0  0.60837  0.28408  0.52219  1.0000
  H   H719      1.0  0.33433  0.06323  0.67413  1.0000
  H   H720      1.0  0.37781  0.38336  0.95779  1.0000
  H   H721      1.0  0.35778  0.15475  0.58281  1.0000
  C   C883      1.0  0.39422  0.27932  0.90945  1.0000
  C   C884      1.0  0.38837  0.28492  0.93703  1.0000
  H   H722      1.0  0.40423  0.25983  0.90534  1.0000
  H   H723      1.0  0.53779  0.44098  0.81384  1.0000
  C   C885      1.0  0.55987  0.30492  0.50406  1.0000
  H   H724      1.0  0.35593  0.34385  0.92314  1.0000
  C   C886      1.0  0.50705  0.07825  0.56674  1.0000
  C   C887      1.0  0.45461  0.06914  0.95612  1.0000
  C   C888      1.0  0.58558  0.37238  0.77080  1.0000
  C   C889      1.0  0.60605  0.48169  0.78143  1.0000
  C   C890      1.0  0.61080  0.36282  0.84294  1.0000
  H   H725      1.0  0.51343  0.12181  0.93249  1.0000
  C   C891      1.0  0.34898  0.03961  0.62411  1.0000
  C   C892      1.0  0.51428  0.10970  0.55803  1.0000
  H   H726      1.0  0.44103  0.99655  0.56620  1.0000
  C   C893      1.0  0.52934  0.16640  0.92470  1.0000
  H   H727      1.0  0.42421  0.04885  0.55159  1.0000
  H   H728      1.0  0.59260  0.41918  0.86934  1.0000
  C   C894      1.0  0.64079  0.34536  0.85342  1.0000
  C   C895      1.0  0.34580  0.00676  0.61185  1.0000
  H   H729      1.0  0.39396  0.26939  0.95382  1.0000
  H   H730      1.0  0.61772  0.09304  0.62182  1.0000
  C   C896      1.0  0.48936  0.20392  0.52872  1.0000
  H   H731      1.0  0.61323  0.07529  0.53195  1.0000
  H   H732      1.0  0.59513  0.34581  0.70362  1.0000
  C   C897      1.0  0.62370  0.13311  0.90796  1.0000
  H   H733      1.0  0.47327  0.99533  0.56338  1.0000
  C   C898      1.0  0.62275  0.34021  0.85595  1.0000
  C   C899      1.0  0.59606  0.36036  0.72350  1.0000
  H   H734      1.0  0.56112  0.32022  0.52351  1.0000
  C   C900      1.0  0.64382  0.18671  0.52649  1.0000
  H   H735      1.0  0.53700  0.43755  0.86619  1.0000
  C   C901      1.0  0.33684  0.11791  0.66488  1.0000
  C   C902      1.0  0.46949  0.16704  0.50051  1.0000
  C   C903      1.0  0.61588  0.10954  0.92585  1.0000
  H   H736      1.0  0.61299  0.99884  0.98163  1.0000
  C   C904      1.0  0.37500  0.30924  0.94253  1.0000
  P   P28       1.0  0.34481  0.11140  0.62936  1.0000
  C   C905      1.0  0.36847  0.11412  0.62946  1.0000
  H   H737      1.0  0.51514  0.11570  0.53585  1.0000
  C   C906      1.0  0.36645  0.38722  0.97097  1.0000
  Fe  Fe63      1.0  0.57643  0.12217  0.50162  1.0000
  C   C907      1.0  0.47189  0.06185  0.96458  1.0000
  C   C908      1.0  0.63791  0.11615  0.59719  1.0000
  C   C909      1.0  0.37765  0.10246  0.60560  1.0000
  C   C910      1.0  0.39598  0.10368  0.60545  1.0000
  C   C911      1.0  0.40530  0.11692  0.62902  1.0000
  C   C912      1.0  0.39628  0.12818  0.65303  1.0000
  C   C913      1.0  0.37794  0.12641  0.65341  1.0000
  C   C914      1.0  0.33466  0.14402  0.60733  1.0000
  C   C915      1.0  0.33587  0.18568  0.56953  1.0000
  C   C916      1.0  0.44148  0.07138  0.97627  1.0000
  H   H738      1.0  0.53554  0.28142  0.51625  1.0000
  C   C917      1.0  0.58110  0.42371  0.82725  1.0000
  C   C918      1.0  0.34407  0.16057  0.58628  1.0000
  C   C919      1.0  0.54535  0.28312  0.50002  1.0000
  C   C920      1.0  0.61760  0.29229  0.57122  1.0000
  C   C921      1.0  0.61004  0.46254  0.80572  1.0000
  C   C922      1.0  0.51487  0.02458  0.94731  1.0000
  C   C923      1.0  0.54931  0.43400  0.85535  1.0000
  H   H739      1.0  0.35933  0.04249  0.64006  1.0000
  H   H740      1.0  0.53195  0.02645  0.56982  1.0000
  H   H741      1.0  0.37063  0.09252  0.58699  1.0000
  H   H742      1.0  0.40289  0.09466  0.58684  1.0000
  H   H743      1.0  0.41948  0.11860  0.62860  1.0000
  H   H744      1.0  0.40348  0.13866  0.67127  1.0000
  H   H745      1.0  0.37128  0.13515  0.67229  1.0000
  H   H746      1.0  0.34327  0.19866  0.55352  1.0000
  C   C924      1.0  0.61398  0.08150  0.57734  1.0000
  H   H747      1.0  0.62228  0.41929  0.75795  1.0000
  C   C925      1.0  0.35409  0.08846  0.97438  1.0000
  C   C926      1.0  0.44731  0.07740  0.54074  1.0000
  C   C927      1.0  0.43844  0.04832  0.55025  1.0000
  H   H748      1.0  0.32419  0.16099  0.94373  1.0000
  C   C928      1.0  0.46625  0.01805  0.55619  1.0000
  C   C929      1.0  0.47517  0.04653  0.54516  1.0000
  C   C930      1.0  0.46558  0.07664  0.53841  1.0000
  P   P29       1.0  0.49880  0.04636  0.54135  1.0000
  C   C931      1.0  0.50915  0.00472  0.54762  1.0000
  C   C932      1.0  0.50511  0.05669  0.50583  1.0000
  C   C933      1.0  0.32717  0.12223  0.97593  1.0000
  C   C934      1.0  0.36692  0.32644  0.91975  1.0000
  C   C935      1.0  0.64418  0.12170  0.56992  1.0000
  C   C936      1.0  0.33232  0.14028  0.95208  1.0000
  H   H749      1.0  0.64999  0.32699  0.86261  1.0000
  S   S124      1.0  0.32087  0.40794  0.74323  1.0000
  H   H750      1.0  0.59821  0.47046  0.76423  1.0000
  S   S125      1.0  0.64912  0.25702  0.83327  1.0000
  P   P30       1.0  0.36695  0.31549  0.97799  1.0000
  C   C937      1.0  0.34970  0.28373  0.98082  1.0000
  C   C938      1.0  0.61993  0.47820  0.82788  1.0000
  H   H751      1.0  0.57310  0.47732  0.50041  1.0000
  C   C939      1.0  0.33538  0.15186  0.67617  1.0000
  H   H752      1.0  0.65123  0.23162  0.89009  1.0000
  P   P31       1.0  0.59171  0.33406  0.48951  1.0000
  C   C940      1.0  0.59410  0.43959  0.50104  1.0000
  C   C941      1.0  0.35828  0.35875  0.98325  1.0000
  H   H753      1.0  0.61225  0.39667  0.50026  1.0000
  C   C942      1.0  0.56792  0.38998  0.49029  1.0000
  C   C943      1.0  0.59858  0.40438  0.49839  1.0000
  H   H754      1.0  0.60426  0.45884  0.50503  1.0000
  C   C944      1.0  0.32542  0.45199  0.75465  1.0000
  C   C945      1.0  0.32958  0.15758  0.70376  1.0000
  C   C946      1.0  0.58549  0.37925  0.49343  1.0000
  C   C947      1.0  0.56349  0.42523  0.49295  1.0000
  H   H755      1.0  0.32109  0.13404  0.74199  1.0000
  H   H756      1.0  0.57836  0.98844  0.56556  1.0000
  S   S126      1.0  0.41475  0.14710  0.98516  1.0000
  H   H757      1.0  0.38672  0.98752  0.95834  1.0000
  H   H758      1.0  0.47304  0.98744  0.96157  1.0000
  C   C948      1.0  0.48423  0.15243  0.48715  1.0000
  H   H759      1.0  0.32414  0.07366  0.72282  1.0000
  H   H760      1.0  0.32023  0.22737  0.65258  1.0000
  Fe  Fe64      1.0  0.33426  0.70131  0.29172  1.0000
  S   S127      1.0  0.34159  0.73818  0.32973  1.0000
  Fe  Fe65      1.0  0.33759  0.68627  0.22695  1.0000
  S   S128      1.0  0.35282  0.69295  0.18502  1.0000
  H   H761      1.0  0.42151  0.98300  0.38863  1.0000
  H   H762      1.0  0.63587  0.75979  0.16463  1.0000
  H   H763      1.0  0.40120  0.97943  0.45994  1.0000
  S   S129      1.0  0.34996  0.66193  0.26624  1.0000
  S   S130      1.0  0.62876  0.65367  0.25871  1.0000
  S   S131      1.0  0.60712  0.80703  0.43701  1.0000
  Fe  Fe66      1.0  0.63689  0.69125  0.22503  1.0000
  S   S132      1.0  0.61814  0.69733  0.18610  1.0000
  Fe  Fe67      1.0  0.63822  0.69420  0.29109  1.0000
  S   S133      1.0  0.62080  0.70354  0.33027  1.0000
  H   H764      1.0  0.55013  0.91861  0.24393  1.0000
  H   H765      1.0  0.61979  0.77721  0.29170  1.0000
  C   C949      1.0  0.43893  0.89256  0.44271  1.0000
  Fe  Fe68      1.0  0.58867  0.80028  0.03462  1.0000
  S   S134      1.0  0.60019  0.83959  0.00492  1.0000
  S   S135      1.0  0.60638  0.78858  0.07395  1.0000
  Fe  Fe69      1.0  0.57383  0.86633  0.00624  1.0000
  H   H766      1.0  0.62742  0.61945  0.17461  1.0000
  C   C950      1.0  0.35013  0.95944  0.02028  1.0000
  C   C951      1.0  0.41796  0.69599  0.99267  1.0000
  S   S136      1.0  0.56283  0.82924  0.03771  1.0000
  C   C952      1.0  0.48719  0.80044  0.48277  1.0000
  C   C953      1.0  0.63439  0.67491  0.06478  1.0000
  C   C954      1.0  0.49862  0.96461  0.46600  1.0000
  C   C955      1.0  0.39176  0.96100  0.99742  1.0000
  Fe  Fe70      1.0  0.38603  0.80839  0.04441  1.0000
  S   S137      1.0  0.40516  0.77246  0.02240  1.0000
  S   S138      1.0  0.37122  0.80136  0.08673  1.0000
  Fe  Fe71      1.0  0.42295  0.81900  0.01814  1.0000
  S   S139      1.0  0.45174  0.82856  0.03197  1.0000
  C   C956      1.0  0.33803  0.86487  0.43839  1.0000
  S   S140      1.0  0.38410  0.73999  0.44945  1.0000
  S   S141      1.0  0.40454  0.85420  0.04248  1.0000
  C   C957      1.0  0.64800  0.64335  0.15135  1.0000
  C   C958      1.0  0.34717  0.97560  0.99442  1.0000
  C   C959      1.0  0.50454  0.81926  0.01992  1.0000
  C   C960      1.0  0.48787  0.83041  0.02914  1.0000
  C   C961      1.0  0.47234  0.81530  0.01791  1.0000
  H   H767      1.0  0.48670  0.93080  0.09047  1.0000
  C   C962      1.0  0.33312  0.85715  0.41031  1.0000
  H   H768      1.0  0.51633  0.83070  0.02913  1.0000
  H   H769      1.0  0.48702  0.85050  0.04543  1.0000
  H   H770      1.0  0.37252  0.91453  0.32654  1.0000
  H   H771      1.0  0.32218  0.65617  0.47904  1.0000
  C   C963      1.0  0.61716  0.73298  0.35966  1.0000
  C   C964      1.0  0.62692  0.76339  0.36431  1.0000
  C   C965      1.0  0.62348  0.78574  0.38774  1.0000
  C   C966      1.0  0.61037  0.77799  0.40727  1.0000
  C   C967      1.0  0.60059  0.74753  0.40268  1.0000
  C   C968      1.0  0.60394  0.72535  0.37904  1.0000
  H   H772      1.0  0.37365  0.67781  0.48439  1.0000
  H   H773      1.0  0.63119  0.80909  0.39095  1.0000
  H   H774      1.0  0.59047  0.74103  0.41736  1.0000
  H   H775      1.0  0.59625  0.70198  0.37585  1.0000
  C   C969      1.0  0.61506  0.72349  0.15526  1.0000
  C   C970      1.0  0.60147  0.71493  0.13564  1.0000
  C   C971      1.0  0.59844  0.73459  0.11096  1.0000
  C   C972      1.0  0.60903  0.76322  0.10533  1.0000
  C   C973      1.0  0.62262  0.77177  0.12498  1.0000
  C   C974      1.0  0.62557  0.75227  0.14974  1.0000
  H   H776      1.0  0.59319  0.69285  0.13952  1.0000
  H   H777      1.0  0.58799  0.72742  0.09619  1.0000
  H   H778      1.0  0.63093  0.79381  0.12104  1.0000
  C   C975      1.0  0.35303  0.73685  0.36336  1.0000
  C   C976      1.0  0.36360  0.70887  0.37179  1.0000
  C   C977      1.0  0.37285  0.71024  0.39815  1.0000
  C   C978      1.0  0.37184  0.73962  0.41650  1.0000
  C   C979      1.0  0.36108  0.76737  0.40818  1.0000
  C   C980      1.0  0.35170  0.76577  0.38202  1.0000
  H   H779      1.0  0.36481  0.68630  0.35789  1.0000
  H   H780      1.0  0.38101  0.68846  0.40422  1.0000
  H   H781      1.0  0.35993  0.79003  0.42196  1.0000
  H   H782      1.0  0.34330  0.78712  0.37604  1.0000
  C   C981      1.0  0.35765  0.72370  0.15794  1.0000
  C   C982      1.0  0.36668  0.71219  0.13362  1.0000
  C   C983      1.0  0.37084  0.73520  0.11167  1.0000
  C   C984      1.0  0.36621  0.77049  0.11366  1.0000
  C   C985      1.0  0.35726  0.78203  0.13804  1.0000
  C   C986      1.0  0.35293  0.75895  0.15986  1.0000
  H   H783      1.0  0.37046  0.68511  0.13170  1.0000
  H   H784      1.0  0.37772  0.72562  0.09326  1.0000
  H   H785      1.0  0.35382  0.80922  0.14024  1.0000
  H   H786      1.0  0.34608  0.76849  0.17832  1.0000
  C   C987      1.0  0.39301  0.90058  0.37406  1.0000
  C   C988      1.0  0.44115  0.95997  0.05044  1.0000
  H   H787      1.0  0.47096  0.88946  0.00427  1.0000
  Fe  Fe72      1.0  0.39094  0.78109  0.48449  1.0000
  C   C989      1.0  0.36320  0.82781  0.32374  1.0000
  H   H788      1.0  0.51505  0.90139  0.10174  1.0000
  H   H789      1.0  0.64116  0.57328  0.31038  1.0000
  H   H790      1.0  0.53970  0.92923  0.46952  1.0000
  H   H791      1.0  0.41627  0.87925  0.35443  1.0000
  C   C990      1.0  0.49725  0.90169  0.46691  1.0000
  H   H792      1.0  0.48742  0.67600  0.03538  1.0000
  C   C991      1.0  0.63588  0.61428  0.34097  1.0000
  H   H793      1.0  0.58584  0.79891  0.24006  1.0000
  H   H794      1.0  0.59674  0.85884  0.26059  1.0000
  H   H795      1.0  0.64101  0.64154  0.42420  1.0000
  C   C992      1.0  0.39609  0.95979  0.39262  1.0000
  H   H796      1.0  0.64832  0.63788  0.09020  1.0000
  C   C993      1.0  0.32909  0.73550  0.45145  1.0000
  C   C994      1.0  0.63277  0.70973  0.05727  1.0000
  H   H797      1.0  0.35943  0.87823  0.46706  1.0000
  C   C995      1.0  0.36004  0.88756  0.29139  1.0000
  H   H798      1.0  0.48782  0.79540  0.46020  1.0000
  C   C996      1.0  0.47050  0.61139  0.09979  1.0000
  C   C997      1.0  0.46192  0.58437  0.08499  1.0000
  C   C998      1.0  0.45085  0.59176  0.06193  1.0000
  C   C999      1.0  0.44836  0.62615  0.05359  1.0000
  C   C1000     1.0  0.45702  0.65342  0.06828  1.0000
  C   C1001     1.0  0.46803  0.64580  0.09154  1.0000
  P   P32       1.0  0.45382  0.69814  0.05842  1.0000
  C   C1002     1.0  0.47529  0.71818  0.05914  1.0000
  C   C1003     1.0  0.44398  0.69994  0.02330  1.0000
  H   H799      1.0  0.61981  0.67087  0.45584  1.0000
  C   C1004     1.0  0.45401  0.70771  0.99965  1.0000
  H   H800      1.0  0.41780  0.68844  0.03751  1.0000
  C   C1005     1.0  0.48857  0.93406  0.46635  1.0000
  H   H801      1.0  0.43973  0.63117  0.03568  1.0000
  C   C1006     1.0  0.48940  0.70085  0.04617  1.0000
  C   C1007     1.0  0.50607  0.71595  0.04632  1.0000
  C   C1008     1.0  0.50890  0.74803  0.05998  1.0000
  C   C1009     1.0  0.49504  0.76513  0.07340  1.0000
  C   C1010     1.0  0.47828  0.75042  0.07291  1.0000
  C   C1011     1.0  0.43887  0.71986  0.08232  1.0000
  C   C1012     1.0  0.43331  0.75391  0.07677  1.0000
  C   C1013     1.0  0.42114  0.77068  0.09420  1.0000
  C   C1014     1.0  0.41432  0.75348  0.11722  1.0000
  C   C1015     1.0  0.41964  0.71945  0.12282  1.0000
  C   C1016     1.0  0.43188  0.70263  0.10547  1.0000
  H   H802      1.0  0.47906  0.60571  0.11771  1.0000
  H   H803      1.0  0.46383  0.55771  0.09140  1.0000
  C   C1017     1.0  0.49594  0.92515  0.07385  1.0000
  H   H804      1.0  0.57459  0.93881  0.48343  1.0000
  H   H805      1.0  0.47471  0.66653  0.10329  1.0000
  H   H806      1.0  0.37978  0.51636  0.23031  1.0000
  H   H807      1.0  0.58158  0.90606  0.23532  1.0000
  C   C1018     1.0  0.50355  0.92622  0.02416  1.0000
  C   C1019     1.0  0.41356  0.96017  0.38427  1.0000
  H   H808      1.0  0.43428  0.93144  0.36387  1.0000
  H   H809      1.0  0.63914  0.66251  0.14242  1.0000
  H   H810      1.0  0.34969  0.96523  0.06563  1.0000
  Fe  Fe73      1.0  0.39227  0.86585  0.00028  1.0000
  H   H811      1.0  0.49717  0.79042  0.08338  1.0000
  H   H812      1.0  0.46779  0.76465  0.08301  1.0000
  H   H813      1.0  0.43829  0.76742  0.05873  1.0000
  H   H814      1.0  0.41672  0.79682  0.08953  1.0000
  H   H815      1.0  0.40464  0.76635  0.13038  1.0000
  H   H816      1.0  0.41403  0.70600  0.14040  1.0000
  H   H817      1.0  0.43558  0.67613  0.11001  1.0000
  C   C1020     1.0  0.35537  0.82585  0.29676  1.0000
  H   H818      1.0  0.39758  0.94286  0.03931  1.0000
  C   C1021     1.0  0.51699  0.96283  0.46708  1.0000
  H   H819      1.0  0.36437  0.80432  0.33590  1.0000
  H   H820      1.0  0.45882  0.79695  0.48345  1.0000
  C   C1022     1.0  0.57447  0.89087  0.25035  1.0000
  C   C1023     1.0  0.63121  0.72150  0.45171  1.0000
  S   S142      1.0  0.56652  0.85005  0.47751  1.0000
  C   C1024     1.0  0.45744  0.97900  0.45549  1.0000
  C   C1025     1.0  0.39653  0.96533  0.02600  1.0000
  C   C1026     1.0  0.52366  0.90093  0.05864  1.0000
  C   C1027     1.0  0.64142  0.52410  0.24751  1.0000
  H   H821      1.0  0.35496  0.93286  0.02060  1.0000
  C   C1028     1.0  0.51949  0.90956  0.03073  1.0000
  H   H822      1.0  0.46020  0.96818  0.41064  1.0000
  S   S143      1.0  0.32424  0.57049  0.28237  1.0000
  S   S144      1.0  0.64438  0.73274  0.25740  1.0000
  Fe  Fe74      1.0  0.32585  0.62731  0.26687  1.0000
  C   C1029     1.0  0.46477  0.91028  0.99264  1.0000
  C   C1030     1.0  0.45617  0.90477  0.44045  1.0000
  S   S145      1.0  0.56494  0.92313  0.01244  1.0000
  C   C1031     1.0  0.60735  0.82336  0.30952  1.0000
  H   H823      1.0  0.62539  0.65580  0.05568  1.0000
  H   H824      1.0  0.63459  0.65617  0.37142  1.0000
  C   C1032     1.0  0.62170  0.80285  0.30109  1.0000
  Fe  Fe75      1.0  0.55395  0.79724  0.99971  1.0000
  H   H825      1.0  0.40391  0.69248  0.98997  1.0000
  H   H826      1.0  0.43584  0.92713  0.08550  1.0000
  S   S146      1.0  0.52329  0.79992  0.48135  1.0000
  H   H827      1.0  0.64735  0.57663  0.19755  1.0000
  C   C1033     1.0  0.39837  0.80867  0.39800  1.0000
  S   S147      1.0  0.37222  0.82277  0.00314  1.0000
  C   C1034     1.0  0.64127  0.61889  0.16968  1.0000
  C   C1035     1.0  0.37650  0.50423  0.24998  1.0000
  C   C1036     1.0  0.44208  0.95081  0.07885  1.0000
  C   C1037     1.0  0.42072  0.93114  0.37033  1.0000
  H   H828      1.0  0.62991  0.89347  0.33643  1.0000
  H   H829      1.0  0.37229  0.93062  0.39409  1.0000
  S   S148      1.0  0.57903  0.76498  0.99833  1.0000
  C   C1038     1.0  0.38579  0.93027  0.38734  1.0000
  H   H830      1.0  0.47956  0.94731  0.04146  1.0000
  C   C1039     1.0  0.64437  0.74081  0.43931  1.0000
  H   H831      1.0  0.45118  0.96571  0.12076  1.0000
  C   C1040     1.0  0.32240  0.70203  0.45427  1.0000
  H   H832      1.0  0.35666  0.52312  0.31225  1.0000
  H   H833      1.0  0.34807  0.85392  0.25939  1.0000
  H   H834      1.0  0.64509  0.76862  0.44351  1.0000
  C   C1041     1.0  0.41018  0.78082  0.39972  1.0000
  Fe  Fe76      1.0  0.58891  0.81117  0.47573  1.0000
  C   C1042     1.0  0.36783  0.88963  0.31847  1.0000
  H   H835      1.0  0.46789  0.71301  0.00174  1.0000
  C   C1043     1.0  0.64661  0.59026  0.32692  1.0000
  H   H836      1.0  0.41285  0.76887  0.41994  1.0000
  C   C1044     1.0  0.35562  0.87127  0.44545  1.0000
  C   C1045     1.0  0.43216  0.86832  0.42303  1.0000
  C   C1046     1.0  0.44247  0.85610  0.40080  1.0000
  C   C1047     1.0  0.45946  0.86889  0.39782  1.0000
  C   C1048     1.0  0.46624  0.89343  0.41737  1.0000
  C   C1049     1.0  0.36358  0.50804  0.29628  1.0000
  C   C1050     1.0  0.57617  0.96315  0.00858  1.0000
  C   C1051     1.0  0.39464  0.82405  0.37188  1.0000
  C   C1052     1.0  0.63003  0.68576  0.44614  1.0000
  C   C1053     1.0  0.51186  0.90852  0.08019  1.0000
  C   C1054     1.0  0.36361  0.86133  0.39635  1.0000
  H   H837      1.0  0.35058  0.80100  0.28849  1.0000
  C   C1055     1.0  0.34581  0.85585  0.38929  1.0000
  H   H838      1.0  0.34160  0.85037  0.36767  1.0000
  S   S149      1.0  0.41290  0.81980  0.48045  1.0000
  C   C1056     1.0  0.63884  0.81524  0.30489  1.0000
  H   H839      1.0  0.54871  0.83632  0.30358  1.0000
  C   C1057     1.0  0.36960  0.85966  0.33473  1.0000
  P   P33       1.0  0.38014  0.86140  0.36934  1.0000
  H   H840      1.0  0.62245  0.71782  0.04266  1.0000
  H   H841      1.0  0.52172  0.76013  0.05938  1.0000
  C   C1058     1.0  0.42588  0.69395  0.01956  1.0000
  C   C1059     1.0  0.47371  0.78956  0.99672  1.0000
  C   C1060     1.0  0.41818  0.76769  0.37540  1.0000
  H   H842      1.0  0.42695  0.74550  0.37678  1.0000
  H   H843      1.0  0.36443  0.55059  0.26752  1.0000
  H   H844      1.0  0.41889  0.85907  0.42527  1.0000
  H   H845      1.0  0.43726  0.83686  0.38585  1.0000
  H   H846      1.0  0.46744  0.85959  0.38048  1.0000
  H   H847      1.0  0.47937  0.90322  0.41452  1.0000
  H   H848      1.0  0.59956  0.87276  0.32833  1.0000
  H   H849      1.0  0.38191  0.87467  0.43051  1.0000
  C   C1061     1.0  0.41046  0.90151  0.36509  1.0000
  C   C1062     1.0  0.62762  0.86827  0.32638  1.0000
  C   C1063     1.0  0.32733  0.68219  0.47762  1.0000
  H   H850      1.0  0.39054  0.98225  0.40353  1.0000
  C   C1064     1.0  0.40315  0.81125  0.34760  1.0000
  H   H851      1.0  0.62207  0.61625  0.33522  1.0000
  H   H852      1.0  0.63244  0.54482  0.24195  1.0000
  C   C1065     1.0  0.49040  0.77776  0.98801  1.0000
  H   H853      1.0  0.53384  0.88357  0.27813  1.0000
  C   C1066     1.0  0.49186  0.93427  0.04597  1.0000
  C   C1067     1.0  0.41469  0.78296  0.34933  1.0000
  H   H854      1.0  0.52878  0.90312  0.01436  1.0000
  H   H855      1.0  0.40076  0.82285  0.32721  1.0000
  C   C1068     1.0  0.64194  0.66935  0.42799  1.0000
  H   H856      1.0  0.53609  0.88821  0.06338  1.0000
  C   C1069     1.0  0.35390  0.85566  0.28048  1.0000
  H   H857      1.0  0.32821  0.86628  0.45466  1.0000
  H   H858      1.0  0.42080  0.77263  0.33041  1.0000
  C   C1070     1.0  0.64306  0.63691  0.36164  1.0000
  C   C1071     1.0  0.59242  0.96508  0.99547  1.0000
  C   C1072     1.0  0.34726  0.97777  0.04562  1.0000
  H   H859      1.0  0.44416  0.57081  0.05048  1.0000
  H   H860      1.0  0.35885  0.91068  0.27877  1.0000
  H   H861      1.0  0.39209  0.81757  0.41715  1.0000
  C   C1073     1.0  0.54935  0.77170  0.35761  1.0000
  C   C1074     1.0  0.55495  0.78598  0.38367  1.0000
  C   C1075     1.0  0.56986  0.80695  0.38520  1.0000
  C   C1076     1.0  0.57933  0.81339  0.36082  1.0000
  C   C1077     1.0  0.57378  0.79926  0.33448  1.0000
  C   C1078     1.0  0.55863  0.77848  0.33309  1.0000
  P   P34       1.0  0.58508  0.80918  0.30226  1.0000
  H   H862      1.0  0.63722  0.76968  0.34998  1.0000
  C   C1079     1.0  0.58576  0.77088  0.27944  1.0000
  C   C1080     1.0  0.58709  0.73782  0.29131  1.0000
  C   C1081     1.0  0.58899  0.70820  0.27396  1.0000
  C   C1082     1.0  0.58961  0.71133  0.24461  1.0000
  C   C1083     1.0  0.58831  0.74412  0.23258  1.0000
  C   C1084     1.0  0.58640  0.77383  0.24988  1.0000
  H   H863      1.0  0.62182  0.73446  0.46537  1.0000
  H   H864      1.0  0.51677  0.70325  0.03532  1.0000
  H   H865      1.0  0.43396  0.94361  0.03535  1.0000
  C   C1085     1.0  0.36797  0.52362  0.27098  1.0000
  C   C1086     1.0  0.36836  0.86926  0.42461  1.0000
  C   C1087     1.0  0.57389  0.84403  0.28410  1.0000
  C   C1088     1.0  0.58302  0.86410  0.26477  1.0000
  C   C1089     1.0  0.61044  0.85632  0.32198  1.0000
  C   C1090     1.0  0.55676  0.89790  0.25517  1.0000
  C   C1091     1.0  0.54758  0.87814  0.27442  1.0000
  C   C1092     1.0  0.55609  0.85127  0.28884  1.0000
  H   H866      1.0  0.53783  0.75528  0.35647  1.0000
  H   H867      1.0  0.54786  0.78065  0.40278  1.0000
  H   H868      1.0  0.57433  0.81766  0.40550  1.0000
  H   H869      1.0  0.59109  0.82888  0.36297  1.0000
  H   H870      1.0  0.55403  0.76743  0.31303  1.0000
  H   H871      1.0  0.58729  0.73490  0.31407  1.0000
  H   H872      1.0  0.59058  0.68292  0.28342  1.0000
  H   H873      1.0  0.59152  0.68846  0.23118  1.0000
  H   H874      1.0  0.58925  0.74644  0.20981  1.0000
  H   H875      1.0  0.64981  0.79935  0.29807  1.0000
  C   C1093     1.0  0.50594  0.79224  0.99976  1.0000
  H   H876      1.0  0.43063  0.90142  0.45972  1.0000
  H   H877      1.0  0.46190  0.77827  0.98752  1.0000
  P   P35       1.0  0.46479  0.93624  0.46602  1.0000
  H   H878      1.0  0.64263  0.76164  0.06373  1.0000
  C   C1094     1.0  0.45076  0.97249  0.09863  1.0000
  C   C1095     1.0  0.64419  0.73453  0.06920  1.0000
  C   C1096     1.0  0.65246  0.59488  0.18262  1.0000
  C   C1097     1.0  0.64731  0.66494  0.08449  1.0000
  C   C1098     1.0  0.39615  0.98266  0.48106  1.0000
  H   H879      1.0  0.43913  0.88735  0.99523  1.0000
  C   C1099     1.0  0.44663  0.90905  0.98767  1.0000
  S   S150      1.0  0.39484  0.91120  0.48073  1.0000
  S   S151      1.0  0.32335  0.72756  0.25237  1.0000
  C   C1100     1.0  0.32143  0.52633  0.26970  1.0000
  H   H880      1.0  0.32567  0.75052  0.43299  1.0000
  C   C1101     1.0  0.32410  0.51575  0.24152  1.0000
  H   H881      1.0  0.32759  0.53488  0.22619  1.0000
  H   H882      1.0  0.34628  0.77474  0.46942  1.0000
  C   C1102     1.0  0.34070  0.74919  0.47201  1.0000
  H   H883      1.0  0.59880  0.94149  0.98807  1.0000
  H   H884      1.0  0.48987  0.87763  0.46685  1.0000
  S   S152      1.0  0.52664  0.77450  0.98965  1.0000
  C   C1103     1.0  0.52547  0.93057  0.46823  1.0000
  H   H885      1.0  0.32144  0.81507  0.15136  1.0000
  C   C1104     1.0  0.51560  0.90003  0.46795  1.0000
  H   H886      1.0  0.32327  0.69207  0.13714  1.0000
  C   C1105     1.0  0.64182  0.84777  0.31775  1.0000
  C   C1106     1.0  0.63598  0.48892  0.24486  1.0000
  H   H887      1.0  0.33267  0.84137  0.10810  1.0000
  H   H888      1.0  0.52220  0.87497  0.46881  1.0000
  P   P36       1.0  0.49841  0.93795  0.98814  1.0000
  H   H889      1.0  0.52470  0.98648  0.46745  1.0000
  Fe  Fe77      1.0  0.33617  0.69861  0.78953  1.0000
  S   S153      1.0  0.34505  0.73699  0.82564  1.0000
  Fe  Fe78      1.0  0.33858  0.68291  0.72483  1.0000
  S   S154      1.0  0.35357  0.68947  0.68300  1.0000
  Fe  Fe79      1.0  0.33107  0.62282  0.76610  1.0000
  S   S155      1.0  0.33731  0.56714  0.78140  1.0000
  C   C1107     1.0  0.33775  0.68409  0.56063  1.0000
  S   S156      1.0  0.35300  0.66222  0.76350  1.0000
  S   S157      1.0  0.62539  0.65895  0.75990  1.0000
  S   S158      1.0  0.41149  0.83303  0.97567  1.0000
  Fe  Fe80      1.0  0.63548  0.69731  0.72829  1.0000
  S   S159      1.0  0.61808  0.73358  0.70065  1.0000
  Fe  Fe81      1.0  0.64390  0.68429  0.79213  1.0000
  S   S160      1.0  0.63863  0.68979  0.84007  1.0000
  C   C1108     1.0  0.39775  0.67063  0.55714  1.0000
  C   C1109     1.0  0.34583  0.70800  0.95123  1.0000
  C   C1110     1.0  0.62633  0.51201  0.82528  1.0000
  Fe  Fe82      1.0  0.58314  0.78830  0.53765  1.0000
  S   S161      1.0  0.60000  0.82930  0.51848  1.0000
  S   S162      1.0  0.59423  0.74813  0.56949  1.0000
  Fe  Fe83      1.0  0.57622  0.86448  0.52141  1.0000
  S   S163      1.0  0.57590  0.91855  0.54294  1.0000
  H   H890      1.0  0.35846  0.69579  0.95533  1.0000
  S   S164      1.0  0.60129  0.80012  0.92439  1.0000
  S   S165      1.0  0.55982  0.82429  0.54286  1.0000
  C   C1111     1.0  0.56610  0.98308  0.89504  1.0000
  C   C1112     1.0  0.64483  0.49426  0.73003  1.0000
  H   H891      1.0  0.48964  0.97486  0.52378  1.0000
  S   S166      1.0  0.57320  0.76835  0.49455  1.0000
  Fe  Fe84      1.0  0.38364  0.80473  0.54621  1.0000
  S   S167      1.0  0.40119  0.76352  0.52746  1.0000
  S   S168      1.0  0.36625  0.80072  0.58553  1.0000
  Fe  Fe85      1.0  0.42161  0.80574  0.52444  1.0000
  S   S169      1.0  0.44955  0.80303  0.54337  1.0000
  P   P37       1.0  0.34679  0.66931  0.52731  1.0000
  S   S170      1.0  0.38696  0.74706  0.94587  1.0000
  S   S171      1.0  0.40458  0.84618  0.54568  1.0000
  H   H892      1.0  0.50575  0.91912  0.52758  1.0000
  C   C1113     1.0  0.34049  0.62454  0.52092  1.0000
  C   C1114     1.0  0.50184  0.81180  0.52780  1.0000
  C   C1115     1.0  0.48539  0.81170  0.54106  1.0000
  C   C1116     1.0  0.46975  0.80597  0.52526  1.0000
  C   C1117     1.0  0.35212  0.60074  0.50820  1.0000
  H   H893      1.0  0.56750  0.95980  0.88195  1.0000
  H   H894      1.0  0.51378  0.81568  0.54024  1.0000
  H   H895      1.0  0.48480  0.81549  0.56376  1.0000
  H   H896      1.0  0.47852  0.89266  0.51276  1.0000
  C   C1118     1.0  0.43271  0.92681  0.53423  1.0000
  C   C1119     1.0  0.62802  0.72079  0.86300  1.0000
  C   C1120     1.0  0.62361  0.75441  0.85451  1.0000
  C   C1121     1.0  0.61556  0.77813  0.87362  1.0000
  C   C1122     1.0  0.61157  0.76867  0.90143  1.0000
  C   C1123     1.0  0.61592  0.73497  0.90989  1.0000
  C   C1124     1.0  0.62413  0.71135  0.89085  1.0000
  H   H897      1.0  0.62667  0.76230  0.83337  1.0000
  H   H898      1.0  0.61245  0.80414  0.86688  1.0000
  H   H899      1.0  0.61308  0.72718  0.93116  1.0000
  H   H900      1.0  0.62749  0.68550  0.89781  1.0000
  C   C1125     1.0  0.61279  0.73756  0.66359  1.0000
  C   C1126     1.0  0.60656  0.76975  0.65356  1.0000
  C   C1127     1.0  0.60128  0.77379  0.62488  1.0000
  C   C1128     1.0  0.60164  0.74541  0.60578  1.0000
  C   C1129     1.0  0.60788  0.71326  0.61584  1.0000
  C   C1130     1.0  0.61354  0.70939  0.64436  1.0000
  H   H901      1.0  0.60588  0.79182  0.66806  1.0000
  H   H902      1.0  0.59696  0.79889  0.61753  1.0000
  H   H903      1.0  0.60834  0.69106  0.60141  1.0000
  C   C1131     1.0  0.35688  0.73902  0.85898  1.0000
  C   C1132     1.0  0.35650  0.77013  0.87535  1.0000
  C   C1133     1.0  0.36561  0.77325  0.90174  1.0000
  C   C1134     1.0  0.37541  0.74526  0.91226  1.0000
  C   C1135     1.0  0.37582  0.71415  0.89585  1.0000
  C   C1136     1.0  0.36669  0.71103  0.86949  1.0000
  H   H904      1.0  0.34907  0.79209  0.86758  1.0000
  H   H905      1.0  0.36503  0.79732  0.91396  1.0000
  H   H906      1.0  0.38327  0.69221  0.90361  1.0000
  H   H907      1.0  0.36733  0.68698  0.85725  1.0000
  C   C1137     1.0  0.35736  0.72140  0.65672  1.0000
  C   C1138     1.0  0.34991  0.75474  0.65793  1.0000
  C   C1139     1.0  0.35277  0.77847  0.63601  1.0000
  C   C1140     1.0  0.36329  0.76954  0.61269  1.0000
  C   C1141     1.0  0.37093  0.73638  0.61167  1.0000
  C   C1142     1.0  0.36791  0.71251  0.63342  1.0000
  H   H908      1.0  0.34174  0.76210  0.67556  1.0000
  H   H909      1.0  0.34678  0.80399  0.63714  1.0000
  H   H910      1.0  0.37909  0.72914  0.59404  1.0000
  H   H911      1.0  0.37358  0.68677  0.63195  1.0000
  C   C1143     1.0  0.38552  0.95763  0.52393  1.0000
  C   C1144     1.0  0.44780  0.96416  0.96420  1.0000
  H   H912      1.0  0.56302  0.71054  0.54012  1.0000
  H   H913      1.0  0.38224  0.93514  0.53609  1.0000
  H   H914      1.0  0.34587  0.50133  0.80644  1.0000
  H   H915      1.0  0.42167  0.70698  0.94874  1.0000
  C   C1145     1.0  0.57632  0.95947  0.52604  1.0000
  H   H916      1.0  0.45372  0.71688  0.95480  1.0000
  Fe  Fe86      1.0  0.64842  0.62445  0.74784  1.0000
  Fe  Fe87      1.0  0.39476  0.85825  0.50191  1.0000
  H   H917      1.0  0.36518  0.60855  0.50245  1.0000
  H   H918      1.0  0.61815  0.68438  0.65156  1.0000
  C   C1146     1.0  0.46600  0.90347  0.51861  1.0000
  C   C1147     1.0  0.37046  0.67178  0.52958  1.0000
  C   C1148     1.0  0.33224  0.52312  0.77049  1.0000
  H   H919      1.0  0.54759  0.97048  0.57321  1.0000
  H   H920      1.0  0.63435  0.52367  0.84208  1.0000
  C   C1149     1.0  0.47071  0.80125  0.49590  1.0000
  H   H921      1.0  0.32607  0.52895  0.50531  1.0000
  C   C1150     1.0  0.52754  0.94134  0.55082  1.0000
  C   C1151     1.0  0.33662  0.66099  0.58320  1.0000
  C   C1152     1.0  0.45640  0.92520  0.50036  1.0000
  H   H922      1.0  0.54380  0.69253  0.62549  1.0000
  C   C1153     1.0  0.46601  0.96521  0.96879  1.0000
  H   H923      1.0  0.35598  0.54807  0.49300  1.0000
  C   C1154     1.0  0.61244  0.51549  0.77893  1.0000
  H   H924      1.0  0.33922  0.67285  0.91714  1.0000
  H   H925      1.0  0.65054  0.83856  0.74904  1.0000
  S   S172      1.0  0.38638  0.91956  0.98227  1.0000
  H   H926      1.0  0.46632  0.87637  0.55806  1.0000
  H   H927      1.0  0.44110  0.98530  0.95361  1.0000
  C   C1155     1.0  0.33006  0.55561  0.50957  1.0000
  H   H928      1.0  0.43687  0.89710  0.57189  1.0000
  C   C1156     1.0  0.39850  0.67703  0.50635  1.0000
  H   H929      1.0  0.53502  0.91725  0.55096  1.0000
  H   H930      1.0  0.53243  0.93601  0.95990  1.0000
  H   H931      1.0  0.37230  0.66613  0.57511  1.0000
  C   C1157     1.0  0.44245  0.90558  0.55230  1.0000
  C   C1158     1.0  0.50802  0.97977  0.98093  1.0000
  C   C1159     1.0  0.33205  0.71862  0.56457  1.0000
  C   C1160     1.0  0.65028  0.80260  0.71399  1.0000
  C   C1161     1.0  0.59799  0.80976  0.80812  1.0000
  C   C1162     1.0  0.60935  0.80015  0.78643  1.0000
  C   C1163     1.0  0.60806  0.76715  0.77368  1.0000
  C   C1164     1.0  0.59549  0.74362  0.78262  1.0000
  C   C1165     1.0  0.58414  0.75291  0.80464  1.0000
  C   C1166     1.0  0.58539  0.78631  0.81717  1.0000
  P   P38       1.0  0.56731  0.72319  0.81534  1.0000
  C   C1167     1.0  0.54840  0.72637  0.79169  1.0000
  C   C1168     1.0  0.57568  0.67906  0.81398  1.0000
  C   C1169     1.0  0.59331  0.67238  0.82106  1.0000
  C   C1170     1.0  0.59996  0.63844  0.82000  1.0000
  C   C1171     1.0  0.58907  0.61082  0.81170  1.0000
  C   C1172     1.0  0.57145  0.61712  0.80466  1.0000
  C   C1173     1.0  0.56475  0.65107  0.80585  1.0000
  C   C1174     1.0  0.53185  0.71516  0.80032  1.0000
  C   C1175     1.0  0.51729  0.71685  0.78186  1.0000
  C   C1176     1.0  0.51918  0.72936  0.75455  1.0000
  C   C1177     1.0  0.53563  0.74013  0.74565  1.0000
  C   C1178     1.0  0.55020  0.73865  0.76411  1.0000
  C   C1179     1.0  0.56176  0.73424  0.85156  1.0000
  C   C1180     1.0  0.54733  0.75599  0.85745  1.0000
  C   C1181     1.0  0.54336  0.76515  0.88543  1.0000
  C   C1182     1.0  0.55404  0.75361  0.90773  1.0000
  C   C1183     1.0  0.56867  0.73279  0.90203  1.0000
  C   C1184     1.0  0.57255  0.72314  0.87411  1.0000
  H   H932      1.0  0.59911  0.83517  0.81832  1.0000
  H   H933      1.0  0.61925  0.81809  0.77959  1.0000
  H   H934      1.0  0.61687  0.75974  0.75688  1.0000
  H   H935      1.0  0.59467  0.71823  0.77228  1.0000
  H   H936      1.0  0.57688  0.79422  0.83423  1.0000
  H   H937      1.0  0.60196  0.69349  0.82731  1.0000
  H   H938      1.0  0.61366  0.63371  0.82543  1.0000
  H   H939      1.0  0.59430  0.58458  0.81068  1.0000
  H   H940      1.0  0.56301  0.59566  0.79822  1.0000
  H   H941      1.0  0.55109  0.65518  0.80033  1.0000
  H   H942      1.0  0.53023  0.70485  0.82127  1.0000
  H   H943      1.0  0.50456  0.70830  0.78876  1.0000
  H   H944      1.0  0.50794  0.73058  0.74021  1.0000
  H   H945      1.0  0.53715  0.74950  0.72438  1.0000
  H   H946      1.0  0.56282  0.74687  0.75662  1.0000
  H   H947      1.0  0.53928  0.76640  0.84052  1.0000
  H   H948      1.0  0.53213  0.78156  0.88991  1.0000
  H   H949      1.0  0.55117  0.76125  0.92943  1.0000
  H   H950      1.0  0.57726  0.72485  0.91930  1.0000
  H   H951      1.0  0.58423  0.70776  0.87031  1.0000
  H   H952      1.0  0.53710  0.71212  0.50733  1.0000
  C   C1185     1.0  0.62266  0.53056  0.80074  1.0000
  H   H953      1.0  0.49128  0.75700  0.97230  1.0000
  S   S173      1.0  0.37224  0.82025  0.50350  1.0000
  H   H954      1.0  0.63669  0.80782  0.70821  1.0000
  C   C1186     1.0  0.33487  0.69522  0.92936  1.0000
  Fe  Fe88      1.0  0.55132  0.80813  0.49878  1.0000
  H   H955      1.0  0.46257  0.75639  0.66265  1.0000
  H   H956      1.0  0.50445  0.71171  0.61433  1.0000
  C   C1187     1.0  0.32378  0.59212  0.85539  1.0000
  C   C1188     1.0  0.51107  0.94254  0.53743  1.0000
  H   H957      1.0  0.56586  0.79976  0.61998  1.0000
  C   C1189     1.0  0.56312  0.98020  0.92396  1.0000
  H   H958      1.0  0.48165  0.80623  0.67686  1.0000
  C   C1190     1.0  0.37940  0.66906  0.55573  1.0000
  H   H959      1.0  0.32815  0.56837  0.84481  1.0000
  H   H960      1.0  0.50610  0.75759  0.57323  1.0000
  C   C1191     1.0  0.43958  0.93643  0.50834  1.0000
  H   H961      1.0  0.47423  0.70885  0.63197  1.0000
  H   H962      1.0  0.34458  0.62289  0.83885  1.0000
  H   H963      1.0  0.42403  0.93497  0.96977  1.0000
  S   S174      1.0  0.56362  0.83545  0.96861  1.0000
  H   H964      1.0  0.64065  0.91896  0.80514  1.0000
  C   C1192     1.0  0.45909  0.89400  0.54451  1.0000
  H   H965      1.0  0.50045  0.97812  0.93653  1.0000
  H   H966      1.0  0.57461  0.76216  0.70071  1.0000
  H   H967      1.0  0.58136  0.69964  0.69423  1.0000
  C   C1193     1.0  0.50858  0.90613  0.96487  1.0000
  C   C1194     1.0  0.50054  0.87393  0.95886  1.0000
  C   C1195     1.0  0.50901  0.84876  0.94219  1.0000
  C   C1196     1.0  0.52551  0.85556  0.93128  1.0000
  C   C1197     1.0  0.53364  0.88744  0.93718  1.0000
  C   C1198     1.0  0.52536  0.91242  0.95423  1.0000
  C   C1199     1.0  0.32256  0.51483  0.74575  1.0000
  H   H968      1.0  0.56575  0.66480  0.65694  1.0000
  H   H969      1.0  0.56063  0.73255  0.58910  1.0000
  H   H970      1.0  0.60999  0.52973  0.75967  1.0000
  C   C1200     1.0  0.47473  0.93804  0.98281  1.0000
  H   H971      1.0  0.43143  0.95173  0.49423  1.0000
  H   H972      1.0  0.51193  0.80949  0.65940  1.0000
  Fe  Fe89      1.0  0.58918  0.80563  0.96898  1.0000
  H   H973      1.0  0.41957  0.93489  0.53984  1.0000
  H   H974      1.0  0.50869  0.73514  0.52424  1.0000
  S   S175      1.0  0.64397  0.56614  0.73626  1.0000
  C   C1201     1.0  0.65089  0.52320  0.74621  1.0000
  C   C1202     1.0  0.32507  0.72961  0.59043  1.0000
  H   H975      1.0  0.40580  0.68098  0.48722  1.0000
  H   H976      1.0  0.51164  0.82695  0.60439  1.0000
  C   C1203     1.0  0.32711  0.65393  0.86453  1.0000
  H   H977      1.0  0.50304  0.82349  0.93863  1.0000
  H   H978      1.0  0.53234  0.83564  0.91923  1.0000
  H   H979      1.0  0.54675  0.89211  0.92970  1.0000
  C   C1204     1.0  0.43813  0.93593  0.97341  1.0000
  H   H980      1.0  0.34137  0.63451  0.58105  1.0000
  C   C1205     1.0  0.32969  0.67214  0.60905  1.0000
  H   H981      1.0  0.33322  0.73741  0.54807  1.0000
  H   H982      1.0  0.35542  0.73987  0.51031  1.0000
  H   H983      1.0  0.62805  0.55636  0.79825  1.0000
  H   H984      1.0  0.55242  0.79047  0.66992  1.0000
  C   C1206     1.0  0.33915  0.69565  0.49825  1.0000
  C   C1207     1.0  0.38703  0.62282  0.66995  1.0000
  C   C1208     1.0  0.38045  0.60404  0.69237  1.0000
  C   C1209     1.0  0.38328  0.61589  0.72022  1.0000
  C   C1210     1.0  0.39249  0.64678  0.72567  1.0000
  C   C1211     1.0  0.39879  0.66629  0.70323  1.0000
  C   C1212     1.0  0.39627  0.65372  0.67533  1.0000
  P   P39       1.0  0.41086  0.70596  0.71063  1.0000
  C   C1213     1.0  0.40154  0.72677  0.74164  1.0000
  C   C1214     1.0  0.43377  0.69581  0.71692  1.0000
  C   C1215     1.0  0.44638  0.72223  0.71567  1.0000
  C   C1216     1.0  0.46419  0.71464  0.72013  1.0000
  C   C1217     1.0  0.46952  0.68065  0.72591  1.0000
  C   C1218     1.0  0.45703  0.65428  0.72738  1.0000
  C   C1219     1.0  0.43920  0.66177  0.72294  1.0000
  C   C1220     1.0  0.38324  0.73040  0.74349  1.0000
  C   C1221     1.0  0.37578  0.74503  0.76778  1.0000
  C   C1222     1.0  0.38648  0.75578  0.79063  1.0000
  C   C1223     1.0  0.40470  0.75225  0.78906  1.0000
  C   C1224     1.0  0.41224  0.73783  0.76467  1.0000
  C   C1225     1.0  0.40946  0.73438  0.68056  1.0000
  C   C1226     1.0  0.42033  0.72826  0.65723  1.0000
  C   C1227     1.0  0.41950  0.75009  0.63391  1.0000
  C   C1228     1.0  0.40790  0.77831  0.63376  1.0000
  C   C1229     1.0  0.39717  0.78477  0.65693  1.0000
  C   C1230     1.0  0.39784  0.76285  0.68017  1.0000
  H   H985      1.0  0.38457  0.61388  0.64837  1.0000
  H   H986      1.0  0.37292  0.58056  0.68822  1.0000
  H   H987      1.0  0.37797  0.60149  0.73757  1.0000
  H   H988      1.0  0.39439  0.65566  0.74742  1.0000
  H   H989      1.0  0.40094  0.66810  0.65764  1.0000
  H   H990      1.0  0.44239  0.74871  0.71133  1.0000
  H   H991      1.0  0.47385  0.73514  0.71912  1.0000
  H   H992      1.0  0.48331  0.67469  0.72931  1.0000
  H   H993      1.0  0.46112  0.62792  0.73196  1.0000
  H   H994      1.0  0.42976  0.64093  0.72421  1.0000
  H   H995      1.0  0.37470  0.72157  0.72623  1.0000
  H   H996      1.0  0.36164  0.74749  0.76918  1.0000
  H   H997      1.0  0.38056  0.76642  0.80967  1.0000
  H   H998      1.0  0.41291  0.76034  0.80697  1.0000
  H   H999      1.0  0.42634  0.73492  0.76419  1.0000
  H   H1000     1.0  0.42927  0.70630  0.65689  1.0000
  H   H1001     1.0  0.42764  0.74500  0.61571  1.0000
  H   H1002     1.0  0.40686  0.79474  0.61539  1.0000
  H   H1003     1.0  0.38787  0.80618  0.65641  1.0000
  H   H1004     1.0  0.38904  0.76808  0.69741  1.0000
  C   C1231     1.0  0.50287  0.80502  0.49867  1.0000
  C   C1232     1.0  0.53027  0.86836  0.60157  1.0000
  C   C1233     1.0  0.54797  0.87785  0.60340  1.0000
  C   C1234     1.0  0.56070  0.85316  0.61060  1.0000
  C   C1235     1.0  0.55575  0.81903  0.61609  1.0000
  C   C1236     1.0  0.53797  0.80958  0.61535  1.0000
  C   C1237     1.0  0.52530  0.83423  0.60714  1.0000
  P   P40       1.0  0.53187  0.76483  0.62027  1.0000
  C   C1238     1.0  0.53298  0.74520  0.58533  1.0000
  C   C1239     1.0  0.54674  0.74378  0.64492  1.0000
  C   C1240     1.0  0.55021  0.70799  0.64207  1.0000
  C   C1241     1.0  0.56255  0.69209  0.65997  1.0000
  C   C1242     1.0  0.57127  0.71164  0.68112  1.0000
  C   C1243     1.0  0.56744  0.74699  0.68475  1.0000
  C   C1244     1.0  0.55505  0.76296  0.66697  1.0000
  C   C1245     1.0  0.51841  0.74613  0.56668  1.0000
  C   C1246     1.0  0.51983  0.73355  0.53881  1.0000
  C   C1247     1.0  0.53586  0.72057  0.52923  1.0000
  C   C1248     1.0  0.55042  0.71974  0.54764  1.0000
  C   C1249     1.0  0.54902  0.73218  0.57551  1.0000
  C   C1250     1.0  0.51019  0.76147  0.63472  1.0000
  C   C1251     1.0  0.50380  0.78747  0.65318  1.0000
  C   C1252     1.0  0.48669  0.78557  0.66329  1.0000
  C   C1253     1.0  0.47597  0.75743  0.65542  1.0000
  C   C1254     1.0  0.48250  0.73074  0.63801  1.0000
  C   C1255     1.0  0.49960  0.73256  0.62788  1.0000
  H   H1005     1.0  0.52046  0.88721  0.59509  1.0000
  H   H1006     1.0  0.55197  0.90394  0.59820  1.0000
  H   H1007     1.0  0.57449  0.86008  0.61059  1.0000
  C   C1256     1.0  0.38017  0.67560  0.50487  1.0000
  H   H1008     1.0  0.56234  0.95484  0.93347  1.0000
  C   C1257     1.0  0.34586  0.72929  0.49517  1.0000
  H   H1009     1.0  0.48804  0.86744  0.96765  1.0000
  C   C1258     1.0  0.39197  0.95309  0.49659  1.0000
  C   C1259     1.0  0.32347  0.61368  0.52731  1.0000
  C   C1260     1.0  0.33309  0.62289  0.85206  1.0000
  H   H1010     1.0  0.40454  0.66925  0.57744  1.0000
  H   H1011     1.0  0.33408  0.67781  0.86085  1.0000
  C   C1261     1.0  0.34692  0.56636  0.50269  1.0000
  C   C1262     1.0  0.57533  0.96215  0.49659  1.0000
  C   C1263     1.0  0.33834  0.49549  0.78731  1.0000
  H   H1012     1.0  0.32932  0.65462  0.62672  1.0000
  H   H1013     1.0  0.33088  0.97737  0.58049  1.0000
  C   C1264     1.0  0.34097  0.73749  0.96701  1.0000
  C   C1265     1.0  0.40730  0.67458  0.53246  1.0000
  H   H1014     1.0  0.42149  0.67646  0.53359  1.0000
  H   H1015     1.0  0.63652  0.49852  0.71160  1.0000
  C   C1266     1.0  0.32381  0.70635  0.61259  1.0000
  H   H1016     1.0  0.34972  0.96134  0.97487  1.0000
  Fe  Fe90      1.0  0.39232  0.78917  0.98087  1.0000
  H   H1017     1.0  0.32120  0.77674  0.97364  1.0000
  H   H1018     1.0  0.65335  0.76382  0.68085  1.0000
  C   C1267     1.0  0.53470  0.97150  0.56316  1.0000
  H   H1019     1.0  0.35358  0.98456  0.61842  1.0000
  C   C1268     1.0  0.32488  0.75376  0.96144  1.0000
  S   S176      1.0  0.32297  0.72195  0.75060  1.0000
  H   H1020     1.0  0.65222  0.85948  0.79785  1.0000
  C   C1269     1.0  0.44601  0.70994  0.97282  1.0000
  C   C1270     1.0  0.42799  0.70425  0.96936  1.0000
  H   H1021     1.0  0.34987  0.74798  0.98323  1.0000
  C   C1271     1.0  0.50197  0.97413  0.53552  1.0000
  S   S177      1.0  0.65242  0.72490  0.76167  1.0000
  H   H1022     1.0  0.32122  0.75655  0.59363  1.0000
  Fe  Fe91      1.0  0.82600  0.18181  0.29540  1.0000
  S   S178      1.0  0.79849  0.15970  0.29095  1.0000
  S   S179      1.0  0.83880  0.18560  0.34047  1.0000
  Fe  Fe92      1.0  0.83115  0.17690  0.23004  1.0000
  S   S180      1.0  0.80438  0.15356  0.22263  1.0000
  S   S181      1.0  0.85196  0.18084  0.19518  1.0000
  Fe  Fe93      1.0  0.79479  0.19473  0.25366  1.0000
  S   S182      1.0  0.77060  0.22601  0.23813  1.0000
  Fe  Fe94      1.0  0.80997  0.11997  0.26046  1.0000
  S   S183      1.0  0.80034  0.06285  0.26095  1.0000
  S   S184      1.0  0.82164  0.21967  0.25970  1.0000
  S   S185      1.0  0.83738  0.14056  0.26610  1.0000
  Fe  Fe95      1.0  0.89806  0.35021  0.02470  1.0000
  S   S186      1.0  0.90689  0.31265  0.05805  1.0000
  S   S187      1.0  0.90365  0.40678  0.03771  1.0000
  C   C1272     1.0  0.85241  0.40763  0.04779  1.0000
  S   S188      1.0  0.89525  0.24916  0.01420  1.0000
  H   H1023     1.0  0.90519  0.33586  0.22547  1.0000
  Fe  Fe96      1.0  0.88235  0.28213  0.04839  1.0000
  S   S189      1.0  0.86166  0.26921  0.08198  1.0000
  Fe  Fe97      1.0  0.91947  0.28301  0.02218  1.0000
  S   S190      1.0  0.94750  0.26199  0.02982  1.0000
  S   S191      1.0  0.87266  0.32184  0.01705  1.0000
  C   C1273     1.0  0.96071  0.43272  0.01145  1.0000
  Fe  Fe98      1.0  0.67039  0.29743  0.27214  1.0000
  H   H1024     1.0  0.88707  0.04571  0.44686  1.0000
  S   S192      1.0  0.69648  0.27427  0.28907  1.0000
  C   C1274     1.0  0.88712  0.31012  0.19606  1.0000
  C   C1275     1.0  0.79859  0.08788  0.33518  1.0000
  C   C1276     1.0  0.66066  0.18446  0.23549  1.0000
  H   H1025     1.0  0.67125  0.18009  0.27791  1.0000
  C   C1277     1.0  0.65630  0.13231  0.43611  1.0000
  C   C1278     1.0  0.89570  0.44663  0.02408  1.0000
  H   H1026     1.0  0.79669  0.41069  0.13387  1.0000
  H   H1027     1.0  0.94670  0.37727  0.03734  1.0000
  C   C1279     1.0  0.87915  0.01630  0.30427  1.0000
  C   C1280     1.0  0.97305  0.42016  0.99205  1.0000
  C   C1281     1.0  0.96817  0.28283  0.02497  1.0000
  C   C1282     1.0  0.65369  0.15986  0.39033  1.0000
  C   C1283     1.0  0.88531  0.09662  0.42899  1.0000
  C   C1284     1.0  0.90471  0.37369  0.11427  1.0000
  H   H1028     1.0  0.91619  0.35712  0.11630  1.0000
  C   C1285     1.0  0.74996  0.23861  0.25275  1.0000
  C   C1286     1.0  0.74573  0.23266  0.28094  1.0000
  C   C1287     1.0  0.72939  0.24398  0.29160  1.0000
  C   C1288     1.0  0.71695  0.26106  0.27427  1.0000
  C   C1289     1.0  0.72110  0.26678  0.24605  1.0000
  C   C1290     1.0  0.73749  0.25570  0.23542  1.0000
  H   H1029     1.0  0.75516  0.21984  0.29463  1.0000
  H   H1030     1.0  0.72644  0.23972  0.31353  1.0000
  H   H1031     1.0  0.71172  0.27994  0.23251  1.0000
  H   H1032     1.0  0.74060  0.26056  0.21364  1.0000
  C   C1291     1.0  0.80950  0.02065  0.26733  1.0000
  C   C1292     1.0  0.82758  0.01484  0.27067  1.0000
  C   C1293     1.0  0.82826  0.45570  0.02607  1.0000
  H   H1033     1.0  0.83647  0.03654  0.26971  1.0000
  H   H1034     1.0  0.85953  0.42658  0.16050  1.0000
  C   C1294     1.0  0.85417  0.20508  0.16337  1.0000
  C   C1295     1.0  0.84099  0.22723  0.15311  1.0000
  C   C1296     1.0  0.84345  0.24593  0.12799  1.0000
  C   C1297     1.0  0.85915  0.24320  0.11276  1.0000
  C   C1298     1.0  0.87222  0.22056  0.12274  1.0000
  C   C1299     1.0  0.86976  0.20183  0.14786  1.0000
  H   H1035     1.0  0.82884  0.22979  0.16442  1.0000
  H   H1036     1.0  0.83306  0.26266  0.12027  1.0000
  H   H1037     1.0  0.88425  0.21751  0.11117  1.0000
  H   H1038     1.0  0.88005  0.18464  0.15533  1.0000
  C   C1300     1.0  0.84782  0.21650  0.36590  1.0000
  C   C1301     1.0  0.85280  0.20510  0.39312  1.0000
  C   C1302     1.0  0.86033  0.22813  0.41379  1.0000
  C   C1303     1.0  0.86318  0.26312  0.40757  1.0000
  C   C1304     1.0  0.85816  0.27451  0.38035  1.0000
  C   C1305     1.0  0.85045  0.25157  0.35980  1.0000
  H   H1039     1.0  0.85071  0.17824  0.39834  1.0000
  H   H1040     1.0  0.86402  0.21878  0.43449  1.0000
  H   H1041     1.0  0.86017  0.30144  0.37519  1.0000
  H   H1042     1.0  0.84657  0.26103  0.33922  1.0000
  C   C1306     1.0  0.81737  0.29321  0.19591  1.0000
  C   C1307     1.0  0.81541  0.30642  0.16871  1.0000
  C   C1308     1.0  0.82949  0.32301  0.15620  1.0000
  C   C1309     1.0  0.84560  0.32604  0.17075  1.0000
  C   C1310     1.0  0.84781  0.31208  0.19780  1.0000
  C   C1311     1.0  0.83345  0.29631  0.21053  1.0000
  P   P41       1.0  0.86813  0.31887  0.21739  1.0000
  C   C1312     1.0  0.86708  0.36365  0.22941  1.0000
  C   C1313     1.0  0.86897  0.01789  0.32858  1.0000
  C   C1314     1.0  0.67086  0.24816  0.34773  1.0000
  C   C1315     1.0  0.81381  0.06787  0.33872  1.0000
  C   C1316     1.0  0.85547  0.37338  0.25091  1.0000
  H   H1043     1.0  0.87154  0.22239  0.30721  1.0000
  C   C1317     1.0  0.86986  0.28879  0.24615  1.0000
  C   C1318     1.0  0.86733  0.25322  0.24042  1.0000
  H   H1044     1.0  0.80647  0.28017  0.20564  1.0000
  H   H1045     1.0  0.80302  0.30345  0.15727  1.0000
  H   H1046     1.0  0.82803  0.33301  0.13501  1.0000
  H   H1047     1.0  0.85635  0.33907  0.16081  1.0000
  H   H1048     1.0  0.83457  0.28631  0.23172  1.0000
  H   H1049     1.0  0.84437  0.23655  0.01665  1.0000
  H   H1050     1.0  0.87013  0.99727  0.34375  1.0000
  H   H1051     1.0  0.84750  0.35400  0.26088  1.0000
  C   C1319     1.0  0.66805  0.22397  0.36897  1.0000
  H   H1052     1.0  0.87324  0.27945  0.16381  1.0000
  H   H1053     1.0  0.86457  0.24400  0.21898  1.0000
  C   C1320     1.0  0.90670  0.40932  0.11007  1.0000
  H   H1054     1.0  0.93138  0.32365  0.19676  1.0000
  C   C1321     1.0  0.79820  0.99176  0.26808  1.0000
  H   H1055     1.0  0.93783  0.47005  0.45039  1.0000
  H   H1056     1.0  0.94362  0.32513  0.06563  1.0000
  C   C1322     1.0  0.86861  0.04672  0.41165  1.0000
  P   P42       1.0  0.96674  0.44241  0.04796  1.0000
  C   C1323     1.0  0.79539  0.11624  0.35335  1.0000
  C   C1324     1.0  0.87502  0.41606  0.10622  1.0000
  H   H1057     1.0  0.85191  0.45771  0.47081  1.0000
  H   H1058     1.0  0.67439  0.27796  0.42659  1.0000
  C   C1325     1.0  0.86553  0.10219  0.38860  1.0000
  C   C1326     1.0  0.82588  0.07589  0.36068  1.0000
  C   C1327     1.0  0.96139  0.40621  0.06989  1.0000
  H   H1059     1.0  0.95392  0.36651  0.47211  1.0000
  H   H1060     1.0  0.72233  0.17282  0.31658  1.0000
  C   C1328     1.0  0.95692  0.34679  0.10245  1.0000
  H   H1061     1.0  0.67003  0.23790  0.11104  1.0000
  C   C1329     1.0  0.84581  0.42353  0.15448  1.0000
  H   H1062     1.0  0.88495  0.38293  0.19825  1.0000
  C   C1330     1.0  0.94306  0.43553  0.00280  1.0000
  H   H1063     1.0  0.89942  0.26815  0.13523  1.0000
  C   C1331     1.0  0.86395  0.43366  0.24673  1.0000
  C   C1332     1.0  0.66435  0.46942  0.26175  1.0000
  H   H1064     1.0  0.78948  0.08187  0.31787  1.0000
  S   S193      1.0  0.87311  0.29365  0.43247  1.0000
  C   C1333     1.0  0.90247  0.47798  0.03556  1.0000
  C   C1334     1.0  0.83102  0.00097  0.40225  1.0000
  H   H1065     1.0  0.95619  0.28298  0.48301  1.0000
  H   H1066     1.0  0.83848  0.40750  0.19607  1.0000
  C   C1335     1.0  0.82556  0.01388  0.19643  1.0000
  C   C1336     1.0  0.83395  0.41275  0.17471  1.0000
  H   H1067     1.0  0.86029  0.36826  0.10962  1.0000
  C   C1337     1.0  0.70140  0.10446  0.34530  1.0000
  C   C1338     1.0  0.95003  0.34784  0.07490  1.0000
  Fe  Fe99      1.0  0.88260  0.30174  0.47929  1.0000
  C   C1339     1.0  0.87658  0.38949  0.21584  1.0000
  C   C1340     1.0  0.91859  0.31471  0.18937  1.0000
  C   C1341     1.0  0.91701  0.29568  0.16392  1.0000
  C   C1342     1.0  0.85745  0.04597  0.33326  1.0000
  C   C1343     1.0  0.87400  0.30000  0.27399  1.0000
  H   H1068     1.0  0.83044  0.48182  0.06654  1.0000
  C   C1344     1.0  0.88572  0.29016  0.17090  1.0000
  C   C1345     1.0  0.87461  0.27607  0.29592  1.0000
  H   H1069     1.0  0.95561  0.32336  0.11454  1.0000
  H   H1070     1.0  0.81616  0.04624  0.32424  1.0000
  C   C1346     1.0  0.88295  0.44798  0.00246  1.0000
  C   C1347     1.0  0.89191  0.43049  0.10593  1.0000
  C   C1348     1.0  0.85687  0.07324  0.31399  1.0000
  C   C1349     1.0  0.87771  0.11688  0.40780  1.0000
  H   H1071     1.0  0.88127  0.14406  0.40615  1.0000
  C   C1350     1.0  0.86803  0.22937  0.26231  1.0000
  C   C1351     1.0  0.90373  0.32168  0.20551  1.0000
  H   H1072     1.0  0.84855  0.09579  0.31766  1.0000
  H   H1073     1.0  0.87674  0.32703  0.27894  1.0000
  C   C1352     1.0  0.95252  0.39391  0.47762  1.0000
  H   H1074     1.0  0.81777  0.00412  0.21336  1.0000
  C   C1353     1.0  0.90060  0.28329  0.15479  1.0000
  C   C1354     1.0  0.88793  0.35916  0.11432  1.0000
  H   H1075     1.0  0.80712  0.39943  0.18291  1.0000
  C   C1355     1.0  0.67516  0.28258  0.35493  1.0000
  H   H1076     1.0  0.67007  0.24040  0.32556  1.0000
  C   C1356     1.0  0.67634  0.29340  0.38328  1.0000
  C   C1357     1.0  0.66431  0.19167  0.20736  1.0000
  C   C1358     1.0  0.68158  0.19829  0.19932  1.0000
  P   P43       1.0  0.66363  0.17881  0.35986  1.0000
  P   P44       1.0  0.68613  0.21074  0.16360  1.0000
  C   C1359     1.0  0.68632  0.25768  0.16465  1.0000
  C   C1360     1.0  0.70707  0.19354  0.15268  1.0000
  C   C1361     1.0  0.71656  0.21034  0.13183  1.0000
  C   C1362     1.0  0.73308  0.19784  0.12402  1.0000
  C   C1363     1.0  0.74013  0.16823  0.13669  1.0000
  C   C1364     1.0  0.73051  0.15073  0.15680  1.0000
  C   C1365     1.0  0.71395  0.16309  0.16457  1.0000
  C   C1366     1.0  0.70185  0.27568  0.17171  1.0000
  C   C1367     1.0  0.70191  0.31206  0.17303  1.0000
  C   C1368     1.0  0.68647  0.33068  0.16741  1.0000
  C   C1369     1.0  0.67089  0.31289  0.16099  1.0000
  C   C1370     1.0  0.67073  0.27655  0.16024  1.0000
  C   C1371     1.0  0.67009  0.19329  0.13840  1.0000
  C   C1372     1.0  0.66462  0.21251  0.11481  1.0000
  C   C1373     1.0  0.98373  0.26676  0.03490  1.0000
  C   C1374     1.0  0.87826  0.04322  0.28490  1.0000
  C   C1375     1.0  0.68614  0.12146  0.35425  1.0000
  C   C1376     1.0  0.81736  0.23179  0.00241  1.0000
  C   C1377     1.0  0.85405  0.40822  0.25972  1.0000
  H   H1077     1.0  0.72628  0.10982  0.32481  1.0000
  C   C1378     1.0  0.65427  0.20756  0.48195  1.0000
  H   H1078     1.0  0.69568  0.20300  0.33197  1.0000
  H   H1079     1.0  0.65841  0.26318  0.15656  1.0000
  H   H1080     1.0  0.71126  0.23333  0.12186  1.0000
  H   H1081     1.0  0.74051  0.21127  0.10833  1.0000
  H   H1082     1.0  0.75305  0.15885  0.13099  1.0000
  H   H1083     1.0  0.73598  0.12776  0.16660  1.0000
  H   H1084     1.0  0.70667  0.14907  0.18008  1.0000
  H   H1085     1.0  0.71383  0.26166  0.17676  1.0000
  H   H1086     1.0  0.71387  0.32577  0.17896  1.0000
  H   H1087     1.0  0.67969  0.32013  0.38862  1.0000
  H   H1088     1.0  0.89477  0.10813  0.44381  1.0000
  H   H1089     1.0  0.70832  0.20575  0.21475  1.0000
  H   H1090     1.0  0.85996  0.11824  0.37202  1.0000
  H   H1091     1.0  0.88635  0.33132  0.11620  1.0000
  C   C1379     1.0  0.96953  0.31454  0.01120  1.0000
  C   C1380     1.0  0.87315  0.38021  0.11034  1.0000
  H   H1092     1.0  0.66773  0.14401  0.15927  1.0000
  H   H1093     1.0  0.93332  0.44458  0.01757  1.0000
  H   H1094     1.0  0.78388  0.13240  0.35000  1.0000
  C   C1381     1.0  0.96590  0.37553  0.11396  1.0000
  H   H1095     1.0  0.86219  0.38930  0.05525  1.0000
  C   C1382     1.0  0.86729  0.07180  0.28991  1.0000
  H   H1096     1.0  0.84526  0.41545  0.27665  1.0000
  H   H1097     1.0  0.88619  0.04217  0.26611  1.0000
  H   H1098     1.0  0.86569  0.20202  0.25766  1.0000
  C   C1383     1.0  0.83677  0.00661  0.37469  1.0000
  S   S194      1.0  0.66297  0.32240  0.23065  1.0000
  H   H1099     1.0  0.86571  0.01930  0.41290  1.0000
  C   C1384     1.0  0.94564  0.41709  0.45791  1.0000
  C   C1385     1.0  0.82233  0.10388  0.37936  1.0000
  H   H1100     1.0  0.87742  0.28477  0.31752  1.0000
  H   H1101     1.0  0.81220  0.23611  0.02341  1.0000
  C   C1386     1.0  0.88087  0.06149  0.43077  1.0000
  H   H1102     1.0  0.92850  0.28999  0.15144  1.0000
  C   C1387     1.0  0.81626  0.40818  0.16729  1.0000
  C   C1388     1.0  0.87142  0.24083  0.29013  1.0000
  C   C1389     1.0  0.82999  0.04912  0.19665  1.0000
  C   C1390     1.0  0.84016  0.06226  0.17511  1.0000
  C   C1391     1.0  0.84596  0.04003  0.15338  1.0000
  C   C1392     1.0  0.81040  0.41447  0.13965  1.0000
  C   C1393     1.0  0.96825  0.40504  0.09769  1.0000
  C   C1394     1.0  0.68395  0.15736  0.35028  1.0000
  H   H1103     1.0  0.98290  0.24221  0.04553  1.0000
  C   C1395     1.0  0.87512  0.42433  0.22468  1.0000
  C   C1396     1.0  0.83469  0.45965  0.05386  1.0000
  H   H1104     1.0  0.68646  0.35884  0.16885  1.0000
  H   H1105     1.0  0.67788  0.30079  0.33844  1.0000
  H   H1106     1.0  0.86685  0.09290  0.27510  1.0000
  C   C1397     1.0  0.80728  0.12428  0.37538  1.0000
  H   H1107     1.0  0.98460  0.42440  0.44620  1.0000
  H   H1108     1.0  0.85030  0.38223  0.00677  1.0000
  H   H1109     1.0  0.70174  0.19283  0.26422  1.0000
  H   H1110     1.0  0.83110  0.11041  0.39688  1.0000
  H   H1111     1.0  0.88263  0.44413  0.21440  1.0000
  H   H1112     1.0  0.89376  0.45772  0.10157  1.0000
  C   C1398     1.0  0.84685  0.43567  0.06496  1.0000
  C   C1399     1.0  0.84003  0.43004  0.12664  1.0000
  C   C1400     1.0  0.86050  0.06725  0.39088  1.0000
  P   P45       1.0  0.84506  0.04875  0.36536  1.0000
  C   C1401     1.0  0.66941  0.23504  0.39751  1.0000
  H   H1113     1.0  0.67333  0.44869  0.26728  1.0000
  H   H1114     1.0  0.82551  0.06628  0.21358  1.0000
  H   H1115     1.0  0.84357  0.08967  0.17534  1.0000
  H   H1116     1.0  0.85393  0.05028  0.13677  1.0000
  H   H1117     1.0  0.81740  0.42965  0.09804  1.0000
  C   C1402     1.0  0.95203  0.37751  0.05874  1.0000
  P   P46       1.0  0.85569  0.44249  0.10046  1.0000
  H   H1118     1.0  0.65584  0.12013  0.32092  1.0000
  H   H1119     1.0  0.78420  0.99572  0.26546  1.0000
  C   C1403     1.0  0.71228  0.15850  0.32733  1.0000
  H   H1120     1.0  0.91972  0.42018  0.10859  1.0000
  H   H1121     1.0  0.66738  0.21717  0.41443  1.0000
  C   C1404     1.0  0.69135  0.19166  0.24823  1.0000
  C   C1405     1.0  0.84576  0.40355  0.02011  1.0000
  C   C1406     1.0  0.67417  0.18446  0.25595  1.0000
  C   C1407     1.0  0.95518  0.48177  0.05820  1.0000
  H   H1122     1.0  0.88783  0.99436  0.30057  1.0000
  H   H1123     1.0  0.80500  0.14675  0.38907  1.0000
  C   C1408     1.0  0.83551  0.23185  0.99868  1.0000
  H   H1124     1.0  0.86288  0.46064  0.25367  1.0000
  C   C1409     1.0  0.69708  0.17562  0.33631  1.0000
  C   C1410     1.0  0.94647  0.48453  0.08407  1.0000
  C   C1411     1.0  0.66409  0.14476  0.41174  1.0000
  H   H1125     1.0  0.94646  0.46313  0.09850  1.0000
  C   C1412     1.0  0.71449  0.12299  0.33191  1.0000
  C   C1413     1.0  0.69503  0.19895  0.22010  1.0000
  C   C1414     1.0  0.82222  0.42535  0.11936  1.0000
  C   C1415     1.0  0.98462  0.28505  0.48568  1.0000
  C   C1416     1.0  0.66333  0.15974  0.14175  1.0000
  H   H1126     1.0  0.91237  0.47719  0.05222  1.0000
  H   H1127     1.0  0.94173  0.40773  0.43694  1.0000
  C   C1417     1.0  0.67341  0.26964  0.40458  1.0000
  C   C1418     1.0  0.94346  0.45215  0.46551  1.0000
  H   H1128     1.0  0.70303  0.07680  0.34848  1.0000
  C   C1419     1.0  0.84152  0.00470  0.15313  1.0000
  H   H1129     1.0  0.95779  0.32713  0.00311  1.0000
  H   H1130     1.0  0.83210  0.02141  0.41833  1.0000
  H   H1131     1.0  0.67822  0.14326  0.40993  1.0000
  H   H1132     1.0  0.97154  0.37448  0.13515  1.0000
  C   C1420     1.0  0.98615  0.32973  0.00744  1.0000
  H   H1133     1.0  0.82906  0.42480  0.98750  1.0000
  H   H1134     1.0  0.67596  0.10644  0.36389  1.0000
  S   S195      1.0  0.91185  0.32201  0.98928  1.0000
  H   H1135     1.0  0.81923  0.47474  0.01743  1.0000
  C   C1421     1.0  0.83379  0.42763  0.00920  1.0000
  H   H1136     1.0  0.65878  0.32719  0.15749  1.0000
  C   C1422     1.0  0.83107  0.99143  0.17452  1.0000
  S   S196      1.0  0.65517  0.33659  0.29910  1.0000
  H   H1137     1.0  0.97586  0.42657  0.10646  1.0000
  H   H1138     1.0  0.87782  0.42409  0.99316  1.0000
  H   H1139     1.0  0.66432  0.12071  0.45261  1.0000
  H   H1140     1.0  0.68112  0.19502  0.47247  1.0000
  C   C1423     1.0  0.87668  0.48039  0.99304  1.0000
  H   H1141     1.0  0.98637  0.26896  0.46688  1.0000
  H   H1142     1.0  0.98666  0.41696  0.99821  1.0000
  H   H1143     1.0  0.65354  0.19299  0.19212  1.0000
  H   H1144     1.0  0.84626  0.98796  0.13624  1.0000
  Fe  Fe100     1.0  0.83723  0.17388  0.79951  1.0000
  S   S197      1.0  0.81184  0.14376  0.79807  1.0000
  S   S198      1.0  0.85399  0.17459  0.84075  1.0000
  Fe  Fe101     1.0  0.83371  0.19214  0.73556  1.0000
  S   S199      1.0  0.80802  0.16330  0.73082  1.0000
  S   S200      1.0  0.84645  0.22818  0.70296  1.0000
  Fe  Fe102     1.0  0.80082  0.18807  0.77252  1.0000
  S   S201      1.0  0.77557  0.21567  0.78658  1.0000
  Fe  Fe103     1.0  0.82104  0.12060  0.75666  1.0000
  S   S202      1.0  0.81719  0.06344  0.74113  1.0000
  S   S203      1.0  0.82578  0.21926  0.77649  1.0000
  S   S204      1.0  0.84713  0.14843  0.75907  1.0000
  Fe  Fe104     1.0  0.88271  0.36121  0.52452  1.0000
  S   S205      1.0  0.89792  0.32916  0.55600  1.0000
  S   S206      1.0  0.87385  0.41637  0.53763  1.0000
  H   H1145     1.0  0.74806  0.28156  0.95713  1.0000
  S   S207      1.0  0.89869  0.26660  0.50785  1.0000
  C   C1424     1.0  0.81456  0.99144  0.73744  1.0000
  Fe  Fe105     1.0  0.88061  0.28430  0.54315  1.0000
  S   S208      1.0  0.86941  0.24281  0.57287  1.0000
  Fe  Fe106     1.0  0.91504  0.31417  0.51921  1.0000
  C   C1425     1.0  0.91286  0.43349  0.60622  1.0000
  S   S209      1.0  0.86383  0.31726  0.51395  1.0000
  C   C1426     1.0  0.93772  0.42550  0.97539  1.0000
  Fe  Fe107     1.0  0.67899  0.28340  0.74284  1.0000
  C   C1427     1.0  0.94789  0.46393  0.49296  1.0000
  S   S210      1.0  0.70315  0.25611  0.72400  1.0000
  H   H1146     1.0  0.77687  0.16103  0.83270  1.0000
  S   S211      1.0  0.67621  0.31247  0.78425  1.0000
  S   S212      1.0  0.66474  0.32513  0.71826  1.0000
  H   H1147     1.0  0.74868  0.09425  0.88742  1.0000
  H   H1148     1.0  0.96213  0.38739  0.52008  1.0000
  C   C1428     1.0  0.88386  0.45641  0.52847  1.0000
  C   C1429     1.0  0.74009  0.23011  0.94350  1.0000
  C   C1430     1.0  0.68692  0.18148  0.76849  1.0000
  C   C1431     1.0  0.69868  0.21795  0.90337  1.0000
  H   H1149     1.0  0.81658  0.07658  0.88391  1.0000
  C   C1432     1.0  0.96505  0.31338  0.51922  1.0000
  H   H1150     1.0  0.67923  0.20575  0.83651  1.0000
  C   C1433     1.0  0.92804  0.42268  0.56225  1.0000
  C   C1434     1.0  0.80631  0.29599  0.85339  1.0000
  H   H1151     1.0  0.80801  0.99607  0.71735  1.0000
  C   C1435     1.0  0.75576  0.22709  0.76825  1.0000
  C   C1436     1.0  0.75174  0.21497  0.74075  1.0000
  C   C1437     1.0  0.73566  0.22429  0.72748  1.0000
  C   C1438     1.0  0.72332  0.24548  0.74159  1.0000
  C   C1439     1.0  0.72736  0.25757  0.76905  1.0000
  C   C1440     1.0  0.74348  0.24850  0.78223  1.0000
  H   H1152     1.0  0.76090  0.19808  0.72984  1.0000
  H   H1153     1.0  0.73268  0.21470  0.70625  1.0000
  H   H1154     1.0  0.71805  0.27397  0.78006  1.0000
  H   H1155     1.0  0.74645  0.25820  0.80341  1.0000
  C   C1441     1.0  0.82050  0.02013  0.75409  1.0000
  C   C1442     1.0  0.82896  0.01337  0.78003  1.0000
  P   P47       1.0  0.66346  0.14800  0.56476  1.0000
  H   H1156     1.0  0.83366  0.03487  0.79318  1.0000
  C   C1443     1.0  0.75055  0.17726  0.84256  1.0000
  C   C1444     1.0  0.85216  0.23199  0.66640  1.0000
  C   C1445     1.0  0.85989  0.26304  0.65741  1.0000
  C   C1446     1.0  0.86507  0.26710  0.62902  1.0000
  C   C1447     1.0  0.86273  0.23999  0.60904  1.0000
  C   C1448     1.0  0.85493  0.20900  0.61800  1.0000
  C   C1449     1.0  0.84958  0.20509  0.64628  1.0000
  H   H1157     1.0  0.86195  0.28415  0.67259  1.0000
  H   H1158     1.0  0.87100  0.29114  0.62266  1.0000
  H   H1159     1.0  0.85299  0.18778  0.60287  1.0000
  H   H1160     1.0  0.84374  0.18098  0.65259  1.0000
  C   C1450     1.0  0.85870  0.20622  0.86820  1.0000
  C   C1451     1.0  0.85210  0.24023  0.86761  1.0000
  C   C1452     1.0  0.85667  0.26449  0.88944  1.0000
  C   C1453     1.0  0.86754  0.25511  0.91256  1.0000
  C   C1454     1.0  0.87405  0.22102  0.91323  1.0000
  C   C1455     1.0  0.86969  0.19687  0.89118  1.0000
  H   H1161     1.0  0.84362  0.24794  0.85020  1.0000
  H   H1162     1.0  0.85175  0.29083  0.88847  1.0000
  H   H1163     1.0  0.88246  0.21323  0.93072  1.0000
  H   H1164     1.0  0.87490  0.17069  0.89197  1.0000
  H   H1165     1.0  0.76679  0.16869  0.91455  1.0000
  H   H1166     1.0  0.68016  0.17937  0.74814  1.0000
  C   C1456     1.0  0.76306  0.19310  0.92450  1.0000
  H   H1167     1.0  0.82250  0.32283  0.88467  1.0000
  S   S213      1.0  0.87202  0.28687  0.94006  1.0000
  C   C1457     1.0  0.97993  0.32588  0.53433  1.0000
  H   H1168     1.0  0.65803  0.26149  0.61604  1.0000
  C   C1458     1.0  0.98600  0.20684  0.64663  1.0000
  H   H1169     1.0  0.76307  0.25722  0.60015  1.0000
  C   C1459     1.0  0.79373  0.24170  0.86801  1.0000
  C   C1460     1.0  0.89667  0.45797  0.50772  1.0000
  H   H1170     1.0  0.73180  0.27393  0.59609  1.0000
  H   H1171     1.0  0.70029  0.26201  0.83090  1.0000
  C   C1461     1.0  0.96774  0.41033  0.96451  1.0000
  H   H1172     1.0  0.90148  0.42961  0.61918  1.0000
  H   H1173     1.0  0.98161  0.30462  0.65951  1.0000
  C   C1462     1.0  0.69572  0.06336  0.55318  1.0000
  C   C1463     1.0  0.79887  0.14146  0.92461  1.0000
  C   C1464     1.0  0.95006  0.41275  0.95624  1.0000
  C   C1465     1.0  0.72325  0.24357  0.85417  1.0000
  C   C1466     1.0  0.81785  0.13117  0.87515  1.0000
  C   C1467     1.0  0.71429  0.11295  0.56411  1.0000
  S   S214      1.0  0.66596  0.41038  0.77217  1.0000
  C   C1468     1.0  0.71244  0.07752  0.55760  1.0000
  C   C1469     1.0  0.68081  0.08455  0.55537  1.0000
  C   C1470     1.0  0.68255  0.12011  0.56222  1.0000
  C   C1471     1.0  0.69941  0.13422  0.56634  1.0000
  H   H1174     1.0  0.94985  0.39562  0.64615  1.0000
  C   C1472     1.0  0.66667  0.17787  0.59460  1.0000
  H   H1175     1.0  0.66997  0.13480  0.90271  1.0000
  C   C1473     1.0  0.77549  0.21939  0.93001  1.0000
  C   C1474     1.0  0.81281  0.10261  0.89077  1.0000
  C   C1475     1.0  0.98044  0.41363  0.58521  1.0000
  H   H1176     1.0  0.78563  0.21924  0.86298  1.0000
  H   H1177     1.0  0.93530  0.23691  0.52495  1.0000
  C   C1476     1.0  0.96203  0.23807  0.66883  1.0000
  P   P48       1.0  0.79835  0.21361  0.92140  1.0000
  H   H1178     1.0  0.67417  0.24174  0.65888  1.0000
  C   C1477     1.0  0.82924  0.47806  0.53017  1.0000
  C   C1478     1.0  0.65997  0.45349  0.76130  1.0000
  S   S215      1.0  0.65464  0.25137  0.74871  1.0000
  C   C1479     1.0  0.68659  0.19625  0.81852  1.0000
  H   H1179     1.0  0.72726  0.12394  0.56748  1.0000
  H   H1180     1.0  0.83642  0.21527  0.92777  1.0000
  C   C1480     1.0  0.68610  0.21358  0.92418  1.0000
  H   H1181     1.0  0.66801  0.07296  0.55186  1.0000
  H   H1182     1.0  0.70104  0.16168  0.57131  1.0000
  C   C1481     1.0  0.81227  0.27515  0.90067  1.0000
  C   C1482     1.0  0.67558  0.16679  0.61917  1.0000
  H   H1183     1.0  0.69429  0.03587  0.54812  1.0000
  H   H1184     1.0  0.92392  0.42685  0.96935  1.0000
  H   H1185     1.0  0.86656  0.48117  0.97667  1.0000
  H   H1186     1.0  0.72291  0.13292  0.88451  1.0000
  H   H1187     1.0  0.79988  0.08564  0.92809  1.0000
  C   C1483     1.0  0.74454  0.28836  0.86725  1.0000
  H   H1188     1.0  0.71220  0.16831  0.75165  1.0000
  H   H1189     1.0  0.78711  0.31534  0.61846  1.0000
  C   C1484     1.0  0.67839  0.18985  0.64213  1.0000
  C   C1485     1.0  0.95714  0.40576  0.50490  1.0000
  H   H1190     1.0  0.72397  0.06100  0.55597  1.0000
  C   C1486     1.0  0.74922  0.11763  0.87508  1.0000
  C   C1487     1.0  0.93598  0.23216  0.54748  1.0000
  H   H1191     1.0  0.71500  0.28905  0.63924  1.0000
  C   C1488     1.0  0.67226  0.22407  0.64084  1.0000
  C   C1489     1.0  0.71814  0.30353  0.84086  1.0000
  C   C1490     1.0  0.67812  0.15784  0.90308  1.0000
  C   C1491     1.0  0.81324  0.16488  0.88396  1.0000
  H   H1192     1.0  0.81788  0.18654  0.87192  1.0000
  H   H1193     1.0  0.70616  0.24180  0.90347  1.0000
  C   C1492     1.0  0.76450  0.12540  0.86063  1.0000
  C   C1493     1.0  0.70108  0.19219  0.88225  1.0000
  H   H1194     1.0  0.68515  0.18121  0.66114  1.0000
  C   C1494     1.0  0.73457  0.13968  0.87327  1.0000
  H   H1195     1.0  0.75124  0.19998  0.82953  1.0000
  H   H1196     1.0  0.80818  0.31517  0.83727  1.0000
  C   C1495     1.0  0.95250  0.20265  0.78036  1.0000
  C   C1496     1.0  0.96223  0.17177  0.78105  1.0000
  C   C1497     1.0  0.95394  0.13996  0.77536  1.0000
  C   C1498     1.0  0.93591  0.13894  0.76914  1.0000
  C   C1499     1.0  0.92599  0.16980  0.76880  1.0000
  C   C1500     1.0  0.93448  0.20173  0.77413  1.0000
  P   P49       1.0  0.90282  0.16886  0.75975  1.0000
  C   C1501     1.0  0.89352  0.12783  0.77006  1.0000
  C   C1502     1.0  0.89190  0.20416  0.77831  1.0000
  C   C1503     1.0  0.89640  0.21230  0.80666  1.0000
  C   C1504     1.0  0.88787  0.23951  0.82100  1.0000
  C   C1505     1.0  0.87482  0.25876  0.80716  1.0000
  C   C1506     1.0  0.87028  0.25082  0.77897  1.0000
  C   C1507     1.0  0.87873  0.22358  0.76462  1.0000
  C   C1508     1.0  0.88455  0.12527  0.79561  1.0000
  C   C1509     1.0  0.87630  0.09427  0.80252  1.0000
  C   C1510     1.0  0.87712  0.06535  0.78419  1.0000
  C   C1511     1.0  0.88649  0.06725  0.75915  1.0000
  C   C1512     1.0  0.89476  0.09826  0.75217  1.0000
  C   C1513     1.0  0.90002  0.17510  0.72210  1.0000
  C   C1514     1.0  0.91100  0.19804  0.70801  1.0000
  C   C1515     1.0  0.90809  0.20473  0.67930  1.0000
  C   C1516     1.0  0.89433  0.18834  0.66438  1.0000
  C   C1517     1.0  0.88343  0.16537  0.67820  1.0000
  C   C1518     1.0  0.88601  0.15930  0.70702  1.0000
  H   H1197     1.0  0.78969  0.26353  0.82676  1.0000
  H   H1198     1.0  0.92978  0.11403  0.76481  1.0000
  H   H1199     1.0  0.92716  0.22595  0.77357  1.0000
  H   H1200     1.0  0.90620  0.19715  0.81792  1.0000
  H   H1201     1.0  0.89101  0.24505  0.84313  1.0000
  H   H1202     1.0  0.86801  0.27937  0.81850  1.0000
  H   H1203     1.0  0.85998  0.26530  0.76824  1.0000
  H   H1204     1.0  0.87477  0.21760  0.74296  1.0000
  H   H1205     1.0  0.88337  0.14734  0.80998  1.0000
  H   H1206     1.0  0.86889  0.09309  0.82184  1.0000
  C   C1519     1.0  0.74547  0.19835  0.93155  1.0000
  C   C1520     1.0  0.73907  0.25372  0.86769  1.0000
  H   H1207     1.0  0.90177  0.09936  0.73250  1.0000
  H   H1208     1.0  0.92148  0.21155  0.71930  1.0000
  H   H1209     1.0  0.91621  0.22325  0.66873  1.0000
  H   H1210     1.0  0.89174  0.19415  0.64233  1.0000
  H   H1211     1.0  0.87254  0.15316  0.66681  1.0000
  H   H1212     1.0  0.87673  0.14300  0.71753  1.0000
  C   C1521     1.0  0.92269  0.21142  0.58993  1.0000
  C   C1522     1.0  0.92197  0.21634  0.56074  1.0000
  H   H1213     1.0  0.96148  0.11600  0.77596  1.0000
  C   C1523     1.0  0.76514  0.15522  0.84438  1.0000
  C   C1524     1.0  0.95153  0.23843  0.59275  1.0000
  C   C1525     1.0  0.93739  0.22240  0.60591  1.0000
  P   P50       1.0  0.96937  0.25735  0.61368  1.0000
  C   C1526     1.0  0.97774  0.19335  0.69445  1.0000
  S   S216      1.0  0.94385  0.32387  0.53224  1.0000
  H   H1214     1.0  0.87034  0.04161  0.78927  1.0000
  C   C1527     1.0  0.67772  0.19174  0.79256  1.0000
  C   C1528     1.0  0.94562  0.35317  0.61642  1.0000
  C   C1529     1.0  0.95041  0.31934  0.60839  1.0000
  C   C1530     1.0  0.75226  0.25680  0.94814  1.0000
  H   H1215     1.0  0.67434  0.47815  0.79594  1.0000
  H   H1216     1.0  0.72796  0.17565  0.79716  1.0000
  H   H1217     1.0  0.91160  0.19984  0.60013  1.0000
  H   H1218     1.0  0.91037  0.20860  0.54854  1.0000
  C   C1531     1.0  0.73512  0.16981  0.85700  1.0000
  H   H1219     1.0  0.93745  0.21894  0.62850  1.0000
  C   C1532     1.0  0.81268  0.22084  0.95191  1.0000
  C   C1533     1.0  0.96668  0.35184  0.65538  1.0000
  C   C1534     1.0  0.67376  0.17490  0.51282  1.0000
  H   H1220     1.0  0.93562  0.36662  0.60421  1.0000
  H   H1221     1.0  0.94385  0.30738  0.59018  1.0000
  C   C1535     1.0  0.66025  0.17168  0.53242  1.0000
  H   H1222     1.0  0.72971  0.28816  0.68635  1.0000
  C   C1536     1.0  0.69063  0.16217  0.88219  1.0000
  C   C1537     1.0  0.66612  0.48246  0.77742  1.0000
  H   H1223     1.0  0.83020  0.23740  0.57133  1.0000
  H   H1224     1.0  0.79208  0.14514  0.94438  1.0000
  H   H1225     1.0  0.69192  0.14244  0.86562  1.0000
  H   H1226     1.0  0.66587  0.18051  0.93989  1.0000
  H   H1227     1.0  0.75696  0.29580  0.87712  1.0000
  H   H1228     1.0  0.74734  0.23492  0.87826  1.0000
  H   H1229     1.0  0.96936  0.41326  0.59908  1.0000
  H   H1230     1.0  0.73840  0.34001  0.85307  1.0000
  C   C1538     1.0  0.94095  0.46051  0.59863  1.0000
  C   C1539     1.0  0.67582  0.18356  0.92404  1.0000
  C   C1540     1.0  0.97958  0.43176  0.55975  1.0000
  C   C1541     1.0  0.80337  0.10775  0.91557  1.0000
  H   H1231     1.0  0.68655  0.16351  0.51672  1.0000
  H   H1232     1.0  0.96094  0.25693  0.55289  1.0000
  C   C1542     1.0  0.95484  0.44079  0.51285  1.0000
  H   H1233     1.0  0.88701  0.04483  0.74490  1.0000
  C   C1543     1.0  0.71389  0.17948  0.79650  1.0000
  H   H1234     1.0  0.68023  0.14023  0.62073  1.0000
  C   C1544     1.0  0.94175  0.44455  0.57163  1.0000
  H   H1235     1.0  0.82571  0.29727  0.55465  1.0000
  C   C1545     1.0  0.92655  0.45497  0.61585  1.0000
  C   C1546     1.0  0.79593  0.26681  0.84744  1.0000
  C   C1547     1.0  0.73411  0.31324  0.85372  1.0000
  H   H1236     1.0  0.82386  0.46577  0.54846  1.0000
  Fe  Fe108     1.0  0.66013  0.35246  0.76027  1.0000
  C   C1548     1.0  0.80333  0.17023  0.90844  1.0000
  C   C1549     1.0  0.80208  0.24544  0.89467  1.0000
  H   H1237     1.0  0.81368  0.21611  0.61154  1.0000
  C   C1550     1.0  0.81437  0.30028  0.88005  1.0000
  H   H1238     1.0  0.77579  0.10816  0.86169  1.0000
  H   H1239     1.0  0.95891  0.22731  0.78490  1.0000
  C   C1551     1.0  0.83786  0.45783  0.50980  1.0000
  H   H1240     1.0  0.72649  0.23408  0.94907  1.0000
  C   C1552     1.0  0.70474  0.18981  0.82081  1.0000
  H   H1241     1.0  0.80400  0.33615  0.57803  1.0000
  H   H1242     1.0  0.97617  0.17247  0.78615  1.0000
  C   C1553     1.0  0.71268  0.26889  0.84117  1.0000
  H   H1243     1.0  0.94586  0.40427  0.93517  1.0000
  C   C1554     1.0  0.95061  0.24337  0.56342  1.0000
  C   C1555     1.0  0.96338  0.30138  0.62378  1.0000
  H   H1244     1.0  0.97821  0.34146  0.55341  1.0000
  P   P51       1.0  0.71630  0.19868  0.85395  1.0000
  H   H1245     1.0  0.95168  0.25749  0.66821  1.0000
  C   C1556     1.0  0.80438  0.15034  0.66123  1.0000
  C   C1557     1.0  0.78985  0.13014  0.65323  1.0000
  C   C1558     1.0  0.77439  0.14619  0.64375  1.0000
  C   C1559     1.0  0.77344  0.18247  0.64226  1.0000
  C   C1560     1.0  0.78793  0.20296  0.65068  1.0000
  C   C1561     1.0  0.80336  0.18661  0.66031  1.0000
  P   P52       1.0  0.78722  0.24977  0.64849  1.0000
  C   C1562     1.0  0.76451  0.26388  0.64579  1.0000
  C   C1563     1.0  0.79771  0.26739  0.68029  1.0000
  C   C1564     1.0  0.79285  0.25541  0.70686  1.0000
  C   C1565     1.0  0.80056  0.26939  0.73160  1.0000
  C   C1566     1.0  0.81385  0.29411  0.73005  1.0000
  C   C1567     1.0  0.81924  0.30528  0.70368  1.0000
  C   C1568     1.0  0.81118  0.29212  0.67887  1.0000
  C   C1569     1.0  0.75487  0.27274  0.67000  1.0000
  C   C1570     1.0  0.73711  0.28179  0.66751  1.0000
  C   C1571     1.0  0.72880  0.28221  0.64093  1.0000
  C   C1572     1.0  0.73827  0.27362  0.61671  1.0000
  C   C1573     1.0  0.75602  0.26439  0.61910  1.0000
  C   C1574     1.0  0.79884  0.26393  0.61780  1.0000
  C   C1575     1.0  0.81109  0.24212  0.60430  1.0000
  C   C1576     1.0  0.82055  0.25411  0.58142  1.0000
  C   C1577     1.0  0.81802  0.28795  0.57200  1.0000
  C   C1578     1.0  0.80582  0.30980  0.58523  1.0000
  C   C1579     1.0  0.79625  0.29787  0.60804  1.0000
  H   H1246     1.0  0.81631  0.13793  0.66893  1.0000
  H   H1247     1.0  0.79056  0.10206  0.65472  1.0000
  H   H1248     1.0  0.76309  0.13049  0.63775  1.0000
  H   H1249     1.0  0.76134  0.19430  0.63487  1.0000
  H   H1250     1.0  0.81457  0.20198  0.66733  1.0000
  H   H1251     1.0  0.78308  0.23526  0.70850  1.0000
  H   H1252     1.0  0.79640  0.26052  0.75199  1.0000
  H   H1253     1.0  0.82023  0.30397  0.74924  1.0000
  H   H1254     1.0  0.82995  0.32356  0.70240  1.0000
  H   H1255     1.0  0.81587  0.30075  0.65877  1.0000
  H   H1256     1.0  0.76076  0.27248  0.69094  1.0000
  H   H1257     1.0  0.81874  0.27905  0.92109  1.0000
  C   C1580     1.0  0.83094  0.22001  0.94850  1.0000
  H   H1258     1.0  0.82574  0.12726  0.85649  1.0000
  C   C1581     1.0  0.76987  0.25154  0.94132  1.0000
  C   C1582     1.0  0.70498  0.17521  0.77050  1.0000
  H   H1259     1.0  0.71003  0.32273  0.83026  1.0000
  H   H1260     1.0  0.77918  0.27246  0.94503  1.0000
  H   H1261     1.0  0.97298  0.36445  0.67360  1.0000
  H   H1262     1.0  0.79199  0.22562  0.98271  1.0000
  C   C1583     1.0  0.97152  0.31793  0.64735  1.0000
  C   C1584     1.0  0.96748  0.29292  0.49479  1.0000
  H   H1263     1.0  0.95620  0.22311  0.71134  1.0000
  H   H1264     1.0  0.66377  0.19730  0.79106  1.0000
  H   H1265     1.0  0.73411  0.48094  0.78937  1.0000
  H   H1266     1.0  0.92815  0.41009  0.54152  1.0000
  H   H1267     1.0  0.90297  0.40101  0.57206  1.0000
  P   P53       1.0  0.95976  0.45446  0.54897  1.0000
  H   H1268     1.0  0.66086  0.37679  0.83526  1.0000
  H   H1269     1.0  0.68400  0.23383  0.94007  1.0000
  H   H1270     1.0  0.73596  0.17785  0.92765  1.0000
  C   C1585     1.0  0.95368  0.36941  0.63996  1.0000
  C   C1586     1.0  0.91367  0.41733  0.57955  1.0000
  H   H1271     1.0  0.90088  0.43433  0.49698  1.0000
  H   H1272     1.0  0.92582  0.46790  0.63639  1.0000
  C   C1587     1.0  0.96451  0.21860  0.69327  1.0000
  H   H1273     1.0  0.97728  0.39986  0.94986  1.0000
  C   C1588     1.0  0.66327  0.23525  0.61661  1.0000
  S   S217      1.0  0.90040  0.34822  0.48846  1.0000
  C   C1589     1.0  0.66042  0.21228  0.59360  1.0000
  H   H1274     1.0  0.97971  0.17833  0.71340  1.0000
  H   H1275     1.0  0.95130  0.47781  0.60613  1.0000
  C   C1590     1.0  0.97277  0.23235  0.64531  1.0000
  H   H1276     1.0  0.72707  0.47404  0.83993  1.0000
  H   H1277     1.0  0.83927  0.43000  0.51243  1.0000
  C   C1591     1.0  0.80595  0.22610  0.97917  1.0000
  H   H1278     1.0  0.85637  0.22570  0.96893  1.0000
  C   C1592     1.0  0.84228  0.22571  0.97177  1.0000
  Fe  Fe109     1.0  0.88684  0.29056  0.98332  1.0000
  H   H1279     1.0  0.98344  0.21098  0.56898  1.0000
  C   C1593     1.0  0.67074  0.19279  0.48765  1.0000
  C   C1594     1.0  0.84501  0.47351  0.48631  1.0000
  Fe  Fe110     1.0  0.82456  0.85127  0.27759  1.0000
  S   S218      1.0  0.84789  0.81712  0.26729  1.0000
  S   S219      1.0  0.83207  0.90964  0.28136  1.0000
  Fe  Fe111     1.0  0.80056  0.78669  0.28012  1.0000
  S   S220      1.0  0.82277  0.74965  0.26975  1.0000
  S   S221      1.0  0.77497  0.75867  0.29133  1.0000
  Fe  Fe112     1.0  0.83878  0.78150  0.30153  1.0000
  S   S222      1.0  0.85969  0.75804  0.33193  1.0000
  Fe  Fe113     1.0  0.83024  0.78762  0.23644  1.0000
  S   S223      1.0  0.83684  0.77994  0.18893  1.0000
  S   S224      1.0  0.81643  0.81701  0.31351  1.0000
  S   S225      1.0  0.80720  0.82342  0.24518  1.0000
  Fe  Fe114     1.0  0.91449  0.65417  0.02204  1.0000
  C   C1595     1.0  0.68802  0.77342  0.18008  1.0000
  S   S226      1.0  0.94375  0.64650  0.03401  1.0000
  Fe  Fe115     1.0  0.87942  0.66319  0.05493  1.0000
  S   S227      1.0  0.86348  0.64756  0.01596  1.0000
  S   S228      1.0  0.86825  0.66677  0.10035  1.0000
  H   H1280     1.0  0.88122  0.98403  0.47421  1.0000
  H   H1281     1.0  0.67293  0.57108  0.32177  1.0000
  C   C1596     1.0  0.70926  0.65387  0.45330  1.0000
  C   C1597     1.0  0.81464  0.81751  0.42891  1.0000
  S   S229      1.0  0.89834  0.61844  0.04833  1.0000
  S   S230      1.0  0.89640  0.70004  0.03101  1.0000
  Fe  Fe116     1.0  0.67150  0.70812  0.25734  1.0000
  C   C1598     1.0  0.69435  0.73643  0.13937  1.0000
  S   S231      1.0  0.69421  0.74638  0.25140  1.0000
  C   C1599     1.0  0.78728  0.57637  0.45169  1.0000
  S   S232      1.0  0.90977  0.65618  0.47999  1.0000
  S   S233      1.0  0.66571  0.67167  0.29271  1.0000
  C   C1600     1.0  0.85309  0.94042  0.21538  1.0000
  H   H1282     1.0  0.70828  0.63016  0.04239  1.0000
  H   H1283     1.0  0.71805  0.67040  0.46583  1.0000
  C   C1601     1.0  0.96461  0.66055  0.02208  1.0000
  C   C1602     1.0  0.70886  0.63849  0.06445  1.0000
  C   C1603     1.0  0.66457  0.58901  0.33340  1.0000
  H   H1284     1.0  0.76443  0.97945  0.19533  1.0000
  C   C1604     1.0  0.77157  0.93163  0.21556  1.0000
  C   C1605     1.0  0.75281  0.75486  0.27857  1.0000
  C   C1606     1.0  0.74475  0.77996  0.26166  1.0000
  C   C1607     1.0  0.72696  0.77647  0.25314  1.0000
  C   C1608     1.0  0.71692  0.74789  0.26139  1.0000
  C   C1609     1.0  0.72503  0.72240  0.27786  1.0000
  C   C1610     1.0  0.74280  0.72607  0.28660  1.0000
  H   H1285     1.0  0.75205  0.80266  0.25595  1.0000
  H   H1286     1.0  0.72083  0.79646  0.24053  1.0000
  H   H1287     1.0  0.71753  0.70023  0.28436  1.0000
  H   H1288     1.0  0.74882  0.70652  0.29978  1.0000
  C   C1611     1.0  0.86064  0.74443  0.36808  1.0000
  C   C1612     1.0  0.84607  0.74579  0.38567  1.0000
  C   C1613     1.0  0.84764  0.73576  0.41429  1.0000
  C   C1614     1.0  0.86367  0.72340  0.42574  1.0000
  C   C1615     1.0  0.87815  0.72127  0.40796  1.0000
  C   C1616     1.0  0.87667  0.73201  0.37951  1.0000
  H   H1289     1.0  0.83358  0.75460  0.37722  1.0000
  H   H1290     1.0  0.83628  0.73749  0.42764  1.0000
  H   H1291     1.0  0.89059  0.71183  0.41623  1.0000
  H   H1292     1.0  0.88806  0.73063  0.36624  1.0000
  C   C1617     1.0  0.85962  0.69889  0.12458  1.0000
  C   C1618     1.0  0.85647  0.68955  0.15275  1.0000
  C   C1619     1.0  0.84965  0.71380  0.17274  1.0000
  C   C1620     1.0  0.84569  0.74790  0.16485  1.0000
  C   C1621     1.0  0.84863  0.75710  0.13659  1.0000
  C   C1622     1.0  0.85557  0.73293  0.11665  1.0000
  H   H1293     1.0  0.85945  0.66335  0.15925  1.0000
  H   H1294     1.0  0.84747  0.70612  0.19427  1.0000
  H   H1295     1.0  0.84556  0.78325  0.13005  1.0000
  H   H1296     1.0  0.85773  0.74061  0.09512  1.0000
  C   C1623     1.0  0.89653  0.51037  0.02567  1.0000
  C   C1624     1.0  0.80905  0.92592  0.12408  1.0000
  C   C1625     1.0  0.66932  0.72426  0.16828  1.0000
  C   C1626     1.0  0.84239  0.92265  0.19537  1.0000
  H   H1297     1.0  0.96414  0.75996  0.09231  1.0000
  H   H1298     1.0  0.83621  0.87200  0.17662  1.0000
  C   C1627     1.0  0.82286  0.95189  0.27533  1.0000
  C   C1628     1.0  0.80479  0.95774  0.27223  1.0000
  H   H1299     1.0  0.98080  0.64071  0.47087  1.0000
  H   H1300     1.0  0.79586  0.93610  0.27332  1.0000
  H   H1301     1.0  0.85142  0.96803  0.21937  1.0000
  C   C1629     1.0  0.87045  0.62134  0.43496  1.0000
  C   C1630     1.0  0.68609  0.61144  0.42167  1.0000
  C   C1631     1.0  0.84721  0.59340  0.47377  1.0000
  H   H1302     1.0  0.81235  0.68229  0.19289  1.0000
  C   C1632     1.0  0.67041  0.59530  0.17719  1.0000
  C   C1633     1.0  0.78486  0.90715  0.22018  1.0000
  H   H1303     1.0  0.85879  0.84075  0.20407  1.0000
  H   H1304     1.0  0.95199  0.61420  0.48029  1.0000
  C   C1634     1.0  0.91199  0.78812  0.00722  1.0000
  C   C1635     1.0  0.93734  0.51505  0.09132  1.0000
  H   H1305     1.0  0.76620  0.69686  0.24369  1.0000
  C   C1636     1.0  0.84259  0.84016  0.44611  1.0000
  C   C1637     1.0  0.66107  0.63567  0.36840  1.0000
  H   H1306     1.0  0.89003  0.58838  0.45426  1.0000
  H   H1307     1.0  0.78263  0.88549  0.23391  1.0000
  H   H1308     1.0  0.92390  0.76198  0.44655  1.0000
  H   H1309     1.0  0.77547  0.75995  0.22609  1.0000
  H   H1310     1.0  0.82818  0.62904  0.45547  1.0000
  H   H1311     1.0  0.77181  0.82327  0.22155  1.0000
  C   C1638     1.0  0.67091  0.72054  0.35441  1.0000
  H   H1312     1.0  0.80586  0.72294  0.15290  1.0000
  H   H1313     1.0  0.89462  0.76034  0.46816  1.0000
  H   H1314     1.0  0.73202  0.61260  0.20925  1.0000
  H   H1315     1.0  0.73785  0.64749  0.11979  1.0000
  C   C1639     1.0  0.67863  0.74361  0.33595  1.0000
  H   H1316     1.0  0.82076  0.69759  0.11148  1.0000
  H   H1317     1.0  0.70678  0.65357  0.21088  1.0000
  C   C1640     1.0  0.87043  0.54198  0.08344  1.0000
  C   C1641     1.0  0.71033  0.66007  0.12129  1.0000
  C   C1642     1.0  0.68134  0.69764  0.37024  1.0000
  H   H1318     1.0  0.71811  0.60658  0.47277  1.0000
  C   C1643     1.0  0.91371  0.77993  0.43968  1.0000
  C   C1644     1.0  0.82638  0.94892  0.36052  1.0000
  C   C1645     1.0  0.93572  0.87245  0.09385  1.0000
  C   C1646     1.0  0.93552  0.89714  0.07257  1.0000
  C   C1647     1.0  0.93606  0.88637  0.04416  1.0000
  C   C1648     1.0  0.93662  0.85090  0.03699  1.0000
  C   C1649     1.0  0.93624  0.82594  0.05822  1.0000
  C   C1650     1.0  0.93628  0.83697  0.08674  1.0000
  P   P54       1.0  0.93815  0.78037  0.04904  1.0000
  C   C1651     1.0  0.92716  0.76997  0.01578  1.0000
  C   C1652     1.0  0.96141  0.77135  0.04774  1.0000
  H   H1319     1.0  0.71110  0.66833  0.14332  1.0000
  H   H1320     1.0  0.70959  0.78141  0.15230  1.0000
  H   H1321     1.0  0.84858  0.65264  0.42113  1.0000
  H   H1322     1.0  0.93562  0.88081  0.11590  1.0000
  H   H1323     1.0  0.81890  0.96503  0.43027  1.0000
  C   C1653     1.0  0.88707  0.82594  0.42190  1.0000
  H   H1324     1.0  0.93519  0.92464  0.07810  1.0000
  C   C1654     1.0  0.65851  0.53228  0.25691  1.0000
  P   P55       1.0  0.82578  0.94561  0.17523  1.0000
  C   C1655     1.0  0.82342  0.96919  0.40902  1.0000
  C   C1656     1.0  0.92747  0.75338  0.07419  1.0000
  C   C1657     1.0  0.91212  0.76489  0.08754  1.0000
  C   C1658     1.0  0.90337  0.74306  0.10585  1.0000
  C   C1659     1.0  0.90960  0.70935  0.11033  1.0000
  C   C1660     1.0  0.92460  0.69744  0.09656  1.0000
  C   C1661     1.0  0.93351  0.71936  0.07856  1.0000
  S   S234      1.0  0.87453  0.55182  0.99286  1.0000
  Fe  Fe117     1.0  0.88127  0.68202  0.99118  1.0000
  H   H1325     1.0  0.66630  0.74013  0.41171  1.0000
  C   C1662     1.0  0.77021  0.80023  0.15177  1.0000
  H   H1326     1.0  0.93688  0.81818  0.10349  1.0000
  C   C1663     1.0  0.77182  0.76416  0.15416  1.0000
  C   C1664     1.0  0.89082  0.90709  0.44088  1.0000
  H   H1327     1.0  0.84817  0.97681  0.27705  1.0000
  C   C1665     1.0  0.84456  0.88656  0.19141  1.0000
  C   C1666     1.0  0.86487  0.58287  0.47365  1.0000
  C   C1667     1.0  0.90373  0.82659  0.40960  1.0000
  C   C1668     1.0  0.69771  0.66860  0.43348  1.0000
  H   H1328     1.0  0.81151  0.89248  0.21266  1.0000
  H   H1329     1.0  0.72138  0.72004  0.34514  1.0000
  H   H1330     1.0  0.90669  0.79037  0.08340  1.0000
  H   H1331     1.0  0.89149  0.75186  0.11604  1.0000
  H   H1332     1.0  0.90248  0.69215  0.12388  1.0000
  H   H1333     1.0  0.92909  0.67090  0.09915  1.0000
  H   H1334     1.0  0.94482  0.70935  0.06746  1.0000
  C   C1669     1.0  0.87638  0.59649  0.45409  1.0000
  H   H1335     1.0  0.67047  0.76077  0.32342  1.0000
  C   C1670     1.0  0.70730  0.72045  0.34814  1.0000
  H   H1336     1.0  0.76117  0.59159  0.46375  1.0000
  H   H1337     1.0  0.68589  0.61156  0.35769  1.0000
  C   C1671     1.0  0.87385  0.89707  0.43198  1.0000
  C   C1672     1.0  0.77199  0.80679  0.20271  1.0000
  C   C1673     1.0  0.87917  0.96000  0.46222  1.0000
  C   C1674     1.0  0.77029  0.82156  0.17606  1.0000
  C   C1675     1.0  0.94542  0.54034  0.04702  1.0000
  H   H1338     1.0  0.68312  0.51030  0.27124  1.0000
  C   C1676     1.0  0.77403  0.77081  0.20520  1.0000
  H   H1339     1.0  0.84647  0.91244  0.43072  1.0000
  H   H1340     1.0  0.93624  0.90550  0.02766  1.0000
  C   C1677     1.0  0.77397  0.74921  0.18091  1.0000
  C   C1678     1.0  0.70927  0.61795  0.45724  1.0000
  H   H1341     1.0  0.78342  0.56943  0.43011  1.0000
  H   H1342     1.0  0.98262  0.55852  0.03012  1.0000
  C   C1679     1.0  0.97942  0.65667  0.04006  1.0000
  C   C1680     1.0  0.86801  0.55985  0.10912  1.0000
  C   C1681     1.0  0.86220  0.54197  0.13261  1.0000
  H   H1343     1.0  0.97784  0.64565  0.06069  1.0000
  C   C1682     1.0  0.96692  0.67478  0.99542  1.0000
  H   H1344     1.0  0.69759  0.69656  0.43101  1.0000
  H   H1345     1.0  0.90667  0.80886  0.02034  1.0000
  C   C1683     1.0  0.80859  0.91192  0.09649  1.0000
  C   C1684     1.0  0.65620  0.72459  0.42096  1.0000
  P   P56       1.0  0.67086  0.66706  0.39280  1.0000
  C   C1685     1.0  0.85865  0.50628  0.13037  1.0000
  H   H1346     1.0  0.87759  0.87241  0.23929  1.0000
  C   C1686     1.0  0.67339  0.75311  0.18562  1.0000
  H   H1347     1.0  0.96368  0.78290  0.00324  1.0000
  C   C1687     1.0  0.82403  0.89997  0.08402  1.0000
  H   H1348     1.0  0.87950  0.63280  0.42044  1.0000
  H   H1349     1.0  0.73985  0.73656  0.18574  1.0000
  H   H1350     1.0  0.90189  0.53422  0.03470  1.0000
  C   C1688     1.0  0.69363  0.65039  0.07768  1.0000
  H   H1351     1.0  0.82425  0.92911  0.34407  1.0000
  H   H1352     1.0  0.81436  0.56274  0.44574  1.0000
  C   C1689     1.0  0.86703  0.50634  0.08120  1.0000
  H   H1353     1.0  0.87054  0.58762  0.11069  1.0000
  Fe  Fe118     1.0  0.65650  0.63324  0.25842  1.0000
  C   C1690     1.0  0.91695  0.80358  0.41839  1.0000
  C   C1691     1.0  0.97077  0.76212  0.07238  1.0000
  C   C1692     1.0  0.80131  0.91131  0.20809  1.0000
  C   C1693     1.0  0.93292  0.74154  0.99933  1.0000
  H   H1354     1.0  0.82121  0.82678  0.47296  1.0000
  H   H1355     1.0  0.82365  0.88897  0.06270  1.0000
  C   C1694     1.0  0.86796  0.88654  0.22683  1.0000
  C   C1695     1.0  0.93684  0.54294  0.07282  1.0000
  C   C1696     1.0  0.84143  0.61887  0.45482  1.0000
  C   C1697     1.0  0.66600  0.64384  0.14551  1.0000
  C   C1698     1.0  0.97049  0.77506  0.02241  1.0000
  H   H1356     1.0  0.70274  0.76122  0.31820  1.0000
  S   S235      1.0  0.86477  0.71150  0.46231  1.0000
  C   C1699     1.0  0.68627  0.64741  0.41718  1.0000
  H   H1357     1.0  0.80894  0.64485  0.08710  1.0000
  H   H1358     1.0  0.76902  0.84951  0.17430  1.0000
  C   C1700     1.0  0.82050  0.81877  0.40114  1.0000
  C   C1701     1.0  0.84869  0.84108  0.41828  1.0000
  H   H1359     1.0  0.92970  0.56655  0.07828  1.0000
  C   C1702     1.0  0.66988  0.50456  0.26398  1.0000
  H   H1360     1.0  0.84182  0.83001  0.37411  1.0000
  P   P57       1.0  0.67476  0.67742  0.12352  1.0000
  H   H1361     1.0  0.70789  0.67876  0.37752  1.0000
  C   C1703     1.0  0.87182  0.86646  0.37435  1.0000
  H   H1362     1.0  0.81206  0.80999  0.38369  1.0000
  C   C1704     1.0  0.83748  0.83028  0.39580  1.0000
  H   H1363     1.0  0.78183  0.61727  0.10431  1.0000
  C   C1705     1.0  0.83998  0.90219  0.09907  1.0000
  P   P58       1.0  0.87043  0.85730  0.41154  1.0000
  C   C1706     1.0  0.87641  0.83985  0.35506  1.0000
  C   C1707     1.0  0.87599  0.84581  0.32600  1.0000
  C   C1708     1.0  0.87081  0.87824  0.31594  1.0000
  C   C1709     1.0  0.86621  0.90489  0.33497  1.0000
  C   C1710     1.0  0.86671  0.89910  0.36410  1.0000
  H   H1364     1.0  0.85299  0.91786  0.13792  1.0000
  H   H1365     1.0  0.87370  0.93606  0.24697  1.0000
  H   H1366     1.0  0.69117  0.61990  0.15552  1.0000
  C   C1711     1.0  0.85736  0.86868  0.20699  1.0000
  C   C1712     1.0  0.68002  0.71513  0.14549  1.0000
  C   C1713     1.0  0.82500  0.92800  0.13944  1.0000
  H   H1367     1.0  0.85195  0.89287  0.08941  1.0000
  H   H1368     1.0  0.78316  0.67853  0.28557  1.0000
  C   C1714     1.0  0.69960  0.69726  0.36662  1.0000
  C   C1715     1.0  0.72481  0.63745  0.07958  1.0000
  H   H1369     1.0  0.69128  0.79531  0.19401  1.0000
  H   H1370     1.0  0.90656  0.84498  0.39330  1.0000
  H   H1371     1.0  0.76678  0.64191  0.14587  1.0000
  Fe  Fe119     1.0  0.88365  0.60563  0.00810  1.0000
  C   C1716     1.0  0.80480  0.57275  0.46056  1.0000
  H   H1372     1.0  0.87904  0.82469  0.31129  1.0000
  H   H1373     1.0  0.86978  0.88240  0.29337  1.0000
  H   H1374     1.0  0.86164  0.92957  0.32692  1.0000
  H   H1375     1.0  0.86259  0.91975  0.37839  1.0000
  H   H1376     1.0  0.90207  0.89081  0.43632  1.0000
  H   H1377     1.0  0.73660  0.62833  0.06925  1.0000
  C   C1717     1.0  0.88392  0.80178  0.44307  1.0000
  C   C1718     1.0  0.69682  0.74369  0.33290  1.0000
  S   S236      1.0  0.66428  0.66861  0.22321  1.0000
  C   C1719     1.0  0.86581  0.92238  0.23105  1.0000
  H   H1378     1.0  0.81439  0.66098  0.28136  1.0000
  H   H1379     1.0  0.85100  0.84829  0.46378  1.0000
  C   C1720     1.0  0.98002  0.61318  0.47511  1.0000
  H   H1380     1.0  0.70235  0.73095  0.12113  1.0000
  H   H1381     1.0  0.76884  0.81162  0.13108  1.0000
  H   H1382     1.0  0.66529  0.75950  0.20362  1.0000
  H   H1383     1.0  0.85123  0.96731  0.45785  1.0000
  H   H1384     1.0  0.82885  0.66351  0.23489  1.0000
  C   C1721     1.0  0.89723  0.77914  0.45202  1.0000
  C   C1722     1.0  0.83384  0.98072  0.35371  1.0000
  H   H1385     1.0  0.76147  0.63357  0.19688  1.0000
  C   C1723     1.0  0.83417  0.98078  0.27458  1.0000
  C   C1724     1.0  0.89344  0.93835  0.45604  1.0000
  H   H1386     1.0  0.87477  0.55584  0.06509  1.0000
  H   H1387     1.0  0.68146  0.65106  0.06550  1.0000
  C   C1725     1.0  0.69426  0.66139  0.10622  1.0000
  H   H1388     1.0  0.84889  0.52083  0.46441  1.0000
  H   H1389     1.0  0.86030  0.55598  0.15246  1.0000
  H   H1390     1.0  0.87122  0.79973  0.45262  1.0000
  H   H1391     1.0  0.71091  0.71523  0.19927  1.0000
  C   C1726     1.0  0.84050  0.91627  0.12661  1.0000
  H   H1392     1.0  0.94490  0.56203  0.03271  1.0000
  C   C1727     1.0  0.69766  0.59676  0.44148  1.0000
  C   C1728     1.0  0.82127  0.94303  0.38822  1.0000
  H   H1393     1.0  0.77134  0.74802  0.13512  1.0000
  C   C1729     1.0  0.85297  0.63242  0.43529  1.0000
  H   H1394     1.0  0.94388  0.72599  0.00657  1.0000
  C   C1730     1.0  0.67720  0.61971  0.15880  1.0000
  C   C1731     1.0  0.81504  0.66995  0.23653  1.0000
  C   C1732     1.0  0.80690  0.66845  0.26270  1.0000
  C   C1733     1.0  0.78931  0.67821  0.26507  1.0000
  C   C1734     1.0  0.77976  0.68896  0.24123  1.0000
  C   C1735     1.0  0.78771  0.68998  0.21471  1.0000
  C   C1736     1.0  0.80556  0.68090  0.21266  1.0000
  P   P59       1.0  0.77487  0.70250  0.18390  1.0000
  C   C1737     1.0  0.78509  0.68439  0.15256  1.0000
  C   C1738     1.0  0.75285  0.68629  0.18906  1.0000
  C   C1739     1.0  0.75039  0.65132  0.19604  1.0000
  C   C1740     1.0  0.73377  0.63941  0.20331  1.0000
  C   C1741     1.0  0.71953  0.66241  0.20423  1.0000
  C   C1742     1.0  0.72186  0.69723  0.19750  1.0000
  C   C1743     1.0  0.73838  0.70917  0.18983  1.0000
  C   C1744     1.0  0.80030  0.70005  0.14232  1.0000
  C   C1745     1.0  0.80882  0.68577  0.11884  1.0000
  C   C1746     1.0  0.80216  0.65598  0.10515  1.0000
  C   C1747     1.0  0.78691  0.64047  0.11491  1.0000
  C   C1748     1.0  0.77840  0.65456  0.13855  1.0000
  H   H1395     1.0  0.66529  0.74473  0.09864  1.0000
  H   H1396     1.0  0.93049  0.51700  0.11116  1.0000
  C   C1749     1.0  0.72553  0.64822  0.10801  1.0000
  H   H1397     1.0  0.81529  0.91847  0.39334  1.0000
  H   H1398     1.0  0.87967  0.81402  0.36234  1.0000
  H   H1399     1.0  0.92971  0.80399  0.40872  1.0000
  H   H1400     1.0  0.67908  0.57725  0.18801  1.0000
  C   C1750     1.0  0.69840  0.76532  0.15677  1.0000
  C   C1751     1.0  0.67183  0.61188  0.35381  1.0000
  S   S237      1.0  0.66661  0.57617  0.25945  1.0000
  H   H1401     1.0  0.65772  0.70931  0.17265  1.0000
  H   H1402     1.0  0.86891  0.49301  0.06106  1.0000
  H   H1403     1.0  0.65675  0.71986  0.35586  1.0000
  C   C1752     1.0  0.77475  0.58880  0.47066  1.0000
  H   H1404     1.0  0.85398  0.49313  0.14872  1.0000
  C   C1753     1.0  0.88337  0.51174  0.00466  1.0000
  H   H1405     1.0  0.69747  0.56898  0.44483  1.0000
  C   C1754     1.0  0.95447  0.50984  0.03965  1.0000
  C   C1755     1.0  0.84355  0.50947  0.48310  1.0000
  H   H1406     1.0  0.80161  0.80785  0.43300  1.0000
  C   C1756     1.0  0.65484  0.68880  0.41469  1.0000
  C   C1757     1.0  0.98364  0.68653  0.98753  1.0000
  H   H1407     1.0  0.93748  0.84298  0.01491  1.0000
  C   C1758     1.0  0.86228  0.95053  0.45304  1.0000
  C   C1759     1.0  0.86095  0.48821  0.10454  1.0000
  C   C1760     1.0  0.85962  0.91929  0.43786  1.0000
  C   C1761     1.0  0.65697  0.72478  0.08916  1.0000
  C   C1762     1.0  0.65854  0.68993  0.09716  1.0000
  H   H1408     1.0  0.67687  0.59470  0.41026  1.0000
  C   C1763     1.0  0.82568  0.82819  0.45140  1.0000
  H   H1409     1.0  0.90656  0.94568  0.46312  1.0000
  C   C1764     1.0  0.80454  0.93995  0.19101  1.0000
  C   C1765     1.0  0.96379  0.59824  0.48043  1.0000
  H   H1410     1.0  0.91328  0.49127  0.48379  1.0000
  H   H1411     1.0  0.96088  0.50808  0.01942  1.0000
  H   H1412     1.0  0.98370  0.73177  0.48146  1.0000
  H   H1413     1.0  0.75898  0.92877  0.22552  1.0000
  H   H1414     1.0  0.79623  0.91027  0.08478  1.0000
  H   H1415     1.0  0.79693  0.93496  0.13328  1.0000
  H   H1416     1.0  0.83695  0.98521  0.33190  1.0000
  H   H1417     1.0  0.65513  0.85704  0.32106  1.0000
  C   C1766     1.0  0.79102  0.96423  0.18621  1.0000
  C   C1767     1.0  0.77465  0.96016  0.19858  1.0000
  H   H1418     1.0  0.97667  0.59810  0.98692  1.0000
  H   H1419     1.0  0.79317  0.98658  0.17317  1.0000
  Fe  Fe120     1.0  0.82443  0.84771  0.77517  1.0000
  S   S238      1.0  0.84747  0.81273  0.76467  1.0000
  S   S239      1.0  0.82907  0.90660  0.78496  1.0000
  Fe  Fe121     1.0  0.79944  0.78397  0.77769  1.0000
  S   S240      1.0  0.82101  0.74576  0.76697  1.0000
  S   S241      1.0  0.77244  0.76661  0.79359  1.0000
  Fe  Fe122     1.0  0.83798  0.77668  0.79831  1.0000
  S   S242      1.0  0.85784  0.74750  0.82717  1.0000
  Fe  Fe123     1.0  0.82916  0.78417  0.73413  1.0000
  S   S243      1.0  0.83463  0.77249  0.68664  1.0000
  S   S244      1.0  0.81609  0.81294  0.81066  1.0000
  S   S245      1.0  0.80634  0.82102  0.74312  1.0000
  Fe  Fe124     1.0  0.92417  0.68638  0.51451  1.0000
  H   H1420     1.0  0.76482  0.54072  0.86239  1.0000
  C   C1768     1.0  0.65822  0.81986  0.73725  1.0000
  Fe  Fe125     1.0  0.89359  0.67891  0.55643  1.0000
  S   S246      1.0  0.87760  0.64745  0.52423  1.0000
  S   S247      1.0  0.88692  0.68757  0.60386  1.0000
  Fe  Fe126     1.0  0.90276  0.61887  0.51435  1.0000
  C   C1769     1.0  0.92185  0.84017  0.70545  1.0000
  H   H1421     1.0  0.69029  0.60348  0.69379  1.0000
  C   C1770     1.0  0.70457  0.58659  0.76077  1.0000
  S   S248      1.0  0.91849  0.64781  0.54811  1.0000
  S   S249      1.0  0.90053  0.71987  0.52498  1.0000
  Fe  Fe127     1.0  0.67386  0.68722  0.74958  1.0000
  H   H1422     1.0  0.93286  0.53656  0.95767  1.0000
  S   S250      1.0  0.70171  0.70358  0.73746  1.0000
  H   H1423     1.0  0.75910  0.60374  0.85596  1.0000
  C   C1771     1.0  0.88904  0.74078  0.76753  1.0000
  S   S251      1.0  0.66634  0.64761  0.78158  1.0000
  H   H1424     1.0  0.68336  0.66353  0.84468  1.0000
  H   H1425     1.0  0.88603  0.72175  0.78331  1.0000
  C   C1772     1.0  0.96251  0.50106  0.55199  1.0000
  C   C1773     1.0  0.97241  0.69674  0.51104  1.0000
  C   C1774     1.0  0.68088  0.76952  0.80289  1.0000
  C   C1775     1.0  0.97621  0.67148  0.53114  1.0000
  C   C1776     1.0  0.93165  0.83445  0.73043  1.0000
  C   C1777     1.0  0.85332  0.87447  0.71270  1.0000
  C   C1778     1.0  0.75272  0.75006  0.77735  1.0000
  C   C1779     1.0  0.73837  0.74254  0.79456  1.0000
  C   C1780     1.0  0.72263  0.72848  0.78289  1.0000
  C   C1781     1.0  0.72102  0.72183  0.75372  1.0000
  C   C1782     1.0  0.73533  0.72953  0.73652  1.0000
  C   C1783     1.0  0.75106  0.74355  0.74819  1.0000
  H   H1426     1.0  0.73946  0.74751  0.81713  1.0000
  H   H1427     1.0  0.71189  0.72241  0.79649  1.0000
  H   H1428     1.0  0.73426  0.72455  0.71393  1.0000
  H   H1429     1.0  0.76191  0.74918  0.73461  1.0000
  C   C1784     1.0  0.85980  0.73979  0.86447  1.0000
  C   C1785     1.0  0.85044  0.75903  0.88468  1.0000
  C   C1786     1.0  0.85296  0.75276  0.91392  1.0000
  C   C1787     1.0  0.86460  0.72675  0.92356  1.0000
  C   C1788     1.0  0.87395  0.70746  0.90334  1.0000
  C   C1789     1.0  0.87162  0.71406  0.87411  1.0000
  H   H1430     1.0  0.84143  0.77912  0.87782  1.0000
  H   H1431     1.0  0.84579  0.76822  0.92922  1.0000
  H   H1432     1.0  0.88314  0.68776  0.91026  1.0000
  H   H1433     1.0  0.87911  0.69919  0.85883  1.0000
  C   C1790     1.0  0.87190  0.71092  0.62632  1.0000
  C   C1791     1.0  0.87387  0.70849  0.65597  1.0000
  C   C1792     1.0  0.86257  0.72670  0.67467  1.0000
  C   C1793     1.0  0.84912  0.74800  0.66408  1.0000
  C   C1794     1.0  0.84702  0.75014  0.63442  1.0000
  C   C1795     1.0  0.85822  0.73170  0.61569  1.0000
  H   H1434     1.0  0.88426  0.69238  0.66457  1.0000
  H   H1435     1.0  0.86420  0.72424  0.69729  1.0000
  H   H1436     1.0  0.83665  0.76632  0.62583  1.0000
  H   H1437     1.0  0.85640  0.73390  0.59305  1.0000
  C   C1796     1.0  0.88589  0.51995  0.53491  1.0000
  C   C1797     1.0  0.89858  0.52145  0.51399  1.0000
  C   C1798     1.0  0.77681  0.66537  0.77515  1.0000
  H   H1438     1.0  0.88191  0.54361  0.54576  1.0000
  H   H1439     1.0  0.70059  0.57185  0.77879  1.0000
  H   H1440     1.0  0.66722  0.81109  0.87470  1.0000
  C   C1799     1.0  0.82537  0.94999  0.77241  1.0000
  H   H1441     1.0  0.98492  0.49387  0.95382  1.0000
  H   H1442     1.0  0.79698  0.58732  0.78420  1.0000
  H   H1443     1.0  0.81211  0.93528  0.73341  1.0000
  S   S252      1.0  0.65741  0.66172  0.71458  1.0000
  C   C1800     1.0  0.88892  0.89198  0.71217  1.0000
  C   C1801     1.0  0.72874  0.49984  0.83159  1.0000
  H   H1444     1.0  0.72323  0.52618  0.87112  1.0000
  H   H1445     1.0  0.88543  0.78430  0.79624  1.0000
  H   H1446     1.0  0.89885  0.74611  0.69805  1.0000
  H   H1447     1.0  0.92872  0.71034  0.96137  1.0000
  P   P60       1.0  0.82196  0.63583  0.86125  1.0000
  C   C1802     1.0  0.83075  0.63492  0.82597  1.0000
  H   H1448     1.0  0.70181  0.70656  0.87128  1.0000
  C   C1803     1.0  0.83124  0.60389  0.80977  1.0000
  C   C1804     1.0  0.83821  0.60356  0.78256  1.0000
  C   C1805     1.0  0.84492  0.63409  0.77150  1.0000
  C   C1806     1.0  0.84481  0.66484  0.78775  1.0000
  H   H1449     1.0  0.69696  0.62161  0.81155  1.0000
  C   C1807     1.0  0.83891  0.62266  0.88619  1.0000
  C   C1808     1.0  0.83440  0.60908  0.91245  1.0000
  C   C1809     1.0  0.84753  0.59911  0.93181  1.0000
  C   C1810     1.0  0.86520  0.60272  0.92515  1.0000
  C   C1811     1.0  0.86978  0.61647  0.89921  1.0000
  C   C1812     1.0  0.85670  0.62658  0.87982  1.0000
  C   C1813     1.0  0.94858  0.84810  0.73380  1.0000
  C   C1814     1.0  0.79287  0.54688  0.86596  1.0000
  H   H1450     1.0  0.82633  0.57993  0.81805  1.0000
  H   H1451     1.0  0.83852  0.57962  0.77006  1.0000
  H   H1452     1.0  0.85033  0.63396  0.75044  1.0000
  H   H1453     1.0  0.82078  0.60665  0.91815  1.0000
  H   H1454     1.0  0.84413  0.58886  0.95218  1.0000
  H   H1455     1.0  0.97022  0.74191  0.60537  1.0000
  H   H1456     1.0  0.88349  0.61991  0.89435  1.0000
  H   H1457     1.0  0.86056  0.63796  0.86015  1.0000
  C   C1815     1.0  0.79981  0.73308  0.85761  1.0000
  H   H1458     1.0  0.80373  0.64862  0.77292  1.0000
  C   C1816     1.0  0.75950  0.65550  0.77993  1.0000
  H   H1459     1.0  0.74793  0.66460  0.83271  1.0000
  H   H1460     1.0  0.95168  0.88875  0.67087  1.0000
  C   C1817     1.0  0.89582  0.79062  0.72657  1.0000
  C   C1818     1.0  0.77242  0.59432  0.85878  1.0000
  H   H1461     1.0  0.92176  0.86488  0.66472  1.0000
  H   H1462     1.0  0.83345  0.68263  0.56039  1.0000
  C   C1819     1.0  0.88439  0.81374  0.64661  1.0000
  C   C1820     1.0  0.92917  0.85996  0.68406  1.0000
  C   C1821     1.0  0.73449  0.53694  0.79210  1.0000
  H   H1463     1.0  0.98284  0.76029  0.65223  1.0000
  H   H1464     1.0  0.83955  0.86754  0.71340  1.0000
  P   P61       1.0  0.89985  0.82340  0.70065  1.0000
  H   H1465     1.0  0.87379  0.83048  0.65340  1.0000
  H   H1466     1.0  0.82489  0.67902  0.91383  1.0000
  C   C1822     1.0  0.73496  0.84308  0.74426  1.0000
  C   C1823     1.0  0.74590  0.83783  0.76786  1.0000
  C   C1824     1.0  0.73862  0.83124  0.79409  1.0000
  C   C1825     1.0  0.72040  0.82932  0.79672  1.0000
  C   C1826     1.0  0.70931  0.83399  0.77300  1.0000
  C   C1827     1.0  0.71672  0.84153  0.74684  1.0000
  P   P62       1.0  0.68573  0.83266  0.77647  1.0000
  C   C1828     1.0  0.68064  0.80583  0.80617  1.0000
  C   C1829     1.0  0.67713  0.87625  0.78157  1.0000
  C   C1830     1.0  0.68054  0.93896  0.77896  1.0000
  H   H1467     1.0  0.73722  0.53953  0.76981  1.0000
  H   H1468     1.0  0.82588  0.64852  0.51691  1.0000
  C   C1831     1.0  0.67048  0.76347  0.85062  1.0000
  C   C1832     1.0  0.94952  0.55896  0.55309  1.0000
  C   C1833     1.0  0.97904  0.51582  0.55790  1.0000
  C   C1834     1.0  0.67636  0.82069  0.83261  1.0000
  C   C1835     1.0  0.67569  0.81229  0.74523  1.0000
  C   C1836     1.0  0.68498  0.78714  0.72948  1.0000
  C   C1837     1.0  0.81170  0.72683  0.90505  1.0000
  C   C1838     1.0  0.89288  0.73021  0.73985  1.0000
  C   C1839     1.0  0.80294  0.74680  0.88482  1.0000
  H   H1469     1.0  0.80293  0.68941  0.82926  1.0000
  H   H1470     1.0  0.74066  0.84800  0.72392  1.0000
  H   H1471     1.0  0.76007  0.83825  0.76580  1.0000
  H   H1472     1.0  0.74722  0.82660  0.81219  1.0000
  H   H1473     1.0  0.71509  0.82376  0.81718  1.0000
  H   H1474     1.0  0.70842  0.84589  0.72837  1.0000
  C   C1840     1.0  0.77565  0.55889  0.86239  1.0000
  H   H1475     1.0  0.77971  0.69212  0.77005  1.0000
  H   H1476     1.0  0.78352  0.64495  0.85525  1.0000
  C   C1841     1.0  0.89629  0.75499  0.71942  1.0000
  H   H1477     1.0  0.66589  0.74709  0.86733  1.0000
  S   S253      1.0  0.90865  0.56114  0.50420  1.0000
  H   H1478     1.0  0.68230  0.56940  0.73535  1.0000
  H   H1479     1.0  0.69825  0.77986  0.73554  1.0000
  H   H1480     1.0  0.81448  0.73773  0.92600  1.0000
  H   H1481     1.0  0.85021  0.68858  0.77952  1.0000
  S   S254      1.0  0.86714  0.72032  0.96097  1.0000
  C   C1842     1.0  0.84718  0.58551  0.55410  1.0000
  P   P63       1.0  0.73310  0.60932  0.79430  1.0000
  C   C1843     1.0  0.72340  0.64048  0.81875  1.0000
  C   C1844     1.0  0.71980  0.60722  0.76208  1.0000
  C   C1845     1.0  0.72436  0.62600  0.73816  1.0000
  C   C1846     1.0  0.71383  0.62435  0.71356  1.0000
  C   C1847     1.0  0.69868  0.60403  0.71259  1.0000
  H   H1482     1.0  0.70025  0.90225  0.76642  1.0000
  C   C1848     1.0  0.73382  0.66411  0.83473  1.0000
  C   C1849     1.0  0.72604  0.68791  0.85352  1.0000
  C   C1850     1.0  0.70786  0.68789  0.85696  1.0000
  C   C1851     1.0  0.69747  0.66377  0.84187  1.0000
  C   C1852     1.0  0.70521  0.64018  0.82289  1.0000
  C   C1853     1.0  0.88382  0.80020  0.61891  1.0000
  H   H1483     1.0  0.73410  0.70668  0.86516  1.0000
  C   C1854     1.0  0.94689  0.53922  0.96152  1.0000
  C   C1855     1.0  0.66170  0.51697  0.76994  1.0000
  H   H1484     1.0  0.73568  0.64278  0.73843  1.0000
  H   H1485     1.0  0.71708  0.63999  0.69562  1.0000
  C   C1856     1.0  0.83782  0.66517  0.81486  1.0000
  H   H1486     1.0  0.76668  0.56983  0.79340  1.0000
  C   C1857     1.0  0.81451  0.67927  0.87065  1.0000
  C   C1858     1.0  0.95362  0.57033  0.97293  1.0000
  H   H1487     1.0  0.83802  0.68907  0.82726  1.0000
  C   C1859     1.0  0.81762  0.69333  0.89798  1.0000
  Fe  Fe128     1.0  0.88581  0.68704  0.49207  1.0000
  C   C1860     1.0  0.80545  0.69942  0.85055  1.0000
  C   C1861     1.0  0.97166  0.57369  0.97818  1.0000
  C   C1862     1.0  0.80374  0.60598  0.86241  1.0000
  H   H1488     1.0  0.89130  0.82828  0.76049  1.0000
  H   H1489     1.0  0.95585  0.67696  0.98092  1.0000
  H   H1490     1.0  0.82016  0.56053  0.86869  1.0000
  C   C1863     1.0  0.67702  0.77009  0.70617  1.0000
  C   C1864     1.0  0.73222  0.56663  0.80952  1.0000
  C   C1865     1.0  0.80687  0.57029  0.86596  1.0000
  H   H1491     1.0  0.88021  0.94396  0.72321  1.0000
  C   C1866     1.0  0.89200  0.80096  0.75449  1.0000
  C   C1867     1.0  0.76922  0.59655  0.78826  1.0000
  C   C1868     1.0  0.78639  0.61776  0.85851  1.0000
  H   H1492     1.0  0.76998  0.60661  0.51340  1.0000
  H   H1493     1.0  0.79324  0.74880  0.84183  1.0000
  H   H1494     1.0  0.79884  0.77315  0.89004  1.0000
  C   C1869     1.0  0.88872  0.77613  0.77486  1.0000
  C   C1870     1.0  0.75554  0.62116  0.78694  1.0000
  H   H1495     1.0  0.82095  0.52935  0.54292  1.0000
  C   C1871     1.0  0.87628  0.91746  0.71827  1.0000
  H   H1496     1.0  0.89290  0.70281  0.73405  1.0000
  C   C1872     1.0  0.78652  0.60641  0.78320  1.0000
  H   H1497     1.0  0.92097  0.75104  0.62042  1.0000
  C   C1873     1.0  0.91102  0.76920  0.62763  1.0000
  C   C1874     1.0  0.68721  0.90532  0.77482  1.0000
  C   C1875     1.0  0.83141  0.97867  0.78899  1.0000
  H   H1498     1.0  0.92269  0.77613  0.66906  1.0000
  H   H1499     1.0  0.67502  0.72055  0.82167  1.0000
  H   H1500     1.0  0.74917  0.67477  0.77837  1.0000
  H   H1501     1.0  0.68484  0.75735  0.78314  1.0000
  C   C1876     1.0  0.79034  0.64086  0.77681  1.0000
  H   H1502     1.0  0.96558  0.65969  0.54225  1.0000
  C   C1877     1.0  0.65967  0.77773  0.69847  1.0000
  C   C1878     1.0  0.88380  0.85745  0.70636  1.0000
  C   C1879     1.0  0.95580  0.86763  0.71235  1.0000
  C   C1880     1.0  0.66377  0.94388  0.78987  1.0000
  H   H1503     1.0  0.84874  0.92822  0.72395  1.0000
  H   H1504     1.0  0.95608  0.84354  0.75311  1.0000
  C   C1881     1.0  0.91179  0.78311  0.65522  1.0000
  C   C1882     1.0  0.85850  0.90868  0.71862  1.0000
  C   C1883     1.0  0.86591  0.84892  0.70676  1.0000
  H   H1505     1.0  0.85010  0.65522  0.59961  1.0000
  C   C1884     1.0  0.83693  0.65531  0.55881  1.0000
  C   C1885     1.0  0.90952  0.75134  0.96502  1.0000
  C   C1886     1.0  0.89838  0.80521  0.66505  1.0000
  C   C1887     1.0  0.96608  0.57349  0.55826  1.0000
  P   P64       1.0  0.83255  0.57643  0.49961  1.0000
  C   C1888     1.0  0.89707  0.77782  0.60947  1.0000
  H   H1506     1.0  0.94487  0.59190  0.97790  1.0000
  C   C1889     1.0  0.83263  0.63587  0.53429  1.0000
  H   H1507     1.0  0.80077  0.59987  0.52935  1.0000
  H   H1508     1.0  0.85936  0.59359  0.59532  1.0000
  C   C1890     1.0  0.98310  0.54563  0.97279  1.0000
  C   C1891     1.0  0.79724  0.59374  0.50751  1.0000
  H   H1509     1.0  0.86171  0.82232  0.70288  1.0000
  C   C1892     1.0  0.73274  0.50371  0.80311  1.0000
  H   H1510     1.0  0.87277  0.80609  0.60502  1.0000
  C   C1893     1.0  0.84636  0.63990  0.58093  1.0000
  C   C1894     1.0  0.85154  0.60508  0.57852  1.0000
  C   C1895     1.0  0.66024  0.88147  0.79242  1.0000
  C   C1896     1.0  0.72828  0.56252  0.83818  1.0000
  H   H1511     1.0  0.94546  0.49082  0.49861  1.0000
  C   C1897     1.0  0.67560  0.74848  0.82489  1.0000
  C   C1898     1.0  0.83748  0.60065  0.53194  1.0000
  C   C1899     1.0  0.98421  0.74635  0.60794  1.0000
  H   H1512     1.0  0.92637  0.81942  0.74734  1.0000
  C   C1900     1.0  0.69412  0.58501  0.73613  1.0000
  H   H1513     1.0  0.68842  0.96124  0.77376  1.0000
  H   H1514     1.0  0.83800  0.97399  0.80904  1.0000
  H   H1515     1.0  0.89622  0.76616  0.58838  1.0000
  H   H1516     1.0  0.66645  0.53870  0.78277  1.0000
  C   C1901     1.0  0.83534  0.53016  0.50389  1.0000
  C   C1902     1.0  0.94610  0.87356  0.68749  1.0000
  H   H1517     1.0  0.93473  0.51219  0.54588  1.0000
  H   H1518     1.0  0.72623  0.58487  0.85205  1.0000
  C   C1903     1.0  0.80997  0.58203  0.48838  1.0000
  H   H1519     1.0  0.68420  0.75015  0.69459  1.0000
  H   H1520     1.0  0.96891  0.87821  0.71504  1.0000
  H   H1521     1.0  0.96747  0.60145  0.56028  1.0000
  H   H1522     1.0  0.90258  0.74394  0.94556  1.0000
  H   H1523     1.0  0.90260  0.89929  0.71257  1.0000
  C   C1904     1.0  0.90381  0.49030  0.50041  1.0000
  C   C1905     1.0  0.81686  0.95677  0.74652  1.0000
  S   S255      1.0  0.95053  0.71082  0.50333  1.0000
  H   H1524     1.0  0.67690  0.84852  0.83629  1.0000
  H   H1525     1.0  0.85178  0.55893  0.55238  1.0000
  C   C1906     1.0  0.97813  0.54259  0.48766  1.0000
  C   C1907     1.0  0.98083  0.55195  0.56070  1.0000
  H   H1526     1.0  0.87532  0.59515  0.94030  1.0000
  H   H1527     1.0  0.65866  0.96998  0.79314  1.0000
  H   H1528     1.0  0.93805  0.57561  0.55101  1.0000
  C   C1908     1.0  0.95827  0.51180  0.95471  1.0000
  C   C1909     1.0  0.72657  0.52922  0.84913  1.0000
  S   S256      1.0  0.90056  0.63881  0.98096  1.0000
  H   H1529     1.0  0.98515  0.69839  0.96717  1.0000
  C   C1910     1.0  0.94772  0.52292  0.54998  1.0000
  C   C1911     1.0  0.67109  0.79955  0.85463  1.0000
  H   H1530     1.0  0.79541  0.51940  0.86877  1.0000
  C   C1912     1.0  0.82782  0.51405  0.52710  1.0000
  C   C1913     1.0  0.77972  0.59733  0.49859  1.0000
  C   C1914     1.0  0.92426  0.73247  0.97390  1.0000
  C   C1915     1.0  0.97635  0.51507  0.96000  1.0000
  C   C1916     1.0  0.65363  0.91514  0.79659  1.0000
  H   H1531     1.0  0.97721  0.51583  0.49391  1.0000
  H   H1532     1.0  0.95017  0.55185  0.49118  1.0000
  H   H1533     1.0  0.89136  0.79236  0.97537  1.0000
  H   H1534     1.0  0.86985  0.56448  0.48892  1.0000
  C   C1917     1.0  0.87850  0.48766  0.54194  1.0000
  C   C1918     1.0  0.98645  0.71213  0.49699  1.0000
  C   C1919     1.0  0.96283  0.56297  0.48659  1.0000
  C   C1920     1.0  0.90327  0.77889  0.98181  1.0000
  H   H1535     1.0  0.86859  0.48685  0.55798  1.0000
  H   H1536     1.0  0.95306  0.48802  0.94524  1.0000
