data_image0
_chemical_formula_structural       FeSHFeS2HC4H2PC2HC2HCHCHC4HCH4C3H2SFeH3CSC2FeHFeC3HSC3SH2C2SCHCSC2HCH3C3H2CHCHPCHCH2SCH4C3H2SFeS2FeS2FeCFeS3HCH2CH2SH4SCHFeS2FeS2FeS2FeSFeS3C2SC3H2CHC2HC7H4C7H3C6H5C3HC2HCHC4PHCH3CHC3H3CFeH4C4PC2H2CHCHC4PC18H18C4H2SC2HCHCPH4CHC2H4PCHC2H2C4H2C4HC3HC5HC6HCH2CH3CH5C3HC2H6CH3CH2C4HC2H3C3HC2H2C4HC3HCH2C4HC2HC4HC2HC2HC2HSH4CH4C7HCPCHCH3CH2C2H2CPCHC3HCHC4H2CHSCH2FeS2FeS2FeSFeS3FeS2FeS2FeHFeS3HCH3SHC2HC6H4C6H4CH2C2HCHC6H5CHCH2C9H2CHC9H8PC5HC3H5CHC5HC6HC2HCH3CHC6PC4HC9H8CH5CSH2CHCH2CH2PHC2H2C3HCPH3SHC3HC2HC4H2C4H3C4HC2H2CHCHC2H2FeHCHC2HSC4H3SHCHC4HC2H2C2HCHFeH6C2HC5HCH2C2HC3H2C3HCHCH2C2HCHCH4C2FeSH3CHC2HCHCH2CSHFeS2CSFeSFeS3C8H5FeHCFeH10C3SCHC4HCHCH5C2HC3PC7HC2H2CHC5H4C2H4CHCHC2H3CH4C5PC3HFeS2FeSCHC7H2CHFeS2CHC4HCH2CH3C4HC2H2CH2C9H3SHPC2H6CH5CHCH2C8HCH2CH2C4H2SHC2HCH2C3HCFeS2FeS2CHC4H2C2H2C7HCHC2H2C2H2SFeS2FeS2FeS2FeS2FeS2FeS2C6H2C4H2C6HCH2C4H2C6FeH4C3HPC3HC2HC4H2CH3CH10C5PHC4H6CH11C3H2C4H2CH2C6PC15H5CH8C6H6C6HPC5HC2H3C2H3CH2C2HC2HPH2C6H2CH2CHCHCHC2HCHCPH2C5H3CHCHC2HC3H3C2HCH2CH2C2HCHC6HC2HC9HC2HC2HC2H2CPCH3SC3H2C2H5CPCHCHC4H2C3HCSHCH5C3HCHCS2HCH2CHCH3C2H2CHFeS2FeS3FeS2FeS3C4H3CHC2H6C3H2C3H5FeS2FeHSFeSFeS2C2H2C6PH4C3H2CH2C3H2C2HC2HC5PC3HC2H3C2HCH2C3PC4H3CHC4H3C2HCHCH3C7HC3H4C2H3CHCH2FeCHCHCH3C3PC18H13CH2C5HCH2CH2C6HCHC2HCHCHC2HC3HCH4C5HCHSHC2H3CHCPHC3SC4HSC3HC3HCHPCHC2HC3H2C4H2C5HC2HPH2C2H2C2H2C2HCHCHC2H5CH2FeHPC3HCHC2SC3H2C5PC2FeSH2C4H2CHC2HCHCFeSC2SFeSC5HC3SH3C3H3C2HSHCHCHCH3CH3CHC3HC3HCHC8PC2H2CH2CHC3H2CH3PCH2CH2C2H3C2HC4HC2HCH2C2HSHFeS2CHFeHC2H2C2HC2H3C7H5SH3C2HCH3C2H3CH2CHCFeHCHCHC3SHSCSC2HC3H2FeCPHCHC2HC3HC4HC2H3CHC2H2C2S2FeS2FeS2FeSC2SHFeS2FeS2FeC2FeS2FeHFeHS2CSHC3H2CH2C7H4C6H4C6H3PH3CSH2CH2C4HFeC3H2C11H11SHCH4CSCSH2C7PC18HCH19FeHCH2PC9HC5PC8HC5H7C2H2SH2SC2H2C2PH2FeCH2CSHCFeC2HC2HCSCHCHC7HCHC2H2C2H2C2SHC2SH2C2H3C3HSH2C2H2CHC2FeCH2CHCHSFeH2CH5C4FeS2HS2FeS2FeS2FeSFeHS2FeS2FeC2FeSHCSCSHSHFeS2CSHCHCHC7H4C6H3C3HC2HCHC6H4CPC2H2C5FeH2CHCSC2HC4H2CH2CH2C6PC18H20CHC2H2CHC2H6PC4HCHC3H3CHC4HC2H2CH3CSCH2CSCSHC4PCHC3H2C2HCH4C2HCH2CHCH3SHCHC6H2C2H8C2H6CHC10PC16H10CH2Fe2C3HFeHCH4CHCHC4FeC4HC3HCHC3H2C2H2CPHC4HSHSCHC3HCHC3H2CH2FeH2CH5CH2CH5CHCHCSHC4HC2FeSHFeS2C2FeSHFeSHC8H3CHSFeCH2CHC3H3CHCH2CH2SCHC3HCPCH4FeSHCHC4HC2SCH2CSC3HC2H2C2H2C3H2CH2C
_chemical_formula_sum              "Fe96 S192 H1152 C1440 P48"
_cell_length_a       47.6498
_cell_length_b       53.2727
_cell_length_c       33.8696
_cell_angle_alpha    89.8133
_cell_angle_beta     89.7008
_cell_angle_gamma    90.1336

_space_group_name_H-M_alt    "P 1"
_space_group_IT_number       1

loop_
  _space_group_symop_operation_xyz
  'x, y, z'

loop_
  _atom_site_type_symbol
  _atom_site_label
  _atom_site_symmetry_multiplicity
  _atom_site_fract_x
  _atom_site_fract_y
  _atom_site_fract_z
  _atom_site_occupancy
  Fe  Fe1       1.0  0.07677  0.40486  0.12732  1.0000
  S   S1        1.0  0.12093  0.38987  0.13620  1.0000
  H   H1        1.0  0.34665  0.04513  0.43150  1.0000
  Fe  Fe2       1.0  0.27484  0.39518  0.36090  1.0000
  S   S2        1.0  0.26444  0.38804  0.29707  1.0000
  S   S3        1.0  0.27810  0.36300  0.40468  1.0000
  H   H2        1.0  0.11310  0.31959  0.06391  1.0000
  C   C1        1.0  0.31320  0.96104  0.39291  1.0000
  C   C2        1.0  0.34928  0.02889  0.45047  1.0000
  C   C3        1.0  0.31418  0.33794  0.30489  1.0000
  C   C4        1.0  0.27719  0.97329  0.50578  1.0000
  H   H3        1.0  0.15822  0.39995  0.35826  1.0000
  H   H4        1.0  0.28456  0.01343  0.50060  1.0000
  P   P1        1.0  0.30627  0.96391  0.47456  1.0000
  C   C5        1.0  0.27792  0.37198  0.45469  1.0000
  C   C6        1.0  0.27612  0.35375  0.48472  1.0000
  H   H5        1.0  0.32675  0.33354  0.45404  1.0000
  C   C7        1.0  0.33248  0.98850  0.47469  1.0000
  C   C8        1.0  0.27962  0.39728  0.46480  1.0000
  H   H6        1.0  0.27448  0.33412  0.47700  1.0000
  C   C9        1.0  0.35030  0.36189  0.33785  1.0000
  H   H7        1.0  0.28078  0.41146  0.44193  1.0000
  C   C10       1.0  0.20529  0.37892  0.42563  1.0000
  H   H8        1.0  0.33310  0.30914  0.39001  1.0000
  C   C11       1.0  0.13958  0.39865  0.17898  1.0000
  C   C12       1.0  0.16902  0.39679  0.17960  1.0000
  C   C13       1.0  0.18426  0.40390  0.21338  1.0000
  C   C14       1.0  0.17004  0.41255  0.24689  1.0000
  H   H9        1.0  0.17077  0.34115  0.06377  1.0000
  C   C15       1.0  0.12547  0.40735  0.21247  1.0000
  H   H10       1.0  0.18008  0.39000  0.15382  1.0000
  H   H11       1.0  0.20692  0.40259  0.21355  1.0000
  H   H12       1.0  0.12940  0.42031  0.27222  1.0000
  H   H13       1.0  0.10283  0.40861  0.21250  1.0000
  C   C16       1.0  0.28017  0.40431  0.50461  1.0000
  C   C17       1.0  0.18132  0.41601  0.45008  1.0000
  C   C18       1.0  0.20141  0.39701  0.45495  1.0000
  H   H14       1.0  0.19349  0.36648  0.36757  1.0000
  H   H15       1.0  0.25231  0.94678  0.44174  1.0000
  S   S4        1.0  0.04644  0.41979  0.17228  1.0000
  Fe  Fe3       1.0  0.03944  0.41987  0.05790  1.0000
  H   H16       1.0  0.21424  0.39627  0.48124  1.0000
  H   H17       1.0  0.10181  0.36477  0.06801  1.0000
  H   H18       1.0  0.22084  0.36434  0.42941  1.0000
  C   C19       1.0  0.27176  0.99875  0.51347  1.0000
  S   S5        1.0  0.04336  0.38428  0.09313  1.0000
  C   C20       1.0  0.32929  0.00963  0.45019  1.0000
  C   C21       1.0  0.27619  0.36091  0.52475  1.0000
  Fe  Fe4       1.0  0.23450  0.42036  0.30327  1.0000
  H   H19       1.0  0.31938  0.95641  0.33008  1.0000
  Fe  Fe5       1.0  0.29760  0.41746  0.28408  1.0000
  C   C22       1.0  0.27723  0.94720  0.34770  1.0000
  C   C23       1.0  0.33223  0.35860  0.30593  1.0000
  C   C24       1.0  0.35596  0.98699  0.49950  1.0000
  H   H20       1.0  0.15031  0.43145  0.41003  1.0000
  S   S6        1.0  0.32932  0.41594  0.23361  1.0000
  C   C25       1.0  0.14063  0.41410  0.24629  1.0000
  C   C26       1.0  0.18972  0.38000  0.39086  1.0000
  C   C27       1.0  0.30464  0.95530  0.35456  1.0000
  S   S7        1.0  0.31005  0.42202  0.34733  1.0000
  H   H21       1.0  0.29984  0.33570  0.28041  1.0000
  H   H22       1.0  0.30041  0.30436  0.33476  1.0000
  C   C28       1.0  0.16986  0.39893  0.38564  1.0000
  C   C29       1.0  0.34709  0.41685  0.44560  1.0000
  S   S8        1.0  0.24282  0.42553  0.36817  1.0000
  C   C30       1.0  0.10682  0.32966  0.03755  1.0000
  H   H23       1.0  0.16145  0.38664  0.06911  1.0000
  C   C31       1.0  0.31454  0.32030  0.33548  1.0000
  S   S9        1.0  0.18772  0.42203  0.29014  1.0000
  C   C32       1.0  0.16556  0.41686  0.41513  1.0000
  C   C33       1.0  0.29426  0.95882  0.42473  1.0000
  H   H24       1.0  0.13710  0.25193  0.48546  1.0000
  C   C34       1.0  0.26006  0.95493  0.52348  1.0000
  H   H25       1.0  0.35055  0.94635  0.23863  1.0000
  H   H26       1.0  0.11187  0.94596  0.49523  1.0000
  H   H27       1.0  0.14960  0.98010  0.51439  1.0000
  C   C35       1.0  0.35054  0.34449  0.36903  1.0000
  C   C36       1.0  0.34022  0.30544  0.49540  1.0000
  C   C37       1.0  0.10039  0.35516  0.03997  1.0000
  H   H28       1.0  0.03738  0.43080  0.25816  1.0000
  H   H29       1.0  0.33479  0.96654  0.39774  1.0000
  C   C38       1.0  0.33290  0.32334  0.36722  1.0000
  H   H30       1.0  0.31951  0.30317  0.50840  1.0000
  C   C39       1.0  0.26695  0.94999  0.41770  1.0000
  H   H31       1.0  0.31123  0.01127  0.43103  1.0000
  P   P2        1.0  0.17581  0.43861  0.48902  1.0000
  C   C40       1.0  0.16889  0.37889  0.04135  1.0000
  H   H32       1.0  0.15967  0.38616  0.50889  1.0000
  C   C41       1.0  0.17408  0.35320  0.03829  1.0000
  H   H33       1.0  0.32910  0.42881  0.44035  1.0000
  H   H34       1.0  0.20968  0.34635  0.50631  1.0000
  S   S10       1.0  0.07463  0.43918  0.08934  1.0000
  C   C42       1.0  0.34934  0.39384  0.42609  1.0000
  H   H35       1.0  0.33213  0.37212  0.28200  1.0000
  H   H36       1.0  0.28240  0.42377  0.51226  1.0000
  H   H37       1.0  0.16422  0.21358  0.50197  1.0000
  H   H38       1.0  0.33267  0.38801  0.40661  1.0000
  C   C43       1.0  0.34435  0.32255  0.46454  1.0000
  C   C44       1.0  0.16345  0.22914  0.52248  1.0000
  C   C45       1.0  0.14825  0.25076  0.51320  1.0000
  H   H39       1.0  0.11564  0.44407  0.47652  1.0000
  H   H40       1.0  0.12642  0.43294  0.82153  1.0000
  S   S11       1.0  0.21045  0.97231  0.68786  1.0000
  Fe  Fe6       1.0  0.26182  0.10106  0.64910  1.0000
  S   S12       1.0  0.25659  0.10096  0.71481  1.0000
  S   S13       1.0  0.27604  0.06586  0.61838  1.0000
  Fe  Fe7       1.0  0.24697  0.15608  0.64190  1.0000
  S   S14       1.0  0.24058  0.16034  0.70732  1.0000
  S   S15       1.0  0.24045  0.18879  0.60038  1.0000
  Fe  Fe8       1.0  0.27976  0.13756  0.71253  1.0000
  C   C46       1.0  0.04279  0.01622  0.60117  1.0000
  Fe  Fe9       1.0  0.21788  0.12355  0.70350  1.0000
  S   S16       1.0  0.17986  0.11408  0.74053  1.0000
  S   S17       1.0  0.28814  0.13605  0.64731  1.0000
  S   S18       1.0  0.22114  0.12086  0.63759  1.0000
  H   H41       1.0  0.27934  0.24414  0.73344  1.0000
  C   C47       1.0  0.14844  0.04613  0.70306  1.0000
  H   H42       1.0  0.10087  0.99865  0.69397  1.0000
  H   H43       1.0  0.15223  0.30919  0.93966  1.0000
  C   C48       1.0  0.13046  0.02895  0.68451  1.0000
  H   H44       1.0  0.13974  0.40925  0.69557  1.0000
  H   H45       1.0  0.03118  0.00241  0.58442  1.0000
  S   S19       1.0  0.05907  0.12012  0.66473  1.0000
  H   H46       1.0  0.10710  0.08058  0.60358  1.0000
  H   H47       1.0  0.16903  0.23157  0.91523  1.0000
  H   H48       1.0  0.21560  0.27260  0.75374  1.0000
  H   H49       1.0  0.06742  0.38294  0.83106  1.0000
  S   S20       1.0  0.31072  0.14710  0.76030  1.0000
  C   C49       1.0  0.29753  0.24100  0.75187  1.0000
  H   H50       1.0  0.31124  0.27947  0.74889  1.0000
  Fe  Fe10      1.0  0.04470  0.37192  0.73698  1.0000
  S   S21       1.0  0.08392  0.39317  0.71762  1.0000
  S   S22       1.0  0.04399  0.33696  0.77429  1.0000
  Fe  Fe11      1.0  0.27747  0.37022  0.63587  1.0000
  S   S23       1.0  0.26419  0.38529  0.69533  1.0000
  S   S24       1.0  0.27643  0.39691  0.58393  1.0000
  Fe  Fe12      1.0  0.29213  0.31915  0.66862  1.0000
  S   S25       1.0  0.28000  0.33006  0.73005  1.0000
  S   S26       1.0  0.31150  0.28095  0.66169  1.0000
  Fe  Fe13      1.0  0.24244  0.34815  0.70231  1.0000
  S   S27       1.0  0.20150  0.33933  0.73394  1.0000
  Fe  Fe14      1.0  0.30299  0.36603  0.71787  1.0000
  S   S28       1.0  0.33074  0.38146  0.76663  1.0000
  S   S29       1.0  0.25301  0.33425  0.64127  1.0000
  S   S30       1.0  0.31783  0.35389  0.65801  1.0000
  C   C50       1.0  0.11633  0.37721  0.71680  1.0000
  C   C51       1.0  0.08965  0.35582  0.97021  1.0000
  S   S31       1.0  0.04134  0.42548  0.99167  1.0000
  C   C52       1.0  0.16908  0.35383  0.72403  1.0000
  C   C53       1.0  0.14435  0.34089  0.73387  1.0000
  C   C54       1.0  0.11809  0.35238  0.72970  1.0000
  H   H51       1.0  0.14552  0.32211  0.74581  1.0000
  H   H52       1.0  0.09925  0.34241  0.73802  1.0000
  C   C55       1.0  0.16220  0.26962  0.57545  1.0000
  H   H53       1.0  0.15969  0.06033  0.68633  1.0000
  C   C56       1.0  0.30393  0.21679  0.76495  1.0000
  C   C57       1.0  0.05219  0.19760  0.61737  1.0000
  H   H54       1.0  0.23622  0.00278  0.75505  1.0000
  C   C58       1.0  0.16733  0.37825  0.70893  1.0000
  C   C59       1.0  0.09278  0.11823  0.68524  1.0000
  C   C60       1.0  0.11598  0.12804  0.66467  1.0000
  C   C61       1.0  0.14300  0.12657  0.68101  1.0000
  C   C62       1.0  0.14677  0.11525  0.71794  1.0000
  C   C63       1.0  0.12359  0.10519  0.73813  1.0000
  C   C64       1.0  0.09668  0.10668  0.72186  1.0000
  H   H55       1.0  0.11297  0.13703  0.63636  1.0000
  H   H56       1.0  0.16080  0.13445  0.66536  1.0000
  H   H57       1.0  0.12643  0.09624  0.76652  1.0000
  H   H58       1.0  0.07902  0.09854  0.73748  1.0000
  C   C65       1.0  0.26078  0.21457  0.61539  1.0000
  C   C66       1.0  0.25484  0.23886  0.60162  1.0000
  C   C67       1.0  0.27016  0.25957  0.61572  1.0000
  C   C68       1.0  0.29175  0.25586  0.64292  1.0000
  C   C69       1.0  0.29824  0.23151  0.65536  1.0000
  C   C70       1.0  0.28247  0.21100  0.64237  1.0000
  C   C71       1.0  0.14756  0.27090  0.53959  1.0000
  H   H59       1.0  0.24621  0.41530  0.90304  1.0000
  H   H60       1.0  0.31513  0.22850  0.67591  1.0000
  H   H61       1.0  0.28724  0.19238  0.65314  1.0000
  C   C72       1.0  0.22970  0.99793  0.66929  1.0000
  C   C73       1.0  0.21988  0.02220  0.67649  1.0000
  C   C74       1.0  0.23436  0.04310  0.66147  1.0000
  C   C75       1.0  0.25870  0.03978  0.63891  1.0000
  C   C76       1.0  0.26880  0.01549  0.63203  1.0000
  C   C77       1.0  0.25429  0.99456  0.64724  1.0000
  H   H62       1.0  0.20105  0.02484  0.69384  1.0000
  H   H63       1.0  0.22632  0.06176  0.66679  1.0000
  H   H64       1.0  0.28759  0.01285  0.61451  1.0000
  H   H65       1.0  0.26170  0.97588  0.64097  1.0000
  H   H66       1.0  0.10730  0.99723  0.76611  1.0000
  C   C78       1.0  0.13039  0.35312  0.83055  1.0000
  C   C79       1.0  0.09948  0.33516  0.88052  1.0000
  C   C80       1.0  0.20791  0.36560  0.56199  1.0000
  H   H67       1.0  0.35336  0.27228  0.78959  1.0000
  C   C81       1.0  0.12543  0.33555  0.86060  1.0000
  C   C82       1.0  0.11661  0.28746  0.91978  1.0000
  H   H68       1.0  0.14184  0.32243  0.86787  1.0000
  C   C83       1.0  0.27811  0.38634  0.53470  1.0000
  H   H69       1.0  0.18631  0.38841  0.70136  1.0000
  C   C84       1.0  0.30628  0.99079  0.76407  1.0000
  C   C85       1.0  0.28138  0.00249  0.75158  1.0000
  C   C86       1.0  0.18723  0.07386  0.58589  1.0000
  C   C87       1.0  0.17234  0.05420  0.60366  1.0000
  P   P3        1.0  0.09271  0.31376  0.92102  1.0000
  H   H70       1.0  0.05834  0.35184  0.88361  1.0000
  C   C88       1.0  0.03434  0.99295  0.77495  1.0000
  H   H71       1.0  0.30606  0.97925  0.68310  1.0000
  H   H72       1.0  0.15027  0.35337  0.81483  1.0000
  H   H73       1.0  0.19501  0.35058  0.94242  1.0000
  C   C89       1.0  0.17751  0.28743  0.65525  1.0000
  H   H74       1.0  0.28182  0.01800  0.73080  1.0000
  C   C90       1.0  0.15169  0.98327  0.62879  1.0000
  C   C91       1.0  0.12637  0.24352  0.90621  1.0000
  C   C92       1.0  0.10747  0.26355  0.90789  1.0000
  H   H75       1.0  0.08224  0.36630  0.94499  1.0000
  H   H76       1.0  0.12642  0.97931  0.96401  1.0000
  H   H77       1.0  0.13929  0.28482  0.69000  1.0000
  C   C93       1.0  0.13221  0.95762  0.01690  1.0000
  Fe  Fe15      1.0  0.02507  0.11985  0.71130  1.0000
  H   H78       1.0  0.03436  0.42862  0.90831  1.0000
  H   H79       1.0  0.08587  0.26021  0.89965  1.0000
  H   H80       1.0  0.18971  0.21086  0.56538  1.0000
  H   H81       1.0  0.23346  0.96600  0.79965  1.0000
  C   C94       1.0  0.20994  0.39141  0.89304  1.0000
  C   C95       1.0  0.25532  0.99384  0.76507  1.0000
  C   C96       1.0  0.05708  0.30237  0.91742  1.0000
  C   C97       1.0  0.31546  0.26094  0.76073  1.0000
  P   P4        1.0  0.18792  0.40540  0.93069  1.0000
  C   C98       1.0  0.14097  0.38999  0.70564  1.0000
  C   C99       1.0  0.20492  0.27611  0.72616  1.0000
  H   H82       1.0  0.20629  0.34801  0.81915  1.0000
  H   H83       1.0  0.31855  0.95607  0.62286  1.0000
  C   C100      1.0  0.15444  0.24716  0.91651  1.0000
  H   H84       1.0  0.13998  0.02719  0.79849  1.0000
  C   C101      1.0  0.07301  0.21608  0.61680  1.0000
  H   H85       1.0  0.33616  0.07350  0.65271  1.0000
  C   C102      1.0  0.04812  0.18295  0.65118  1.0000
  C   C103      1.0  0.06467  0.18679  0.68463  1.0000
  C   C104      1.0  0.08517  0.20573  0.68464  1.0000
  C   C105      1.0  0.08953  0.22002  0.65022  1.0000
  P   P5        1.0  0.10738  0.21079  0.72699  1.0000
  C   C106      1.0  0.09994  0.18840  0.76565  1.0000
  C   C107      1.0  0.14354  0.20769  0.71144  1.0000
  C   C108      1.0  0.15033  0.19657  0.67504  1.0000
  C   C109      1.0  0.17806  0.19657  0.66149  1.0000
  C   C110      1.0  0.19922  0.20705  0.68455  1.0000
  C   C111      1.0  0.19303  0.21610  0.72211  1.0000
  C   C112      1.0  0.16529  0.21656  0.73551  1.0000
  C   C113      1.0  0.11815  0.16826  0.77305  1.0000
  C   C114      1.0  0.11258  0.15164  0.80417  1.0000
  C   C115      1.0  0.08868  0.15480  0.82771  1.0000
  C   C116      1.0  0.07035  0.17470  0.82026  1.0000
  C   C117      1.0  0.07593  0.19144  0.78933  1.0000
  C   C118      1.0  0.10247  0.24177  0.74789  1.0000
  C   C119      1.0  0.08938  0.26105  0.72646  1.0000
  C   C120      1.0  0.08780  0.28529  0.74191  1.0000
  C   C121      1.0  0.09877  0.29050  0.77913  1.0000
  C   C122      1.0  0.11106  0.27134  0.80120  1.0000
  C   C123      1.0  0.11259  0.24702  0.78593  1.0000
  H   H86       1.0  0.32985  0.20412  0.87272  1.0000
  H   H87       1.0  0.06148  0.17475  0.71010  1.0000
  H   H88       1.0  0.10607  0.23395  0.64931  1.0000
  H   H89       1.0  0.13442  0.18780  0.65702  1.0000
  H   H90       1.0  0.18328  0.18818  0.63330  1.0000
  H   H91       1.0  0.22065  0.20739  0.67397  1.0000
  H   H92       1.0  0.20983  0.22288  0.74066  1.0000
  H   H93       1.0  0.16103  0.22391  0.76452  1.0000
  H   H94       1.0  0.13652  0.16511  0.75474  1.0000
  H   H95       1.0  0.12662  0.13602  0.80945  1.0000
  H   H96       1.0  0.08397  0.14149  0.85108  1.0000
  H   H97       1.0  0.05135  0.17678  0.83772  1.0000
  H   H98       1.0  0.06135  0.20660  0.78365  1.0000
  H   H99       1.0  0.07997  0.25768  0.69808  1.0000
  H   H100      1.0  0.04586  0.31880  0.64020  1.0000
  H   H101      1.0  0.09757  0.30934  0.79093  1.0000
  H   H102      1.0  0.11956  0.27543  0.82998  1.0000
  H   H103      1.0  0.12187  0.23233  0.80371  1.0000
  C   C124      1.0  0.15200  0.04530  0.74401  1.0000
  C   C125      1.0  0.13735  0.02761  0.76676  1.0000
  C   C126      1.0  0.11907  0.01073  0.74855  1.0000
  C   C127      1.0  0.11554  0.01148  0.70761  1.0000
  H   H104      1.0  0.16593  0.05868  0.75803  1.0000
  H   H105      1.0  0.34053  0.32517  0.57700  1.0000
  S   S32       1.0  0.04766  0.96518  0.75470  1.0000
  C   C128      1.0  0.25315  0.39046  0.85442  1.0000
  C   C129      1.0  0.08222  0.99431  0.86616  1.0000
  H   H106      1.0  0.18028  0.34185  0.64663  1.0000
  C   C130      1.0  0.32552  0.05143  0.76076  1.0000
  H   H107      1.0  0.24318  0.27820  0.69204  1.0000
  C   C131      1.0  0.34487  0.23295  0.79916  1.0000
  P   P6        1.0  0.16069  0.29572  0.60947  1.0000
  H   H108      1.0  0.33895  0.26877  0.86013  1.0000
  H   H109      1.0  0.08246  0.35106  0.65206  1.0000
  H   H110      1.0  0.15347  0.98416  0.66059  1.0000
  H   H111      1.0  0.08249  0.99872  0.59052  1.0000
  C   C132      1.0  0.10331  0.28527  0.61308  1.0000
  H   H112      1.0  0.07649  0.22715  0.59037  1.0000
  C   C133      1.0  0.15691  0.42450  0.53005  1.0000
  C   C134      1.0  0.32078  0.07646  0.75044  1.0000
  H   H113      1.0  0.18356  0.03746  0.61257  1.0000
  H   H114      1.0  0.29079  0.20104  0.75651  1.0000
  H   H115      1.0  0.17456  0.94854  0.62555  1.0000
  H   H116      1.0  0.34658  0.02974  0.67064  1.0000
  P   P7        1.0  0.12467  0.02998  0.63192  1.0000
  C   C135      1.0  0.20680  0.28510  0.65619  1.0000
  H   H117      1.0  0.33873  0.32582  0.76194  1.0000
  C   C136      1.0  0.16190  0.28322  0.68989  1.0000
  C   C137      1.0  0.25375  0.97315  0.79034  1.0000
  H   H118      1.0  0.20977  0.07232  0.58170  1.0000
  H   H119      1.0  0.16363  0.27539  0.75220  1.0000
  C   C138      1.0  0.13846  0.00247  0.60752  1.0000
  C   C139      1.0  0.15220  0.39847  0.53194  1.0000
  C   C140      1.0  0.14483  0.29092  0.93030  1.0000
  C   C141      1.0  0.10968  0.37045  0.82045  1.0000
  H   H120      1.0  0.11360  0.38427  0.79753  1.0000
  H   H121      1.0  0.26564  0.27829  0.60513  1.0000
  C   C142      1.0  0.33444  0.06746  0.68315  1.0000
  C   C143      1.0  0.07198  0.01430  0.60453  1.0000
  C   C144      1.0  0.14328  0.05620  0.61016  1.0000
  C   C145      1.0  0.16374  0.96294  0.60891  1.0000
  H   H122      1.0  0.32079  0.10358  0.70340  1.0000
  C   C146      1.0  0.19903  0.37229  0.86916  1.0000
  C   C147      1.0  0.08370  0.36983  0.83953  1.0000
  C   C148      1.0  0.07858  0.35216  0.86920  1.0000
  H   H123      1.0  0.31612  0.94518  0.55443  1.0000
  C   C149      1.0  0.35529  0.14553  0.70814  1.0000
  C   C150      1.0  0.17311  0.39458  0.00869  1.0000
  C   C151      1.0  0.08103  0.01950  0.85461  1.0000
  C   C152      1.0  0.09642  0.33022  0.96732  1.0000
  C   C153      1.0  0.08708  0.03220  0.62627  1.0000
  H   H124      1.0  0.32301  0.96002  0.79876  1.0000
  C   C154      1.0  0.13783  0.00120  0.56609  1.0000
  C   C155      1.0  0.04576  0.29670  0.88029  1.0000
  C   C156      1.0  0.32768  0.21270  0.78817  1.0000
  C   C157      1.0  0.02804  0.40359  0.95771  1.0000
  C   C158      1.0  0.33572  0.03440  0.73255  1.0000
  C   C159      1.0  0.11654  0.32721  0.63327  1.0000
  H   H125      1.0  0.07774  0.29998  0.72491  1.0000
  C   C160      1.0  0.15438  0.41286  0.90877  1.0000
  H   H126      1.0  0.11919  0.22513  0.89694  1.0000
  H   H127      1.0  0.08348  0.06490  0.66384  1.0000
  C   C161      1.0  0.17564  0.27775  0.72528  1.0000
  H   H128      1.0  0.03944  0.19432  0.59152  1.0000
  H   H129      1.0  0.07646  0.05775  0.87370  1.0000
  H   H130      1.0  0.04119  0.05632  0.76496  1.0000
  C   C162      1.0  0.14981  0.98080  0.54635  1.0000
  H   H131      1.0  0.32080  0.04526  0.79058  1.0000
  H   H132      1.0  0.04877  0.30269  0.98048  1.0000
  H   H133      1.0  0.21942  0.38189  0.55149  1.0000
  H   H134      1.0  0.33262  0.19368  0.79699  1.0000
  H   H135      1.0  0.27408  0.39760  0.84823  1.0000
  C   C163      1.0  0.07241  0.05135  0.64580  1.0000
  C   C164      1.0  0.12790  0.40323  0.59455  1.0000
  C   C165      1.0  0.07858  0.03834  0.88296  1.0000
  H   H136      1.0  0.24604  0.02524  0.54531  1.0000
  C   C166      1.0  0.04335  0.05341  0.64191  1.0000
  C   C167      1.0  0.12938  0.07826  0.59875  1.0000
  H   H137      1.0  0.10861  0.26671  0.60275  1.0000
  H   H138      1.0  0.11692  0.39503  0.61967  1.0000
  H   H139      1.0  0.13564  0.28753  0.53207  1.0000
  H   H140      1.0  0.03239  0.16825  0.65129  1.0000
  H   H141      1.0  0.05905  0.27664  0.61718  1.0000
  H   H142      1.0  0.08232  0.97998  0.84351  1.0000
  C   C168      1.0  0.16366  0.27083  0.92860  1.0000
  H   H143      1.0  0.08513  0.41897  0.93245  1.0000
  H   H144      1.0  0.17801  0.36532  0.87431  1.0000
  H   H145      1.0  0.13200  0.34147  0.63944  1.0000
  C   C169      1.0  0.23297  0.98715  0.55641  1.0000
  H   H146      1.0  0.18488  0.11109  0.56118  1.0000
  H   H147      1.0  0.23834  0.24166  0.58032  1.0000
  C   C170      1.0  0.17892  0.32307  0.59016  1.0000
  C   C171      1.0  0.12427  0.30348  0.61881  1.0000
  C   C172      1.0  0.22048  0.27942  0.69148  1.0000
  C   C173      1.0  0.13209  0.42917  0.59260  1.0000
  H   H148      1.0  0.05749  0.01670  0.73466  1.0000
  C   C174      1.0  0.21496  0.36245  0.83806  1.0000
  C   C175      1.0  0.10288  0.42665  0.87510  1.0000
  H   H149      1.0  0.21904  0.28795  0.62957  1.0000
  H   H150      1.0  0.07512  0.04663  0.94492  1.0000
  H   H151      1.0  0.17183  0.42121  0.85084  1.0000
  C   C176      1.0  0.20229  0.34560  0.53661  1.0000
  C   C177      1.0  0.24197  0.37160  0.83058  1.0000
  C   C178      1.0  0.07519  0.29081  0.62093  1.0000
  H   H152      1.0  0.12842  0.01623  0.54911  1.0000
  C   C179      1.0  0.04335  0.01607  0.75970  1.0000
  C   C180      1.0  0.19935  0.36435  0.60139  1.0000
  H   H153      1.0  0.05789  0.29962  0.85353  1.0000
  H   H154      1.0  0.20450  0.37954  0.62135  1.0000
  C   C181      1.0  0.32533  0.08443  0.71167  1.0000
  C   C182      1.0  0.30447  0.97002  0.78957  1.0000
  C   C183      1.0  0.08834  0.33276  0.64072  1.0000
  C   C184      1.0  0.17777  0.22758  0.55827  1.0000
  H   H155      1.0  0.31285  0.08965  0.77211  1.0000
  C   C185      1.0  0.16261  0.96157  0.56779  1.0000
  C   C186      1.0  0.33925  0.25685  0.78377  1.0000
  C   C187      1.0  0.33996  0.04257  0.69350  1.0000
  H   H156      1.0  0.18818  0.24567  0.61239  1.0000
  C   C188      1.0  0.13780  0.38792  0.56412  1.0000
  H   H157      1.0  0.23196  0.41452  0.98863  1.0000
  H   H158      1.0  0.34012  0.14704  0.68475  1.0000
  C   C189      1.0  0.18538  0.34303  0.61555  1.0000
  C   C190      1.0  0.14436  0.09791  0.58098  1.0000
  C   C191      1.0  0.17323  0.09570  0.57444  1.0000
  C   C192      1.0  0.17704  0.24762  0.58480  1.0000
  H   H159      1.0  0.18544  0.27359  0.93666  1.0000
  C   C193      1.0  0.18779  0.32442  0.55053  1.0000
  C   C194      1.0  0.20381  0.43391  0.94887  1.0000
  H   H160      1.0  0.08295  0.43192  0.86219  1.0000
  C   C195      1.0  0.34646  0.14578  0.74758  1.0000
  C   C196      1.0  0.32794  0.97559  0.67663  1.0000
  C   C197      1.0  0.08192  0.98782  0.90643  1.0000
  C   C198      1.0  0.02852  0.03592  0.61952  1.0000
  H   H161      1.0  0.13034  0.96124  0.87178  1.0000
  C   C199      1.0  0.12961  0.41230  0.93142  1.0000
  C   C200      1.0  0.15304  0.42036  0.86897  1.0000
  H   H162      1.0  0.25413  0.36427  0.80600  1.0000
  C   C201      1.0  0.10405  0.41919  0.91461  1.0000
  C   C202      1.0  0.06771  0.31462  0.63430  1.0000
  H   H163      1.0  0.32653  0.16436  0.91009  1.0000
  C   C203      1.0  0.12737  0.42724  0.85227  1.0000
  C   C204      1.0  0.27831  0.96124  0.80254  1.0000
  H   H164      1.0  0.27441  0.34688  0.54781  1.0000
  S   S33       1.0  0.03372  0.12729  0.77530  1.0000
  H   H165      1.0  0.07742  0.00221  0.96583  1.0000
  H   H166      1.0  0.12974  0.40687  0.96216  1.0000
  H   H167      1.0  0.03241  0.06871  0.65625  1.0000
  H   H168      1.0  0.18424  0.30907  0.53043  1.0000
  C   C205      1.0  0.34895  0.98377  0.70241  1.0000
  H   H169      1.0  0.08091  0.02440  0.82357  1.0000
  H   H170      1.0  0.10271  0.95523  0.71511  1.0000
  H   H171      1.0  0.13360  0.11502  0.57276  1.0000
  H   H172      1.0  0.21637  0.99249  0.57674  1.0000
  C   C206      1.0  0.07775  0.03203  0.92304  1.0000
  C   C207      1.0  0.18756  0.35876  0.96965  1.0000
  C   C208      1.0  0.18337  0.34312  0.00248  1.0000
  C   C209      1.0  0.07927  0.00685  0.93478  1.0000
  C   C210      1.0  0.23723  0.40039  0.88554  1.0000
  C   C211      1.0  0.03391  0.03852  0.77659  1.0000
  C   C212      1.0  0.33501  0.96249  0.64228  1.0000
  H   H173      1.0  0.13455  0.36780  0.56567  1.0000
  C   C213      1.0  0.18242  0.38466  0.97249  1.0000
  P   P8        1.0  0.33990  0.00177  0.74572  1.0000
  C   C214      1.0  0.04065  0.29848  0.95149  1.0000
  H   H174      1.0  0.12429  0.44099  0.61622  1.0000
  C   C215      1.0  0.14639  0.43981  0.56041  1.0000
  H   H175      1.0  0.08615  0.38789  0.00861  1.0000
  H   H176      1.0  0.22570  0.94749  0.56341  1.0000
  H   H177      1.0  0.17206  0.94582  0.55254  1.0000
  C   C216      1.0  0.09174  0.36821  0.00639  1.0000
  H   H178      1.0  0.02295  0.23214  0.68188  1.0000
  H   H179      1.0  0.34713  0.30163  0.90964  1.0000
  C   C217      1.0  0.34622  0.16973  0.89628  1.0000
  C   C218      1.0  0.10481  0.31718  0.00141  1.0000
  H   H180      1.0  0.03974  0.95340  0.98809  1.0000
  H   H181      1.0  0.16888  0.41446  0.01171  1.0000
  C   C219      1.0  0.34812  0.19215  0.87483  1.0000
  P   P9        1.0  0.07994  0.95530  0.92120  1.0000
  C   C220      1.0  0.23824  0.96182  0.54896  1.0000
  H   H182      1.0  0.10931  0.29728  0.00034  1.0000
  C   C221      1.0  0.04266  0.94979  0.92431  1.0000
  C   C222      1.0  0.02851  0.95045  0.96083  1.0000
  C   C223      1.0  0.24971  0.00560  0.53865  1.0000
  H   H183      1.0  0.18748  0.32318  0.00033  1.0000
  C   C224      1.0  0.02712  0.94727  0.88953  1.0000
  H   H184      1.0  0.03754  0.94744  0.86101  1.0000
  C   C225      1.0  0.11903  0.96342  0.98116  1.0000
  C   C226      1.0  0.22514  0.43253  0.97727  1.0000
  C   C227      1.0  0.09658  0.94867  0.96781  1.0000
  C   C228      1.0  0.02734  0.41018  0.91758  1.0000
  H   H185      1.0  0.14932  0.96920  0.02740  1.0000
  H   H186      1.0  0.27709  0.94467  0.82113  1.0000
  C   C229      1.0  0.20997  0.44988  0.50396  1.0000
  H   H187      1.0  0.28956  0.45533  0.16959  1.0000
  S   S34       1.0  0.05712  0.88391  0.23028  1.0000
  C   C230      1.0  0.32863  0.72003  0.24786  1.0000
  H   H188      1.0  0.21521  0.47165  0.26425  1.0000
  H   H189      1.0  0.20254  0.46683  0.33452  1.0000
  Fe  Fe16      1.0  0.23623  0.87504  0.35982  1.0000
  S   S35       1.0  0.23449  0.89825  0.30396  1.0000
  S   S36       1.0  0.21686  0.89098  0.41632  1.0000
  Fe  Fe17      1.0  0.26286  0.83145  0.31698  1.0000
  S   S37       1.0  0.26297  0.85113  0.25847  1.0000
  S   S38       1.0  0.28238  0.79313  0.31553  1.0000
  Fe  Fe18      1.0  0.27850  0.88419  0.29233  1.0000
  S   S39       1.0  0.31155  0.91121  0.26809  1.0000
  Fe  Fe19      1.0  0.21919  0.86311  0.27459  1.0000
  S   S40       1.0  0.18802  0.85980  0.22410  1.0000
  S   S41       1.0  0.28137  0.86388  0.35042  1.0000
  S   S42       1.0  0.21789  0.84061  0.33078  1.0000
  Fe  Fe20      1.0  0.20935  0.66749  0.32794  1.0000
  S   S43       1.0  0.21186  0.66562  0.26217  1.0000
  S   S44       1.0  0.20117  0.70347  0.36026  1.0000
  Fe  Fe21      1.0  0.20953  0.61102  0.33727  1.0000
  S   S45       1.0  0.21154  0.60404  0.27226  1.0000
  S   S46       1.0  0.20400  0.58033  0.38238  1.0000
  Fe  Fe22      1.0  0.24332  0.63514  0.27190  1.0000
  H   H190      1.0  0.18037  0.50195  0.37048  1.0000
  Fe  Fe23      1.0  0.17999  0.63490  0.26714  1.0000
  S   S47       1.0  0.14697  0.63372  0.21992  1.0000
  S   S48       1.0  0.24412  0.63975  0.33795  1.0000
  S   S49       1.0  0.17477  0.63914  0.33240  1.0000
  H   H191      1.0  0.09987  0.88545  0.28986  1.0000
  C   C231      1.0  0.25669  0.48138  0.18533  1.0000
  H   H192      1.0  0.15217  0.82374  0.08559  1.0000
  H   H193      1.0  0.34446  0.82906  0.14204  1.0000
  H   H194      1.0  0.08413  0.81238  0.16746  1.0000
  S   S50       1.0  0.28699  0.48838  0.37840  1.0000
  H   H195      1.0  0.32784  0.91817  0.43543  1.0000
  C   C232      1.0  0.13045  0.47280  0.29624  1.0000
  C   C233      1.0  0.29192  0.69859  0.21194  1.0000
  H   H196      1.0  0.02440  0.77368  0.21265  1.0000
  C   C234      1.0  0.11185  0.63379  0.23559  1.0000
  C   C235      1.0  0.10467  0.63077  0.27538  1.0000
  C   C236      1.0  0.07636  0.62909  0.28673  1.0000
  C   C237      1.0  0.05519  0.63064  0.25831  1.0000
  C   C238      1.0  0.06242  0.63433  0.21869  1.0000
  C   C239      1.0  0.09067  0.63591  0.20733  1.0000
  H   H197      1.0  0.12088  0.62940  0.29734  1.0000
  H   H198      1.0  0.07090  0.62640  0.31748  1.0000
  H   H199      1.0  0.04631  0.63578  0.19667  1.0000
  H   H200      1.0  0.09611  0.63846  0.17653  1.0000
  C   C240      1.0  0.22596  0.55404  0.37806  1.0000
  C   C241      1.0  0.24527  0.55151  0.34699  1.0000
  C   C242      1.0  0.26300  0.53042  0.34554  1.0000
  C   C243      1.0  0.26112  0.51175  0.37475  1.0000
  C   C244      1.0  0.24136  0.51417  0.40511  1.0000
  C   C245      1.0  0.22395  0.53525  0.40687  1.0000
  H   H201      1.0  0.24708  0.56608  0.32482  1.0000
  H   H202      1.0  0.27887  0.52905  0.32280  1.0000
  H   H203      1.0  0.24025  0.50031  0.42823  1.0000
  H   H204      1.0  0.20939  0.53735  0.43120  1.0000
  C   C246      1.0  0.23317  0.88681  0.46276  1.0000
  H   H205      1.0  0.27126  0.47156  0.46360  1.0000
  H   H206      1.0  0.06831  0.72678  0.33274  1.0000
  C   C247      1.0  0.15545  0.47115  0.12435  1.0000
  C   C248      1.0  0.25891  0.87450  0.46618  1.0000
  H   H207      1.0  0.02632  0.81932  0.22328  1.0000
  C   C249      1.0  0.32596  0.72412  0.17671  1.0000
  H   H208      1.0  0.26911  0.86708  0.44014  1.0000
  C   C250      1.0  0.25890  0.76870  0.32677  1.0000
  C   C251      1.0  0.26308  0.74504  0.30992  1.0000
  C   C252      1.0  0.24519  0.72493  0.31958  1.0000
  C   C253      1.0  0.22337  0.72844  0.34676  1.0000
  C   C254      1.0  0.21918  0.75214  0.36359  1.0000
  C   C255      1.0  0.23670  0.77234  0.35324  1.0000
  H   H209      1.0  0.28016  0.74242  0.28935  1.0000
  H   H210      1.0  0.24855  0.70669  0.30656  1.0000
  H   H211      1.0  0.20248  0.75486  0.38487  1.0000
  H   H212      1.0  0.23362  0.79049  0.36674  1.0000
  H   H213      1.0  0.15106  0.87609  0.28861  1.0000
  C   C256      1.0  0.34148  0.79219  0.24094  1.0000
  H   H214      1.0  0.27373  0.68633  0.21193  1.0000
  C   C257      1.0  0.10971  0.87932  0.26271  1.0000
  H   H215      1.0  0.05377  0.70101  0.08821  1.0000
  H   H216      1.0  0.20089  0.71951  0.20971  1.0000
  C   C258      1.0  0.09344  0.87683  0.22840  1.0000
  C   C259      1.0  0.13538  0.86404  0.19275  1.0000
  C   C260      1.0  0.30513  0.70428  0.24750  1.0000
  C   C261      1.0  0.15168  0.86653  0.22695  1.0000
  C   C262      1.0  0.13870  0.87406  0.26210  1.0000
  C   C263      1.0  0.10637  0.86900  0.19345  1.0000
  C   C264      1.0  0.08344  0.71647  0.27464  1.0000
  C   C265      1.0  0.10913  0.48083  0.45208  1.0000
  C   C266      1.0  0.32037  0.87722  0.10735  1.0000
  H   H217      1.0  0.10274  0.83137  0.10565  1.0000
  H   H218      1.0  0.15242  0.87743  0.46099  1.0000
  C   C267      1.0  0.34349  0.58072  0.21284  1.0000
  H   H219      1.0  0.30486  0.86238  0.10544  1.0000
  C   C268      1.0  0.13308  0.70591  0.15041  1.0000
  C   C269      1.0  0.15180  0.68658  0.15888  1.0000
  C   C270      1.0  0.17627  0.69165  0.17987  1.0000
  C   C271      1.0  0.18192  0.71600  0.19301  1.0000
  C   C272      1.0  0.16334  0.73567  0.18429  1.0000
  C   C273      1.0  0.13876  0.73037  0.16302  1.0000
  C   C274      1.0  0.22169  0.76210  0.15665  1.0000
  C   C275      1.0  0.25077  0.76400  0.15124  1.0000
  C   C276      1.0  0.26722  0.77614  0.17942  1.0000
  H   H220      1.0  0.11408  0.70181  0.13433  1.0000
  H   H221      1.0  0.14725  0.66754  0.14958  1.0000
  H   H222      1.0  0.19069  0.67650  0.18612  1.0000
  H   H223      1.0  0.12399  0.74498  0.15583  1.0000
  H   H224      1.0  0.20929  0.75232  0.13484  1.0000
  H   H225      1.0  0.26061  0.75582  0.12545  1.0000
  H   H226      1.0  0.28979  0.77739  0.17574  1.0000
  H   H227      1.0  0.14632  0.68692  0.33056  1.0000
  P   P10       1.0  0.05475  0.73148  0.24912  1.0000
  C   C277      1.0  0.28392  0.47161  0.18702  1.0000
  C   C278      1.0  0.05459  0.72215  0.19798  1.0000
  C   C279      1.0  0.13517  0.87807  0.52006  1.0000
  C   C280      1.0  0.35484  0.78147  0.20807  1.0000
  C   C281      1.0  0.29717  0.55316  0.42857  1.0000
  H   H228      1.0  0.14375  0.68378  0.25768  1.0000
  C   C282      1.0  0.31200  0.58980  0.37294  1.0000
  C   C283      1.0  0.12860  0.69478  0.31500  1.0000
  C   C284      1.0  0.30374  0.48218  0.21237  1.0000
  H   H229      1.0  0.03359  0.45806  0.31694  1.0000
  H   H230      1.0  0.29101  0.53873  0.44950  1.0000
  H   H231      1.0  0.13898  0.45256  0.17589  1.0000
  H   H232      1.0  0.29132  0.86196  0.50571  1.0000
  H   H233      1.0  0.30682  0.56878  0.29705  1.0000
  C   C285      1.0  0.34056  0.89348  0.48182  1.0000
  H   H234      1.0  0.16022  0.52412  0.43410  1.0000
  C   C286      1.0  0.06908  0.78242  0.03665  1.0000
  C   C287      1.0  0.32059  0.57658  0.23799  1.0000
  C   C288      1.0  0.09530  0.50550  0.29081  1.0000
  C   C289      1.0  0.08019  0.49426  0.32192  1.0000
  C   C290      1.0  0.15060  0.50656  0.44335  1.0000
  H   H235      1.0  0.09634  0.81031  0.30087  1.0000
  C   C291      1.0  0.06333  0.73876  0.16800  1.0000
  C   C292      1.0  0.32725  0.56730  0.37477  1.0000
  C   C293      1.0  0.12368  0.56661  0.30228  1.0000
  C   C294      1.0  0.09706  0.54141  0.22169  1.0000
  C   C295      1.0  0.10910  0.57166  0.17047  1.0000
  C   C296      1.0  0.10070  0.56635  0.20920  1.0000
  H   H236      1.0  0.06092  0.50264  0.33255  1.0000
  C   C297      1.0  0.34298  0.87804  0.08078  1.0000
  C   C298      1.0  0.33341  0.64070  0.21424  1.0000
  H   H237      1.0  0.05299  0.81531  0.06585  1.0000
  C   C299      1.0  0.11367  0.55210  0.14381  1.0000
  H   H238      1.0  0.13686  0.56125  0.27761  1.0000
  H   H239      1.0  0.11163  0.59100  0.16109  1.0000
  H   H240      1.0  0.09641  0.58176  0.22910  1.0000
  C   C300      1.0  0.28925  0.59373  0.39840  1.0000
  H   H241      1.0  0.29704  0.69654  0.27494  1.0000
  C   C301      1.0  0.18493  0.58284  0.17653  1.0000
  C   C302      1.0  0.20951  0.59659  0.16998  1.0000
  C   C303      1.0  0.23559  0.58511  0.17474  1.0000
  C   C304      1.0  0.23715  0.55998  0.18655  1.0000
  C   C305      1.0  0.21250  0.54617  0.19403  1.0000
  C   C306      1.0  0.18636  0.55774  0.18848  1.0000
  P   P11       1.0  0.21364  0.51375  0.20989  1.0000
  C   C307      1.0  0.19138  0.49630  0.17665  1.0000
  C   C308      1.0  0.24912  0.50182  0.20919  1.0000
  C   C309      1.0  0.26906  0.51205  0.23505  1.0000
  C   C310      1.0  0.17208  0.47840  0.19083  1.0000
  H   H242      1.0  0.07854  0.46371  0.36392  1.0000
  C   C311      1.0  0.34261  0.88969  0.52253  1.0000
  C   C312      1.0  0.17476  0.48875  0.10990  1.0000
  C   C313      1.0  0.19263  0.50133  0.13593  1.0000
  C   C314      1.0  0.20195  0.51033  0.26042  1.0000
  C   C315      1.0  0.18980  0.53033  0.28123  1.0000
  C   C316      1.0  0.18148  0.52704  0.32059  1.0000
  C   C317      1.0  0.18603  0.50420  0.33974  1.0000
  C   C318      1.0  0.19869  0.48448  0.31955  1.0000
  C   C319      1.0  0.20621  0.48739  0.27990  1.0000
  H   H243      1.0  0.16478  0.59189  0.17318  1.0000
  H   H244      1.0  0.20833  0.61628  0.16200  1.0000
  H   H245      1.0  0.25464  0.59592  0.17005  1.0000
  H   H246      1.0  0.25765  0.55166  0.18978  1.0000
  H   H247      1.0  0.16706  0.54746  0.19395  1.0000
  H   H248      1.0  0.24152  0.47249  0.16623  1.0000
  H   H249      1.0  0.26335  0.52736  0.25448  1.0000
  H   H250      1.0  0.17069  0.47381  0.22183  1.0000
  C   C320      1.0  0.33798  0.91444  0.13960  1.0000
  H   H251      1.0  0.34002  0.78207  0.26873  1.0000
  H   H252      1.0  0.17574  0.49274  0.07854  1.0000
  H   H253      1.0  0.20733  0.51508  0.12437  1.0000
  H   H254      1.0  0.18725  0.54858  0.26775  1.0000
  H   H255      1.0  0.17265  0.54254  0.33696  1.0000
  C   C321      1.0  0.34361  0.81871  0.16957  1.0000
  S   S51       1.0  0.27783  0.63189  0.22685  1.0000
  H   H256      1.0  0.10843  0.70778  0.36799  1.0000
  H   H257      1.0  0.26367  0.57825  0.44508  1.0000
  C   C322      1.0  0.33088  0.82946  0.20270  1.0000
  H   H258      1.0  0.09674  0.50260  0.20271  1.0000
  C   C323      1.0  0.13477  0.58213  0.33140  1.0000
  H   H259      1.0  0.09413  0.86724  0.16681  1.0000
  H   H260      1.0  0.10890  0.51837  0.42797  1.0000
  C   C324      1.0  0.31991  0.54912  0.40313  1.0000
  H   H261      1.0  0.30121  0.64321  0.30394  1.0000
  H   H262      1.0  0.14539  0.85847  0.16547  1.0000
  P   P12       1.0  0.08359  0.53494  0.27050  1.0000
  H   H263      1.0  0.06211  0.83764  0.26754  1.0000
  C   C325      1.0  0.20882  0.77231  0.19041  1.0000
  C   C326      1.0  0.25456  0.78660  0.21273  1.0000
  H   H264      1.0  0.16719  0.73355  0.26826  1.0000
  H   H265      1.0  0.34650  0.87865  0.46161  1.0000
  C   C327      1.0  0.09606  0.55771  0.30546  1.0000
  C   C328      1.0  0.10116  0.52190  0.19457  1.0000
  C   C329      1.0  0.11833  0.58925  0.36368  1.0000
  H   H266      1.0  0.15629  0.58847  0.32900  1.0000
  C   C330      1.0  0.29633  0.50246  0.23629  1.0000
  P   P13       1.0  0.17167  0.76743  0.19909  1.0000
  H   H267      1.0  0.12715  0.60145  0.38602  1.0000
  H   H268      1.0  0.21649  0.79283  0.24478  1.0000
  H   H269      1.0  0.11968  0.55623  0.11359  1.0000
  S   S52       1.0  0.26660  0.44921  0.28483  1.0000
  H   H270      1.0  0.06903  0.74425  0.10541  1.0000
  C   C331      1.0  0.22553  0.78477  0.21831  1.0000
  C   C332      1.0  0.22996  0.45651  0.47510  1.0000
  C   C333      1.0  0.34656  0.90686  0.25087  1.0000
  H   H271      1.0  0.34981  0.86697  0.26041  1.0000
  C   C334      1.0  0.10962  0.52724  0.15585  1.0000
  C   C335      1.0  0.32486  0.57225  0.27824  1.0000
  H   H272      1.0  0.34533  0.47308  0.32192  1.0000
  C   C336      1.0  0.16319  0.75258  0.27766  1.0000
  C   C337      1.0  0.33961  0.72962  0.21233  1.0000
  C   C338      1.0  0.12564  0.46146  0.46743  1.0000
  C   C339      1.0  0.31184  0.63950  0.24238  1.0000
  H   H273      1.0  0.32458  0.47411  0.21429  1.0000
  H   H274      1.0  0.11413  0.78523  0.20819  1.0000
  C   C340      1.0  0.25593  0.46650  0.48609  1.0000
  C   C341      1.0  0.11853  0.92706  0.50232  1.0000
  C   C342      1.0  0.16384  0.77258  0.25063  1.0000
  C   C343      1.0  0.15835  0.75715  0.31775  1.0000
  H   H275      1.0  0.15861  0.74171  0.33864  1.0000
  H   H276      1.0  0.26733  0.79590  0.23466  1.0000
  H   H277      1.0  0.04286  0.49617  0.24948  1.0000
  C   C344      1.0  0.34545  0.64916  0.29371  1.0000
  C   C345      1.0  0.30228  0.70854  0.17654  1.0000
  C   C346      1.0  0.27151  0.87168  0.50342  1.0000
  C   C347      1.0  0.12162  0.50334  0.43992  1.0000
  H   H278      1.0  0.05851  0.55748  0.34181  1.0000
  C   C348      1.0  0.15477  0.78171  0.33125  1.0000
  C   C349      1.0  0.03979  0.78122  0.23290  1.0000
  H   H279      1.0  0.03956  0.68454  0.21051  1.0000
  H   H280      1.0  0.14160  0.85896  0.52620  1.0000
  C   C350      1.0  0.15407  0.46610  0.16477  1.0000
  H   H281      1.0  0.03962  0.67130  0.14095  1.0000
  C   C351      1.0  0.15060  0.78877  0.17013  1.0000
  H   H282      1.0  0.22538  0.45428  0.44400  1.0000
  C   C352      1.0  0.15992  0.79717  0.26437  1.0000
  C   C353      1.0  0.15558  0.80172  0.30453  1.0000
  H   H283      1.0  0.29202  0.70402  0.14903  1.0000
  H   H284      1.0  0.16109  0.81295  0.24420  1.0000
  Fe  Fe24      1.0  0.04166  0.45255  0.13133  1.0000
  H   H285      1.0  0.18271  0.79693  0.12640  1.0000
  C   C354      1.0  0.32099  0.93496  0.49307  1.0000
  H   H286      1.0  0.07795  0.58614  0.39205  1.0000
  C   C355      1.0  0.11595  0.81916  0.12324  1.0000
  C   C356      1.0  0.31797  0.89535  0.13689  1.0000
  H   H287      1.0  0.15355  0.82087  0.31490  1.0000
  S   S53       1.0  0.03302  0.86650  0.03544  1.0000
  C   C357      1.0  0.16114  0.79978  0.13537  1.0000
  C   C358      1.0  0.12265  0.79337  0.18137  1.0000
  C   C359      1.0  0.11522  0.46153  0.32685  1.0000
  C   C360      1.0  0.15486  0.46440  0.47059  1.0000
  H   H288      1.0  0.27086  0.94245  0.31797  1.0000
  H   H289      1.0  0.34012  0.58462  0.18182  1.0000
  H   H290      1.0  0.32189  0.84813  0.20098  1.0000
  S   S54       1.0  0.04507  0.49147  0.15569  1.0000
  H   H291      1.0  0.09424  0.76464  0.29268  1.0000
  C   C361      1.0  0.12086  0.49493  0.27871  1.0000
  H   H292      1.0  0.14146  0.46140  0.10438  1.0000
  C   C362      1.0  0.08464  0.71741  0.31605  1.0000
  C   C363      1.0  0.04845  0.80011  0.04568  1.0000
  C   C364      1.0  0.09016  0.47233  0.33988  1.0000
  C   C365      1.0  0.10723  0.70669  0.33610  1.0000
  H   H293      1.0  0.23745  0.93731  0.37404  1.0000
  C   C366      1.0  0.06123  0.81756  0.26312  1.0000
  C   C367      1.0  0.16722  0.48718  0.45848  1.0000
  H   H294      1.0  0.29944  0.57738  0.22646  1.0000
  H   H295      1.0  0.09493  0.90526  0.04212  1.0000
  C   C368      1.0  0.31780  0.64393  0.28214  1.0000
  C   C369      1.0  0.22009  0.89618  0.49701  1.0000
  H   H296      1.0  0.31777  0.60437  0.35196  1.0000
  C   C370      1.0  0.07967  0.56457  0.33827  1.0000
  H   H297      1.0  0.04051  0.54399  0.16851  1.0000
  Fe  Fe25      1.0  0.27690  0.45177  0.34891  1.0000
  H   H298      1.0  0.13363  0.50386  0.25618  1.0000
  H   H299      1.0  0.20021  0.90579  0.49462  1.0000
  H   H300      1.0  0.33618  0.92831  0.16282  1.0000
  H   H301      1.0  0.33150  0.53176  0.40565  1.0000
  H   H302      1.0  0.11189  0.51207  0.13485  1.0000
  H   H303      1.0  0.27724  0.61092  0.39657  1.0000
  C   C371      1.0  0.05806  0.76528  0.25362  1.0000
  C   C372      1.0  0.12726  0.69329  0.27390  1.0000
  H   H304      1.0  0.31153  0.51033  0.25651  1.0000
  C   C373      1.0  0.06311  0.73116  0.12852  1.0000
  C   C374      1.0  0.14382  0.81489  0.11201  1.0000
  C   C375      1.0  0.09071  0.58056  0.36705  1.0000
  C   C376      1.0  0.04636  0.69770  0.18796  1.0000
  C   C377      1.0  0.05471  0.70680  0.11881  1.0000
  H   H305      1.0  0.32881  0.63749  0.18343  1.0000
  C   C378      1.0  0.10543  0.80847  0.15802  1.0000
  H   H306      1.0  0.08662  0.47840  0.44974  1.0000
  H   H307      1.0  0.15218  0.78525  0.36253  1.0000
  C   C379      1.0  0.03155  0.55829  0.26703  1.0000
  C   C380      1.0  0.04664  0.69003  0.14857  1.0000
  H   H308      1.0  0.07021  0.75759  0.17484  1.0000
  C   C381      1.0  0.10474  0.70403  0.25373  1.0000
  C   C382      1.0  0.08039  0.80205  0.28227  1.0000
  C   C383      1.0  0.32974  0.81614  0.23827  1.0000
  H   H309      1.0  0.31971  0.82435  0.26399  1.0000
  H   H310      1.0  0.18959  0.49022  0.46056  1.0000
  C   C384      1.0  0.28178  0.57540  0.42612  1.0000
  C   C385      1.0  0.35099  0.51244  0.33395  1.0000
  C   C386      1.0  0.07890  0.77603  0.27762  1.0000
  H   H311      1.0  0.10407  0.70246  0.22199  1.0000
  C   C387      1.0  0.04601  0.53542  0.26552  1.0000
  H   H312      1.0  0.14990  0.46442  0.28637  1.0000
  C   C388      1.0  0.12341  0.93680  0.03906  1.0000
  H   H313      1.0  0.33791  0.72480  0.27596  1.0000
  H   H314      1.0  0.30077  0.89456  0.15803  1.0000
  C   C389      1.0  0.04107  0.80719  0.23825  1.0000
  C   C390      1.0  0.14107  0.88835  0.48289  1.0000
  H   H315      1.0  0.08953  0.78371  0.05035  1.0000
  C   C391      1.0  0.13282  0.91285  0.47404  1.0000
  H   H316      1.0  0.13350  0.93237  0.06684  1.0000
  C   C392      1.0  0.32978  0.91600  0.46707  1.0000
  H   H317      1.0  0.32875  0.51637  0.33217  1.0000
  H   H318      1.0  0.33369  0.73183  0.14911  1.0000
  H   H319      1.0  0.03945  0.68418  0.28863  1.0000
  H   H320      1.0  0.26384  0.93523  0.51788  1.0000
  C   C393      1.0  0.35528  0.79466  0.17206  1.0000
  C   C394      1.0  0.03167  0.51364  0.25390  1.0000
  Fe  Fe26      1.0  0.02707  0.87245  0.18167  1.0000
  S   S55       1.0  0.03105  0.83915  0.14158  1.0000
  H   H321      1.0  0.34497  0.86349  0.05868  1.0000
  H   H322      1.0  0.04256  0.57561  0.27341  1.0000
  H   H323      1.0  0.13760  0.92074  0.44520  1.0000
  C   C395      1.0  0.35215  0.57233  0.29369  1.0000
  H   H324      1.0  0.35008  0.65248  0.32449  1.0000
  C   C396      1.0  0.26235  0.46952  0.52600  1.0000
  C   C397      1.0  0.25844  0.94445  0.37924  1.0000
  H   H325      1.0  0.12304  0.44448  0.34039  1.0000
  C   C398      1.0  0.02802  0.87636  0.95636  1.0000
  H   H326      1.0  0.04022  0.82848  0.53728  1.0000
  C   C399      1.0  0.08655  0.91075  0.87937  1.0000
  H   H327      1.0  0.10248  0.92852  0.56153  1.0000
  H   H328      1.0  0.25421  0.45326  0.01331  1.0000
  C   C400      1.0  0.03420  0.83226  0.60005  1.0000
  S   S56       1.0  0.05743  0.84320  0.74434  1.0000
  H   H329      1.0  0.23946  0.49481  0.98749  1.0000
  Fe  Fe27      1.0  0.25841  0.89292  0.64103  1.0000
  S   S57       1.0  0.26294  0.86879  0.69517  1.0000
  S   S58       1.0  0.27612  0.87827  0.58338  1.0000
  C   C401      1.0  0.13160  0.93063  0.68529  1.0000
  S   S59       1.0  0.23399  0.91413  0.74496  1.0000
  Fe  Fe28      1.0  0.27759  0.90384  0.72541  1.0000
  S   S60       1.0  0.31093  0.90583  0.77294  1.0000
  Fe  Fe29      1.0  0.21904  0.88110  0.71025  1.0000
  S   S61       1.0  0.19074  0.85087  0.73597  1.0000
  S   S62       1.0  0.27656  0.92715  0.67026  1.0000
  S   S63       1.0  0.21355  0.90266  0.65369  1.0000
  C   C402      1.0  0.26992  0.80958  0.76026  1.0000
  C   C403      1.0  0.03729  0.76233  0.99084  1.0000
  C   C404      1.0  0.09434  0.84728  0.74268  1.0000
  C   C405      1.0  0.10748  0.87078  0.73799  1.0000
  C   C406      1.0  0.13714  0.87238  0.73535  1.0000
  C   C407      1.0  0.15358  0.85062  0.73799  1.0000
  C   C408      1.0  0.14026  0.82743  0.74346  1.0000
  C   C409      1.0  0.11096  0.82574  0.74512  1.0000
  H   H330      1.0  0.09486  0.88760  0.73613  1.0000
  H   H331      1.0  0.14739  0.89037  0.73236  1.0000
  H   H332      1.0  0.15271  0.81055  0.74596  1.0000
  H   H333      1.0  0.10109  0.80755  0.74873  1.0000
  H   H334      1.0  0.08366  0.85366  0.53556  1.0000
  Fe  Fe30      1.0  0.23191  0.93489  0.68744  1.0000
  H   H335      1.0  0.34719  0.78650  0.68344  1.0000
  C   C410      1.0  0.06944  0.85656  0.63425  1.0000
  Fe  Fe31      1.0  0.02737  0.87478  0.75766  1.0000
  H   H336      1.0  0.02448  0.88377  0.89381  1.0000
  H   H337      1.0  0.15401  0.93282  0.82466  1.0000
  H   H338      1.0  0.22260  0.90067  0.56042  1.0000
  H   H339      1.0  0.32687  0.87680  0.64341  1.0000
  H   H340      1.0  0.06764  0.91082  0.62220  1.0000
  H   H341      1.0  0.17578  0.88113  0.57791  1.0000
  H   H342      1.0  0.06806  0.90418  0.89489  1.0000
  H   H343      1.0  0.27513  0.86318  0.81394  1.0000
  H   H344      1.0  0.20816  0.81752  0.64016  1.0000
  H   H345      1.0  0.23940  0.83355  0.78828  1.0000
  C   C411      1.0  0.12445  0.90267  0.83321  1.0000
  C   C412      1.0  0.24311  0.46189  0.55492  1.0000
  C   C413      1.0  0.25866  0.88125  0.53757  1.0000
  S   S64       1.0  0.03395  0.90027  0.80921  1.0000
  C   C414      1.0  0.31874  0.82248  0.76625  1.0000
  H   H346      1.0  0.06221  0.94307  0.67398  1.0000
  C   C415      1.0  0.08572  0.91626  0.63945  1.0000
  C   C416      1.0  0.07299  0.85076  0.56347  1.0000
  C   C417      1.0  0.10542  0.94163  0.69170  1.0000
  C   C418      1.0  0.26154  0.83012  0.78294  1.0000
  H   H347      1.0  0.35192  0.82011  0.83799  1.0000
  C   C419      1.0  0.10173  0.92154  0.02520  1.0000
  H   H348      1.0  0.09195  0.87600  0.84762  1.0000
  C   C420      1.0  0.08867  0.92720  0.98943  1.0000
  H   H349      1.0  0.14953  0.45995  0.55940  1.0000
  H   H350      1.0  0.21537  0.85358  0.59492  1.0000
  H   H351      1.0  0.34319  0.91033  0.69971  1.0000
  H   H352      1.0  0.07742  0.86394  0.66181  1.0000
  H   H353      1.0  0.34983  0.87181  0.53385  1.0000
  C   C421      1.0  0.11312  0.91704  0.53987  1.0000
  C   C422      1.0  0.19454  0.84948  0.60636  1.0000
  H   H354      1.0  0.28266  0.47683  0.53453  1.0000
  C   C423      1.0  0.06351  0.76354  0.00918  1.0000
  C   C424      1.0  0.20859  0.47935  0.94811  1.0000
  C   C425      1.0  0.21700  0.45213  0.54404  1.0000
  P   P14       1.0  0.11552  0.87952  0.59795  1.0000
  C   C426      1.0  0.08368  0.86102  0.59846  1.0000
  C   C427      1.0  0.14490  0.85984  0.61150  1.0000
  C   C428      1.0  0.14109  0.83933  0.63712  1.0000
  C   C429      1.0  0.16379  0.82397  0.64696  1.0000
  C   C430      1.0  0.19049  0.82907  0.63169  1.0000
  C   C431      1.0  0.22956  0.47784  0.97672  1.0000
  C   C432      1.0  0.17194  0.86499  0.59666  1.0000
  H   H355      1.0  0.20271  0.44618  0.56709  1.0000
  C   C433      1.0  0.33991  0.85284  0.69120  1.0000
  C   C434      1.0  0.35090  0.90668  0.94752  1.0000
  H   H356      1.0  0.17968  0.45912  0.91184  1.0000
  H   H357      1.0  0.32934  0.90599  0.93753  1.0000
  C   C435      1.0  0.11181  0.90451  0.63367  1.0000
  H   H358      1.0  0.20225  0.49749  0.93669  1.0000
  C   C436      1.0  0.34305  0.86427  0.65422  1.0000
  C   C437      1.0  0.10021  0.89467  0.85297  1.0000
  C   C438      1.0  0.29839  0.80576  0.75184  1.0000
  C   C439      1.0  0.13471  0.91198  0.65663  1.0000
  C   C440      1.0  0.28165  0.84675  0.79751  1.0000
  H   H359      1.0  0.32524  0.85663  0.79944  1.0000
  H   H360      1.0  0.12082  0.83530  0.65021  1.0000
  H   H361      1.0  0.16085  0.80850  0.66739  1.0000
  H   H362      1.0  0.13506  0.89013  0.81293  1.0000
  C   C441      1.0  0.04479  0.84232  0.63498  1.0000
  C   C442      1.0  0.34724  0.90668  0.76264  1.0000
  H   H363      1.0  0.33461  0.90519  0.58012  1.0000
  H   H364      1.0  0.34014  0.89748  0.00723  1.0000
  H   H365      1.0  0.07216  0.91492  0.97894  1.0000
  H   H366      1.0  0.30424  0.79018  0.73323  1.0000
  C   C443      1.0  0.31011  0.84296  0.78921  1.0000
  H   H367      1.0  0.05062  0.87454  0.95547  1.0000
  C   C444      1.0  0.19580  0.45748  0.93408  1.0000
  H   H368      1.0  0.15481  0.90300  0.65321  1.0000
  C   C445      1.0  0.09682  0.93508  0.88572  1.0000
  C   C446      1.0  0.04831  0.83645  0.56431  1.0000
  H   H369      1.0  0.03407  0.83898  0.66287  1.0000
  H   H370      1.0  0.25417  0.79706  0.74829  1.0000
  H   H371      1.0  0.03348  0.74798  0.96891  1.0000
  C   C447      1.0  0.13512  0.92674  0.83990  1.0000
  H   H372      1.0  0.07968  0.75012  0.00155  1.0000
  H   H373      1.0  0.32157  0.85723  0.70874  1.0000
  H   H374      1.0  0.14940  0.93613  0.70319  1.0000
  H   H375      1.0  0.24867  0.46309  0.58586  1.0000
  C   C448      1.0  0.08255  0.93464  0.66855  1.0000
  C   C449      1.0  0.12182  0.89257  0.54926  1.0000
  C   C450      1.0  0.23785  0.45444  0.99125  1.0000
  C   C451      1.0  0.12152  0.94283  0.86636  1.0000
  C   C452      1.0  0.33411  0.90852  0.54857  1.0000
  P   P15       1.0  0.35513  0.81960  0.75145  1.0000
  C   C453      1.0  0.23270  0.89329  0.53432  1.0000
  C   C454      1.0  0.32333  0.93105  0.53393  1.0000
  C   C455      1.0  0.63845  0.30946  0.50152  1.0000
  H   H376      1.0  0.42649  0.39763  0.12479  1.0000
  Fe  Fe32      1.0  0.52093  0.39883  0.14114  1.0000
  S   S65       1.0  0.52152  0.38492  0.20410  1.0000
  S   S66       1.0  0.51383  0.37189  0.09061  1.0000
  Fe  Fe33      1.0  0.49443  0.41840  0.21715  1.0000
  S   S67       1.0  0.46100  0.41728  0.26547  1.0000
  C   C456      1.0  0.57576  0.34540  0.51560  1.0000
  H   H377      1.0  0.53603  0.34224  0.48589  1.0000
  C   C457      1.0  0.68086  0.39195  0.36562  1.0000
  C   C458      1.0  0.45606  0.95692  0.09480  1.0000
  C   C459      1.0  0.42456  0.41648  0.25579  1.0000
  C   C460      1.0  0.40564  0.41765  0.28762  1.0000
  C   C461      1.0  0.37095  0.32542  0.44708  1.0000
  C   C462      1.0  0.65649  0.42632  0.39743  1.0000
  C   C463      1.0  0.39315  0.38576  0.45968  1.0000
  H   H378      1.0  0.40724  0.28475  0.50566  1.0000
  H   H379      1.0  0.68040  0.37407  0.35041  1.0000
  C   C464      1.0  0.59087  0.36142  0.09370  1.0000
  H   H380      1.0  0.37691  0.41356  0.18115  1.0000
  Fe  Fe34      1.0  0.55853  0.41077  0.21162  1.0000
  S   S68       1.0  0.59468  0.40137  0.25266  1.0000
  S   S69       1.0  0.56031  0.42171  0.14757  1.0000
  C   C465      1.0  0.38964  0.29508  0.49377  1.0000
  H   H381      1.0  0.67212  0.36617  0.50291  1.0000
  C   C466      1.0  0.62961  0.40812  0.23833  1.0000
  C   C467      1.0  0.63636  0.41585  0.19995  1.0000
  C   C468      1.0  0.66443  0.42103  0.18965  1.0000
  C   C469      1.0  0.36593  0.41628  0.24278  1.0000
  H   H382      1.0  0.58996  0.40190  0.44565  1.0000
  C   C470      1.0  0.65106  0.40612  0.26645  1.0000
  H   H383      1.0  0.62000  0.41773  0.17816  1.0000
  H   H384      1.0  0.56337  0.34723  0.04940  1.0000
  C   C471      1.0  0.39067  0.40864  0.47957  1.0000
  H   H385      1.0  0.64587  0.40028  0.29613  1.0000
  H   H386      1.0  0.36225  0.41916  0.30586  1.0000
  H   H387      1.0  0.68250  0.35935  0.23391  1.0000
  C   C472      1.0  0.68588  0.41903  0.21778  1.0000
  C   C473      1.0  0.42111  0.43656  0.10876  1.0000
  C   C474      1.0  0.55565  0.35249  0.48778  1.0000
  C   C475      1.0  0.63433  0.35348  0.03947  1.0000
  H   H388      1.0  0.41092  0.37373  0.46568  1.0000
  C   C476      1.0  0.53030  0.43747  0.34480  1.0000
  C   C477      1.0  0.65591  0.40289  0.37887  1.0000
  H   H389      1.0  0.36555  0.44187  0.48798  1.0000
  H   H390      1.0  0.41357  0.41872  0.31741  1.0000
  C   C478      1.0  0.65449  0.28925  0.48779  1.0000
  H   H391      1.0  0.45712  0.38376  0.33629  1.0000
  H   H392      1.0  0.41477  0.31499  0.45122  1.0000
  C   C479      1.0  0.67794  0.28117  0.50897  1.0000
  C   C480      1.0  0.67903  0.41202  0.25648  1.0000
  C   C481      1.0  0.40896  0.34632  0.38295  1.0000
  C   C482      1.0  0.41880  0.32293  0.36994  1.0000
  C   C483      1.0  0.44286  0.32148  0.34617  1.0000
  C   C484      1.0  0.45685  0.34339  0.33449  1.0000
  C   C485      1.0  0.44691  0.36676  0.34675  1.0000
  C   C486      1.0  0.42305  0.36826  0.37084  1.0000
  C   C487      1.0  0.37650  0.41781  0.28115  1.0000
  H   H393      1.0  0.62271  0.37618  0.13212  1.0000
  H   H394      1.0  0.43751  0.98099  0.05098  1.0000
  H   H395      1.0  0.36421  0.37797  0.33811  1.0000
  S   S70       1.0  0.49102  0.43046  0.15360  1.0000
  H   H396      1.0  0.47030  0.97118  0.10562  1.0000
  P   P16       1.0  0.37565  0.34839  0.40832  1.0000
  C   C488      1.0  0.68482  0.32599  0.27003  1.0000
  C   C489      1.0  0.58504  0.35097  0.05681  1.0000
  H   H397      1.0  0.66477  0.31879  0.26016  1.0000
  H   H398      1.0  0.66133  0.36944  0.08386  1.0000
  H   H399      1.0  0.45015  0.30342  0.33572  1.0000
  H   H400      1.0  0.47494  0.34238  0.31497  1.0000
  H   H401      1.0  0.62063  0.31558  0.48441  1.0000
  H   H402      1.0  0.41501  0.38662  0.37847  1.0000
  C   C490      1.0  0.43756  0.96244  0.06414  1.0000
  H   H403      1.0  0.53726  0.41891  0.35343  1.0000
  H   H404      1.0  0.38812  0.04213  0.47525  1.0000
  H   H405      1.0  0.66953  0.42662  0.15972  1.0000
  H   H406      1.0  0.53113  0.42062  0.06067  1.0000
  H   H407      1.0  0.48639  0.42801  0.34818  1.0000
  C   C491      1.0  0.51591  0.38448  0.04241  1.0000
  H   H408      1.0  0.57383  0.36500  0.11430  1.0000
  C   C492      1.0  0.41410  0.41503  0.21738  1.0000
  H   H409      1.0  0.54520  0.37825  0.44096  1.0000
  H   H410      1.0  0.42858  0.41394  0.19282  1.0000
  C   C493      1.0  0.64010  0.36394  0.07644  1.0000
  C   C494      1.0  0.61837  0.36781  0.10362  1.0000
  C   C495      1.0  0.44565  0.40608  0.06864  1.0000
  C   C496      1.0  0.37597  0.00626  0.49962  1.0000
  C   C497      1.0  0.60124  0.35856  0.51830  1.0000
  C   C498      1.0  0.60620  0.37905  0.49291  1.0000
  C   C499      1.0  0.38489  0.41488  0.21092  1.0000
  C   C500      1.0  0.37262  0.02721  0.47516  1.0000
  H   H411      1.0  0.39415  0.00489  0.51856  1.0000
  C   C501      1.0  0.45111  0.42457  0.04025  1.0000
  H   H412      1.0  0.35898  0.97098  0.51868  1.0000
  H   H413      1.0  0.40737  0.30589  0.37710  1.0000
  C   C502      1.0  0.58605  0.38608  0.46511  1.0000
  H   H414      1.0  0.63608  0.39342  0.37396  1.0000
  H   H415      1.0  0.45369  0.38722  0.06453  1.0000
  C   C503      1.0  0.37261  0.37835  0.43250  1.0000
  C   C504      1.0  0.39378  0.31211  0.46267  1.0000
  C   C505      1.0  0.68208  0.43898  0.40287  1.0000
  C   C506      1.0  0.56081  0.37279  0.46250  1.0000
  H   H416      1.0  0.64883  0.27990  0.46061  1.0000
  H   H417      1.0  0.40641  0.41422  0.50077  1.0000
  S   S71       1.0  0.53155  0.44326  0.22921  1.0000
  H   H418      1.0  0.64064  0.99679  0.51752  1.0000
  C   C507      1.0  0.52488  0.40915  0.03594  1.0000
  C   C508      1.0  0.43047  0.41200  0.10273  1.0000
  H   H419      1.0  0.66817  0.42971  0.48344  1.0000
  C   C509      1.0  0.68054  0.01429  0.52907  1.0000
  H   H420      1.0  0.63696  0.43468  0.40716  1.0000
  H   H421      1.0  0.62541  0.38977  0.49444  1.0000
  C   C510      1.0  0.36767  0.42422  0.47242  1.0000
  C   C511      1.0  0.36282  0.29155  0.50984  1.0000
  C   C512      1.0  0.50168  0.44260  0.34196  1.0000
  H   H422      1.0  0.40982  0.44127  0.13556  1.0000
  C   C513      1.0  0.60683  0.34636  0.02969  1.0000
  Fe  Fe35      1.0  0.46997  0.14404  0.76659  1.0000
  S   S72       1.0  0.43947  0.13825  0.71670  1.0000
  S   S73       1.0  0.46035  0.14413  0.83141  1.0000
  Fe  Fe36      1.0  0.49656  0.37503  0.78615  1.0000
  S   S74       1.0  0.46266  0.37293  0.73965  1.0000
  S   S75       1.0  0.49627  0.35860  0.84756  1.0000
  C   C514      1.0  0.36757  0.38056  0.75906  1.0000
  H   H423      1.0  0.58603  0.97169  0.91528  1.0000
  C   C515      1.0  0.37239  0.31087  0.61583  1.0000
  C   C516      1.0  0.42628  0.37647  0.74843  1.0000
  C   C517      1.0  0.41518  0.38136  0.78598  1.0000
  C   C518      1.0  0.38587  0.38357  0.79120  1.0000
  H   H424      1.0  0.42912  0.38329  0.81089  1.0000
  H   H425      1.0  0.37733  0.38712  0.82028  1.0000
  C   C519      1.0  0.54174  0.25476  0.84443  1.0000
  C   C520      1.0  0.52295  0.23458  0.84810  1.0000
  H   H426      1.0  0.56387  0.25123  0.84024  1.0000
  H   H427      1.0  0.53067  0.21554  0.84676  1.0000
  C   C521      1.0  0.42476  0.24737  0.79412  1.0000
  C   C522      1.0  0.47330  0.00966  0.67404  1.0000
  C   C523      1.0  0.39501  0.14256  0.76842  1.0000
  C   C524      1.0  0.40382  0.14160  0.72905  1.0000
  C   C525      1.0  0.45629  0.02109  0.70281  1.0000
  C   C526      1.0  0.37821  0.01790  0.80334  1.0000
  C   C527      1.0  0.39982  0.01437  0.83059  1.0000
  H   H428      1.0  0.41011  0.14132  0.79181  1.0000
  C   C528      1.0  0.47859  0.98388  0.67567  1.0000
  H   H429      1.0  0.50137  0.35048  0.01484  1.0000
  C   C529      1.0  0.52959  0.06463  0.81904  1.0000
  C   C530      1.0  0.53477  0.04325  0.79633  1.0000
  H   H430      1.0  0.54031  0.08200  0.81211  1.0000
  H   H431      1.0  0.54937  0.04418  0.77186  1.0000
  C   C531      1.0  0.50825  0.36962  0.01004  1.0000
  C   C532      1.0  0.50911  0.37951  0.97146  1.0000
  H   H432      1.0  0.42878  0.27109  0.93344  1.0000
  H   H433      1.0  0.50268  0.36817  0.94669  1.0000
  S   S76       1.0  0.52643  0.99495  0.77409  1.0000
  Fe  Fe37      1.0  0.50111  0.12361  0.83799  1.0000
  S   S77       1.0  0.50859  0.12042  0.77266  1.0000
  S   S78       1.0  0.50396  0.09032  0.87883  1.0000
  Fe  Fe38      1.0  0.48682  0.17892  0.83322  1.0000
  S   S79       1.0  0.49355  0.18035  0.76798  1.0000
  S   S80       1.0  0.47104  0.21405  0.86209  1.0000
  Fe  Fe39      1.0  0.53120  0.15689  0.78031  1.0000
  S   S81       1.0  0.57095  0.16714  0.74924  1.0000
  S   S82       1.0  0.52689  0.15851  0.84613  1.0000
  Fe  Fe40      1.0  0.52194  0.39267  0.86350  1.0000
  S   S83       1.0  0.51888  0.41056  0.80331  1.0000
  S   S84       1.0  0.51871  0.41756  0.91736  1.0000
  Fe  Fe41      1.0  0.53793  0.34225  0.82967  1.0000
  S   S85       1.0  0.53643  0.35579  0.76715  1.0000
  S   S86       1.0  0.55609  0.30428  0.84224  1.0000
  Fe  Fe42      1.0  0.55876  0.38990  0.78932  1.0000
  S   S87       1.0  0.59591  0.40895  0.75979  1.0000
  S   S88       1.0  0.56341  0.37481  0.85048  1.0000
  C   C533      1.0  0.62120  0.38932  0.73775  1.0000
  C   C534      1.0  0.42248  0.05826  0.65901  1.0000
  C   C535      1.0  0.44985  0.98054  0.73451  1.0000
  C   C536      1.0  0.50826  0.29076  0.66728  1.0000
  C   C537      1.0  0.63594  0.34834  0.71494  1.0000
  C   C538      1.0  0.61665  0.36350  0.73515  1.0000
  H   H434      1.0  0.63183  0.32851  0.71245  1.0000
  H   H435      1.0  0.59801  0.35525  0.74807  1.0000
  C   C539      1.0  0.49444  0.23912  0.85483  1.0000
  C   C540      1.0  0.48461  0.26387  0.85625  1.0000
  C   C541      1.0  0.50324  0.28403  0.85079  1.0000
  C   C542      1.0  0.53193  0.27949  0.84587  1.0000
  H   H436      1.0  0.46261  0.26747  0.86137  1.0000
  H   H437      1.0  0.49547  0.30304  0.85129  1.0000
  C   C543      1.0  0.59953  0.14978  0.76620  1.0000
  C   C544      1.0  0.62647  0.15720  0.75480  1.0000
  C   C545      1.0  0.64958  0.14234  0.76427  1.0000
  C   C546      1.0  0.64581  0.11954  0.78404  1.0000
  C   C547      1.0  0.61894  0.11256  0.79722  1.0000
  C   C548      1.0  0.59574  0.12785  0.78857  1.0000
  H   H438      1.0  0.62946  0.17434  0.73823  1.0000
  C   C549      1.0  0.52771  0.29428  0.99974  1.0000
  H   H439      1.0  0.61591  0.09512  0.81304  1.0000
  H   H440      1.0  0.57487  0.12211  0.79760  1.0000
  C   C550      1.0  0.52122  0.02063  0.80525  1.0000
  C   C551      1.0  0.50322  0.01908  0.83790  1.0000
  C   C552      1.0  0.49821  0.04050  0.86093  1.0000
  C   C553      1.0  0.51124  0.06332  0.85128  1.0000
  H   H441      1.0  0.49282  0.00156  0.84497  1.0000
  H   H442      1.0  0.48382  0.03953  0.88566  1.0000
  C   C554      1.0  0.51775  0.40428  0.96508  1.0000
  C   C555      1.0  0.52568  0.41903  0.99738  1.0000
  C   C556      1.0  0.38391  0.14328  0.69889  1.0000
  C   C557      1.0  0.65671  0.27764  0.97575  1.0000
  C   C558      1.0  0.40323  0.35342  0.59446  1.0000
  C   C559      1.0  0.64087  0.29808  0.98903  1.0000
  Fe  Fe43      1.0  0.51384  0.95782  0.79989  1.0000
  H   H443      1.0  0.60742  0.06485  0.70486  1.0000
  H   H444      1.0  0.55027  0.06754  0.71174  1.0000
  H   H445      1.0  0.63558  0.98407  0.67575  1.0000
  H   H446      1.0  0.64971  0.41966  0.72414  1.0000
  C   C560      1.0  0.54927  0.27872  0.74727  1.0000
  C   C561      1.0  0.57859  0.27932  0.74899  1.0000
  C   C562      1.0  0.59400  0.25687  0.74741  1.0000
  H   H447      1.0  0.58173  0.04601  0.64347  1.0000
  P   P17       1.0  0.63170  0.25655  0.75307  1.0000
  C   C563      1.0  0.64490  0.28500  0.77536  1.0000
  C   C564      1.0  0.64252  0.23135  0.78535  1.0000
  C   C565      1.0  0.62337  0.21933  0.81084  1.0000
  H   H448      1.0  0.38455  0.22093  0.58835  1.0000
  C   C566      1.0  0.67049  0.29564  0.76298  1.0000
  C   C567      1.0  0.66930  0.31336  0.55777  1.0000
  H   H449      1.0  0.67032  0.14856  0.75595  1.0000
  C   C568      1.0  0.63854  0.31961  0.82114  1.0000
  C   C569      1.0  0.62973  0.29656  0.80590  1.0000
  C   C570      1.0  0.64580  0.25142  0.70419  1.0000
  C   C571      1.0  0.65122  0.22695  0.69086  1.0000
  H   H450      1.0  0.38138  0.10359  0.61764  1.0000
  H   H451      1.0  0.66445  0.25195  0.92778  1.0000
  C   C572      1.0  0.65082  0.27172  0.67870  1.0000
  H   H452      1.0  0.52012  0.28077  0.02127  1.0000
  H   H453      1.0  0.53742  0.29586  0.75136  1.0000
  H   H454      1.0  0.58890  0.29725  0.75279  1.0000
  C   C573      1.0  0.62503  0.36265  0.91963  1.0000
  H   H455      1.0  0.60178  0.22542  0.81285  1.0000
  H   H456      1.0  0.46678  0.22660  0.71959  1.0000
  H   H457      1.0  0.64401  0.30481  0.01874  1.0000
  H   H458      1.0  0.46325  0.41969  0.01421  1.0000
  H   H459      1.0  0.57915  0.42158  0.93823  1.0000
  H   H460      1.0  0.62574  0.32904  0.84305  1.0000
  H   H461      1.0  0.61061  0.28812  0.81718  1.0000
  H   H462      1.0  0.64746  0.21091  0.70978  1.0000
  H   H463      1.0  0.38371  0.25655  0.72345  1.0000
  H   H464      1.0  0.36983  0.95730  0.77385  1.0000
  C   C574      1.0  0.37819  0.32118  0.79158  1.0000
  C   C575      1.0  0.40625  0.31413  0.78767  1.0000
  C   C576      1.0  0.41652  0.30590  0.75121  1.0000
  C   C577      1.0  0.39887  0.30511  0.71808  1.0000
  C   C578      1.0  0.39266  0.04092  0.60756  1.0000
  P   P18       1.0  0.41129  0.29358  0.67094  1.0000
  H   H465      1.0  0.66572  0.17340  0.84714  1.0000
  C   C579      1.0  0.44930  0.29220  0.66981  1.0000
  C   C580      1.0  0.56469  0.98860  0.68031  1.0000
  C   C581      1.0  0.46331  0.27055  0.65669  1.0000
  C   C582      1.0  0.39657  0.25241  0.62454  1.0000
  H   H466      1.0  0.41494  0.37022  0.58686  1.0000
  H   H467      1.0  0.67520  0.32256  0.58503  1.0000
  H   H468      1.0  0.50645  0.32827  0.69127  1.0000
  H   H469      1.0  0.64278  0.38220  0.62108  1.0000
  H   H470      1.0  0.37038  0.32825  0.81948  1.0000
  H   H471      1.0  0.39063  0.14292  0.66836  1.0000
  C   C583      1.0  0.46524  0.31282  0.68251  1.0000
  H   H472      1.0  0.68335  0.28666  0.74071  1.0000
  H   H473      1.0  0.39187  0.19337  0.76726  1.0000
  H   H474      1.0  0.40542  0.44073  0.97741  1.0000
  H   H475      1.0  0.42024  0.31554  0.81270  1.0000
  H   H476      1.0  0.43827  0.30046  0.74919  1.0000
  H   H477      1.0  0.45498  0.32944  0.69384  1.0000
  H   H478      1.0  0.38510  0.02489  0.59109  1.0000
  H   H479      1.0  0.45177  0.25406  0.64766  1.0000
  H   H480      1.0  0.59400  0.95909  0.69330  1.0000
  H   H481      1.0  0.68471  0.39234  0.69023  1.0000
  H   H482      1.0  0.36301  0.19712  0.64388  1.0000
  C   C584      1.0  0.60813  0.34178  0.59953  1.0000
  C   C585      1.0  0.40530  0.07224  0.74800  1.0000
  C   C586      1.0  0.40489  0.25225  0.88865  1.0000
  H   H483      1.0  0.42705  0.98758  0.85879  1.0000
  H   H484      1.0  0.67219  0.26916  0.99491  1.0000
  C   C587      1.0  0.59149  0.97823  0.68289  1.0000
  C   C588      1.0  0.41282  0.08547  0.81542  1.0000
  C   C589      1.0  0.44083  0.07813  0.81256  1.0000
  C   C590      1.0  0.45136  0.06832  0.77724  1.0000
  H   H485      1.0  0.43431  0.42643  0.85931  1.0000
  H   H486      1.0  0.68569  0.23239  0.76518  1.0000
  C   C591      1.0  0.53119  0.09723  0.67822  1.0000
  H   H487      1.0  0.45455  0.08055  0.83758  1.0000
  H   H488      1.0  0.47328  0.06311  0.77560  1.0000
  C   C592      1.0  0.65644  0.38588  0.59614  1.0000
  C   C593      1.0  0.51949  0.98422  0.94572  1.0000
  C   C594      1.0  0.52015  0.01039  0.94376  1.0000
  C   C595      1.0  0.54458  0.02282  0.93150  1.0000
  C   C596      1.0  0.56875  0.00909  0.92163  1.0000
  C   C597      1.0  0.56787  0.98273  0.92353  1.0000
  P   P19       1.0  0.60067  0.02493  0.90650  1.0000
  C   C598      1.0  0.60561  0.02345  0.85372  1.0000
  C   C599      1.0  0.59876  0.05768  0.92000  1.0000
  C   C600      1.0  0.58377  0.07443  0.89599  1.0000
  C   C601      1.0  0.58164  0.09975  0.90605  1.0000
  C   C602      1.0  0.59462  0.10864  0.94015  1.0000
  C   C603      1.0  0.60967  0.09214  0.96425  1.0000
  C   C604      1.0  0.61170  0.06670  0.95431  1.0000
  C   C605      1.0  0.62303  0.04119  0.83491  1.0000
  C   C606      1.0  0.62762  0.04007  0.79427  1.0000
  C   C607      1.0  0.61516  0.02112  0.77210  1.0000
  C   C608      1.0  0.59773  0.00345  0.79044  1.0000
  C   C609      1.0  0.59280  0.00463  0.83112  1.0000
  C   C610      1.0  0.63016  0.01027  0.93076  1.0000
  C   C611      1.0  0.65639  0.00860  0.91176  1.0000
  C   C612      1.0  0.37335  0.19891  0.85595  1.0000
  H   H489      1.0  0.50154  0.02112  0.95100  1.0000
  H   H490      1.0  0.54420  0.04309  0.92947  1.0000
  H   H491      1.0  0.57342  0.06784  0.86964  1.0000
  H   H492      1.0  0.56960  0.11238  0.88752  1.0000
  H   H493      1.0  0.59281  0.12829  0.94793  1.0000
  C   C613      1.0  0.37232  0.22548  0.68696  1.0000
  H   H494      1.0  0.62325  0.05423  0.97348  1.0000
  H   H495      1.0  0.63317  0.05597  0.85156  1.0000
  H   H496      1.0  0.64079  0.05404  0.78008  1.0000
  H   H497      1.0  0.61891  0.02022  0.74074  1.0000
  H   H498      1.0  0.58758  0.98904  0.77300  1.0000
  H   H499      1.0  0.57872  0.99103  0.84438  1.0000
  H   H500      1.0  0.39206  0.30314  0.94635  1.0000
  H   H501      1.0  0.65951  0.01601  0.88229  1.0000
  C   C614      1.0  0.52132  0.31740  0.93895  1.0000
  C   C615      1.0  0.51136  0.30020  0.96690  1.0000
  C   C616      1.0  0.39698  0.18349  0.86031  1.0000
  C   C617      1.0  0.56394  0.32317  0.97683  1.0000
  C   C618      1.0  0.54755  0.32875  0.94370  1.0000
  C   C619      1.0  0.58824  0.38369  0.95635  1.0000
  H   H502      1.0  0.50887  0.32179  0.91328  1.0000
  H   H503      1.0  0.49116  0.29126  0.96279  1.0000
  H   H504      1.0  0.55508  0.34152  0.92110  1.0000
  H   H505      1.0  0.68007  0.41376  0.62792  1.0000
  H   H506      1.0  0.41624  0.09788  0.67012  1.0000
  H   H507      1.0  0.40501  0.09380  0.84244  1.0000
  C   C620      1.0  0.60436  0.36215  0.94939  1.0000
  C   C621      1.0  0.66565  0.38433  0.70234  1.0000
  C   C622      1.0  0.64591  0.39970  0.72169  1.0000
  C   C623      1.0  0.40801  0.37410  0.71634  1.0000
  C   C624      1.0  0.37887  0.37608  0.72159  1.0000
  C   C625      1.0  0.37766  0.97333  0.79002  1.0000
  H   H508      1.0  0.61660  0.18870  0.85149  1.0000
  P   P20       1.0  0.59931  0.33498  0.98060  1.0000
  C   C626      1.0  0.44933  0.22720  0.74016  1.0000
  C   C627      1.0  0.38008  0.25185  0.86653  1.0000
  C   C628      1.0  0.62379  0.12126  0.66404  1.0000
  C   C629      1.0  0.59252  0.31212  0.64989  1.0000
  C   C630      1.0  0.44709  0.24684  0.76717  1.0000
  H   H509      1.0  0.36831  0.13697  0.91677  1.0000
  C   C631      1.0  0.36035  0.31989  0.75907  1.0000
  C   C632      1.0  0.43376  0.06564  0.74439  1.0000
  H   H510      1.0  0.62009  0.14112  0.66876  1.0000
  H   H511      1.0  0.40874  0.03034  0.84584  1.0000
  H   H512      1.0  0.46291  0.26146  0.76779  1.0000
  C   C633      1.0  0.58487  0.02728  0.65506  1.0000
  C   C634      1.0  0.49266  0.26988  0.65543  1.0000
  H   H513      1.0  0.50335  0.25310  0.64546  1.0000
  H   H514      1.0  0.48234  0.02070  0.65025  1.0000
  H   H515      1.0  0.39092  0.07000  0.72375  1.0000
  C   C635      1.0  0.66325  0.33076  0.80716  1.0000
  H   H516      1.0  0.46222  0.10155  0.65623  1.0000
  H   H517      1.0  0.63816  0.34653  0.91403  1.0000
  C   C636      1.0  0.48110  0.09342  0.66792  1.0000
  C   C637      1.0  0.42084  0.44378  0.95427  1.0000
  H   H518      1.0  0.53098  0.29021  0.66625  1.0000
  C   C638      1.0  0.38422  0.96593  0.65863  1.0000
  C   C639      1.0  0.63423  0.06983  0.65344  1.0000
  H   H519      1.0  0.60023  0.30665  0.90742  1.0000
  P   P21       1.0  0.44789  0.05402  0.69825  1.0000
  H   H520      1.0  0.50035  0.97463  0.95449  1.0000
  H   H521      1.0  0.41644  0.37070  0.68722  1.0000
  C   C640      1.0  0.38469  0.22876  0.61781  1.0000
  C   C641      1.0  0.44471  0.00638  0.73323  1.0000
  C   C642      1.0  0.46670  0.96930  0.70576  1.0000
  C   C643      1.0  0.57980  0.23429  0.74001  1.0000
  C   C644      1.0  0.37059  0.31186  0.72250  1.0000
  C   C645      1.0  0.61251  0.40553  0.90339  1.0000
  H   H522      1.0  0.68855  0.95648  0.80104  1.0000
  H   H523      1.0  0.54653  0.97773  0.68965  1.0000
  C   C646      1.0  0.62707  0.00049  0.96911  1.0000
  H   H524      1.0  0.66150  0.08211  0.60555  1.0000
  H   H525      1.0  0.60711  0.00176  0.98448  1.0000
  C   C647      1.0  0.40928  0.27077  0.91709  1.0000
  H   H526      1.0  0.59117  0.37929  0.60541  1.0000
  C   C648      1.0  0.62086  0.30916  0.96423  1.0000
  H   H527      1.0  0.62812  0.27057  0.88457  1.0000
  C   C649      1.0  0.37258  0.21530  0.64904  1.0000
  H   H528      1.0  0.40568  0.26275  0.60005  1.0000
  C   C650      1.0  0.56135  0.01300  0.66591  1.0000
  C   C651      1.0  0.36311  0.95739  0.63348  1.0000
  H   H529      1.0  0.64719  0.98159  0.01761  1.0000
  C   C652      1.0  0.59175  0.36046  0.61755  1.0000
  H   H530      1.0  0.66775  0.20413  0.64389  1.0000
  C   C653      1.0  0.39875  0.31492  0.63304  1.0000
  P   P22       1.0  0.64264  0.03683  0.64928  1.0000
  H   H531      1.0  0.59136  0.21691  0.73709  1.0000
  H   H532      1.0  0.43429  0.34047  0.63472  1.0000
  C   C654      1.0  0.61511  0.99256  0.67275  1.0000
  C   C655      1.0  0.61623  0.29892  0.92660  1.0000
  C   C656      1.0  0.48056  0.07071  0.68911  1.0000
  C   C657      1.0  0.62892  0.38424  0.89655  1.0000
  C   C658      1.0  0.36335  0.28793  0.90355  1.0000
  H   H533      1.0  0.42100  0.23831  0.88361  1.0000
  H   H534      1.0  0.66783  0.28370  0.62319  1.0000
  H   H535      1.0  0.64428  0.38440  0.87285  1.0000
  C   C659      1.0  0.61649  0.07807  0.68403  1.0000
  H   H536      1.0  0.61961  0.09907  0.99076  1.0000
  C   C660      1.0  0.64076  0.01531  0.57404  1.0000
  H   H537      1.0  0.37342  0.08853  0.78517  1.0000
  C   C661      1.0  0.39056  0.08523  0.62243  1.0000
  C   C662      1.0  0.61207  0.01757  0.66002  1.0000
  H   H538      1.0  0.41694  0.18867  0.84712  1.0000
  C   C663      1.0  0.42939  0.20795  0.74032  1.0000
  C   C664      1.0  0.59228  0.40528  0.93341  1.0000
  C   C665      1.0  0.61103  0.10361  0.68887  1.0000
  H   H539      1.0  0.36244  0.21518  0.71095  1.0000
  H   H540      1.0  0.59739  0.10981  0.71250  1.0000
  H   H541      1.0  0.61941  0.00976  0.58082  1.0000
  C   C666      1.0  0.54330  0.97040  0.93557  1.0000
  C   C667      1.0  0.67049  0.22321  0.78432  1.0000
  H   H542      1.0  0.51252  0.25531  0.74259  1.0000
  C   C668      1.0  0.55052  0.23376  0.73800  1.0000
  H   H543      1.0  0.56536  0.32709  0.69514  1.0000
  H   H544      1.0  0.62027  0.30258  0.60244  1.0000
  C   C669      1.0  0.53522  0.25589  0.74241  1.0000
  H   H545      1.0  0.43116  0.19262  0.71951  1.0000
  H   H546      1.0  0.54050  0.02088  0.66359  1.0000
  C   C670      1.0  0.36640  0.14465  0.77769  1.0000
  C   C671      1.0  0.67884  0.20246  0.80668  1.0000
  H   H547      1.0  0.44069  0.96907  0.75764  1.0000
  C   C672      1.0  0.65374  0.37253  0.56067  1.0000
  H   H548      1.0  0.53978  0.21597  0.73420  1.0000
  C   C673      1.0  0.35893  0.26939  0.87504  1.0000
  C   C674      1.0  0.50583  0.06143  0.70471  1.0000
  C   C675      1.0  0.67577  0.98748  0.96889  1.0000
  C   C676      1.0  0.50625  0.10663  0.66271  1.0000
  C   C677      1.0  0.41064  0.08198  0.65195  1.0000
  C   C678      1.0  0.41302  0.03766  0.63677  1.0000
  H   H549      1.0  0.36549  0.06718  0.57799  1.0000
  C   C679      1.0  0.66243  0.22299  0.65316  1.0000
  C   C680      1.0  0.68435  0.03585  0.59157  1.0000
  H   H550      1.0  0.50620  0.12457  0.64755  1.0000
  C   C681      1.0  0.39895  0.96980  0.81777  1.0000
  C   C682      1.0  0.66234  0.26774  0.64129  1.0000
  C   C683      1.0  0.66810  0.24341  0.62838  1.0000
  C   C684      1.0  0.38159  0.06472  0.60018  1.0000
  C   C685      1.0  0.41017  0.99031  0.83786  1.0000
  C   C686      1.0  0.38860  0.28875  0.92434  1.0000
  C   C687      1.0  0.64182  0.11331  0.63394  1.0000
  C   C688      1.0  0.57640  0.35513  0.65190  1.0000
  C   C689      1.0  0.63179  0.19860  0.83327  1.0000
  H   H551      1.0  0.42081  0.01895  0.64221  1.0000
  C   C690      1.0  0.67699  0.04718  0.71443  1.0000
  C   C691      1.0  0.67015  0.03015  0.68431  1.0000
  H   H552      1.0  0.49192  0.97512  0.65371  1.0000
  C   C692      1.0  0.63197  0.27843  0.91354  1.0000
  C   C693      1.0  0.53101  0.07457  0.69905  1.0000
  H   H553      1.0  0.41346  0.14955  0.88592  1.0000
  C   C694      1.0  0.65945  0.19001  0.83091  1.0000
  C   C695      1.0  0.57677  0.33098  0.66803  1.0000
  H   H554      1.0  0.56469  0.36988  0.66661  1.0000
  H   H555      1.0  0.64672  0.29074  0.68801  1.0000
  C   C696      1.0  0.65659  0.02924  0.60113  1.0000
  P   P23       1.0  0.37569  0.22812  0.82900  1.0000
  C   C697      1.0  0.36687  0.99741  0.78275  1.0000
  H   H556      1.0  0.61494  0.42199  0.88477  1.0000
  H   H557      1.0  0.39370  0.98611  0.71147  1.0000
  H   H558      1.0  0.59302  0.29345  0.66270  1.0000
  S   S89       1.0  0.68244  0.33899  0.67009  1.0000
  C   C698      1.0  0.36971  0.15427  0.89999  1.0000
  C   C699      1.0  0.49454  0.31215  0.68120  1.0000
  C   C700      1.0  0.66030  0.35868  0.69804  1.0000
  H   H559      1.0  0.43153  0.01469  0.75571  1.0000
  H   H560      1.0  0.67798  0.24043  0.59992  1.0000
  C   C701      1.0  0.65233  0.26788  0.93798  1.0000
  C   C702      1.0  0.39505  0.08245  0.78318  1.0000
  H   H561      1.0  0.66602  0.06479  0.71778  1.0000
  H   H562      1.0  0.36520  0.37412  0.69655  1.0000
  H   H563      1.0  0.50608  0.04427  0.72197  1.0000
  H   H564      1.0  0.68169  0.99479  0.65709  1.0000
  H   H565      1.0  0.42326  0.26295  0.81431  1.0000
  C   C703      1.0  0.37717  0.97939  0.69262  1.0000
  P   P24       1.0  0.62696  0.34883  0.55424  1.0000
  C   C704      1.0  0.39511  0.16127  0.88233  1.0000
  H   H566      1.0  0.55047  0.10786  0.67493  1.0000
  C   C705      1.0  0.60819  0.31747  0.61580  1.0000
  H   H567      1.0  0.63681  0.42863  0.54177  1.0000
  C   C706      1.0  0.39642  0.26276  0.66265  1.0000
  C   C707      1.0  0.55406  0.30548  0.00446  1.0000
  C   C708      1.0  0.41417  0.33635  0.62185  1.0000
  C   C709      1.0  0.64978  0.98909  0.98802  1.0000
  H   H568      1.0  0.40604  0.96187  0.65217  1.0000
  H   H569      1.0  0.65232  0.12704  0.61533  1.0000
  C   C710      1.0  0.40732  0.20825  0.76766  1.0000
  C   C711      1.0  0.64700  0.08770  0.62853  1.0000
  C   C712      1.0  0.40496  0.22782  0.79499  1.0000
  H   H570      1.0  0.57238  0.38372  0.97939  1.0000
  C   C713      1.0  0.38423  0.24907  0.69384  1.0000
  S   S90       1.0  0.67450  0.09933  0.78964  1.0000
  H   H571      1.0  0.62912  0.96081  0.75436  1.0000
  C   C714      1.0  0.67781  0.40372  0.60035  1.0000
  H   H572      1.0  0.35991  0.29473  0.62403  1.0000
  H   H573      1.0  0.36792  0.36285  0.55761  1.0000
  H   H574      1.0  0.53270  0.43809  0.99240  1.0000
  H   H575      1.0  0.39881  0.42060  0.91241  1.0000
  H   H576      1.0  0.35971  0.14502  0.80825  1.0000
  C   C715      1.0  0.67945  0.31857  0.77856  1.0000
  C   C716      1.0  0.37679  0.34932  0.57801  1.0000
  C   C717      1.0  0.41701  0.43234  0.91754  1.0000
  H   H577      1.0  0.66969  0.34897  0.81804  1.0000
  C   C718      1.0  0.67906  0.99722  0.93077  1.0000
  H   H578      1.0  0.56683  0.30019  0.02948  1.0000
  C   C719      1.0  0.43693  0.43566  0.88756  1.0000
  S   S91       1.0  0.67817  0.94577  0.71261  1.0000
  S   S92       1.0  0.47184  0.94649  0.82396  1.0000
  H   H579      1.0  0.47058  0.94927  0.70693  1.0000
  C   C720      1.0  0.67319  0.37683  0.53004  1.0000
  H   H580      1.0  0.35958  0.27845  0.53404  1.0000
  H   H581      1.0  0.37081  0.03669  0.79827  1.0000
  C   C721      1.0  0.64577  0.32161  0.53676  1.0000
  H   H582      1.0  0.57146  0.32961  0.53500  1.0000
  C   C722      1.0  0.68591  0.00809  0.68049  1.0000
  H   H583      1.0  0.36850  0.94673  0.60735  1.0000
  H   H584      1.0  0.40714  0.95119  0.82320  1.0000
  H   H585      1.0  0.65121  0.35137  0.01820  1.0000
  C   C723      1.0  0.68536  0.29326  0.54392  1.0000
  C   C724      1.0  0.36141  0.32804  0.58874  1.0000
  H   H586      1.0  0.54237  0.95007  0.93623  1.0000
  H   H587      1.0  0.40411  0.94899  0.02780  1.0000
  C   C725      1.0  0.65275  0.00788  0.53810  1.0000
  H   H588      1.0  0.35641  0.31112  0.69769  1.0000
  Fe  Fe44      1.0  0.47126  0.87527  0.19115  1.0000
  S   S93       1.0  0.46487  0.83883  0.15957  1.0000
  S   S94       1.0  0.43710  0.90424  0.20178  1.0000
  Fe  Fe45      1.0  0.49522  0.82382  0.20405  1.0000
  S   S95       1.0  0.48431  0.78867  0.23721  1.0000
  S   S96       1.0  0.49955  0.85974  0.23811  1.0000
  S   S97       1.0  0.47626  0.65981  0.23943  1.0000
  Fe  Fe46      1.0  0.45417  0.60254  0.17812  1.0000
  S   S98       1.0  0.45299  0.60223  0.24444  1.0000
  S   S99       1.0  0.43944  0.56731  0.14779  1.0000
  Fe  Fe47      1.0  0.43458  0.64068  0.23816  1.0000
  S   S100      1.0  0.40188  0.65454  0.28086  1.0000
  S   S101      1.0  0.43209  0.63966  0.17206  1.0000
  S   S102      1.0  0.54064  0.49148  0.14382  1.0000
  C   C726      1.0  0.46696  0.54579  0.14099  1.0000
  C   C727      1.0  0.51167  0.51154  0.13884  1.0000
  C   C728      1.0  0.51632  0.53691  0.13019  1.0000
  C   C729      1.0  0.49412  0.55412  0.13218  1.0000
  H   H589      1.0  0.53737  0.54347  0.12379  1.0000
  H   H590      1.0  0.49805  0.57382  0.12694  1.0000
  H   H591      1.0  0.63718  0.45629  0.27105  1.0000
  C   C730      1.0  0.54992  0.45605  0.33529  1.0000
  H   H592      1.0  0.47035  0.46946  0.32637  1.0000
  C   C731      1.0  0.45578  0.93312  0.11217  1.0000
  C   C732      1.0  0.65614  0.44624  0.49101  1.0000
  H   H593      1.0  0.68019  0.78675  0.04909  1.0000
  H   H594      1.0  0.43361  0.62709  0.42752  1.0000
  H   H595      1.0  0.37757  0.64611  0.20405  1.0000
  H   H596      1.0  0.58561  0.46072  0.26901  1.0000
  H   H597      1.0  0.59781  0.47404  0.06751  1.0000
  H   H598      1.0  0.42028  0.55238  0.07153  1.0000
  C   C733      1.0  0.48520  0.76161  0.20788  1.0000
  C   C734      1.0  0.47074  0.71847  0.19758  1.0000
  C   C735      1.0  0.47027  0.74038  0.22023  1.0000
  H   H599      1.0  0.45769  0.70283  0.20611  1.0000
  H   H600      1.0  0.45788  0.74097  0.24697  1.0000
  C   C736      1.0  0.40225  0.90367  0.22094  1.0000
  C   C737      1.0  0.38825  0.88193  0.23437  1.0000
  C   C738      1.0  0.39031  0.74771  0.25628  1.0000
  H   H601      1.0  0.64425  0.94016  0.31611  1.0000
  H   H602      1.0  0.53759  0.65330  0.34440  1.0000
  H   H603      1.0  0.48726  0.66118  0.33158  1.0000
  H   H604      1.0  0.39887  0.86402  0.23342  1.0000
  H   H605      1.0  0.67380  0.90019  0.50658  1.0000
  Fe  Fe48      1.0  0.53556  0.86751  0.19648  1.0000
  S   S103      1.0  0.53347  0.83017  0.16643  1.0000
  S   S104      1.0  0.57657  0.88672  0.21281  1.0000
  Fe  Fe49      1.0  0.50350  0.84891  0.12449  1.0000
  H   H606      1.0  0.40275  0.49738  0.20623  1.0000
  S   S105      1.0  0.50779  0.88672  0.15226  1.0000
  Fe  Fe50      1.0  0.47547  0.65616  0.17375  1.0000
  S   S106      1.0  0.48938  0.68910  0.13644  1.0000
  Fe  Fe51      1.0  0.49461  0.62153  0.23948  1.0000
  S   S107      1.0  0.53025  0.61390  0.28065  1.0000
  S   S108      1.0  0.49757  0.61890  0.17356  1.0000
  C   C739      1.0  0.46187  0.52006  0.14551  1.0000
  C   C740      1.0  0.48427  0.50298  0.14542  1.0000
  H   H607      1.0  0.44071  0.51346  0.15046  1.0000
  H   H608      1.0  0.48036  0.48337  0.15125  1.0000
  C   C741      1.0  0.60759  0.65629  0.23580  1.0000
  C   C742      1.0  0.60944  0.64027  0.26849  1.0000
  C   C743      1.0  0.58559  0.62757  0.28260  1.0000
  C   C744      1.0  0.55969  0.63090  0.26412  1.0000
  C   C745      1.0  0.55760  0.64751  0.23217  1.0000
  C   C746      1.0  0.58150  0.66018  0.21807  1.0000
  P   P25       1.0  0.50002  0.51486  0.29957  1.0000
  H   H609      1.0  0.58727  0.61494  0.30753  1.0000
  H   H610      1.0  0.53762  0.65055  0.21806  1.0000
  H   H611      1.0  0.57980  0.67266  0.19294  1.0000
  H   H612      1.0  0.52412  0.86671  0.34387  1.0000
  C   C747      1.0  0.50042  0.76099  0.17244  1.0000
  C   C748      1.0  0.50143  0.73876  0.15018  1.0000
  C   C749      1.0  0.48711  0.71725  0.16329  1.0000
  H   H613      1.0  0.51183  0.77740  0.16256  1.0000
  H   H614      1.0  0.51360  0.73812  0.12318  1.0000
  C   C750      1.0  0.60695  0.86974  0.22626  1.0000
  H   H615      1.0  0.47203  0.70245  0.30524  1.0000
  H   H616      1.0  0.50673  0.73592  0.29248  1.0000
  C   C751      1.0  0.65632  0.84383  0.24774  1.0000
  C   C752      1.0  0.65612  0.87006  0.24696  1.0000
  C   C753      1.0  0.63152  0.88294  0.23615  1.0000
  H   H617      1.0  0.50680  0.53386  0.21788  1.0000
  H   H618      1.0  0.63147  0.90325  0.23565  1.0000
  C   C754      1.0  0.36040  0.88356  0.24949  1.0000
  C   C755      1.0  0.44144  0.44920  0.04580  1.0000
  H   H619      1.0  0.38491  0.55927  0.42096  1.0000
  C   C756      1.0  0.55041  0.54140  0.29660  1.0000
  C   C757      1.0  0.68811  0.87588  0.07917  1.0000
  H   H620      1.0  0.40156  0.78717  0.25817  1.0000
  C   C758      1.0  0.66557  0.75810  0.19288  1.0000
  C   C759      1.0  0.38375  0.58300  0.36907  1.0000
  C   C760      1.0  0.41987  0.61468  0.41124  1.0000
  C   C761      1.0  0.41121  0.62133  0.37330  1.0000
  C   C762      1.0  0.39294  0.60571  0.35249  1.0000
  P   P26       1.0  0.68271  0.46925  0.42685  1.0000
  C   C763      1.0  0.66817  0.50772  0.09008  1.0000
  C   C764      1.0  0.42618  0.52452  0.23968  1.0000
  C   C765      1.0  0.59872  0.47360  0.25246  1.0000
  H   H621      1.0  0.61419  0.50553  0.52119  1.0000
  C   C766      1.0  0.56337  0.91087  0.09561  1.0000
  C   C767      1.0  0.43392  0.81792  0.06243  1.0000
  H   H622      1.0  0.55394  0.74981  0.38585  1.0000
  H   H623      1.0  0.41812  0.63889  0.36013  1.0000
  H   H624      1.0  0.38552  0.61172  0.32394  1.0000
  C   C768      1.0  0.41355  0.76142  0.16049  1.0000
  C   C769      1.0  0.65711  0.88283  0.45415  1.0000
  H   H625      1.0  0.66292  0.89862  0.43567  1.0000
  C   C770      1.0  0.53057  0.48142  0.04663  1.0000
  H   H626      1.0  0.39633  0.57595  0.27927  1.0000
  H   H627      1.0  0.62472  0.81901  0.32625  1.0000
  C   C771      1.0  0.66373  0.49709  0.05289  1.0000
  C   C772      1.0  0.54422  0.92985  0.03664  1.0000
  C   C773      1.0  0.39577  0.72398  0.27259  1.0000
  P   P27       1.0  0.63951  0.85815  0.38551  1.0000
  C   C774      1.0  0.64461  0.86123  0.43815  1.0000
  C   C775      1.0  0.60263  0.85888  0.37280  1.0000
  C   C776      1.0  0.59470  0.86035  0.33297  1.0000
  C   C777      1.0  0.56651  0.86297  0.32264  1.0000
  H   H628      1.0  0.63911  0.82650  0.52276  1.0000
  H   H629      1.0  0.68102  0.55659  0.37625  1.0000
  H   H630      1.0  0.61949  0.90470  0.34672  1.0000
  C   C778      1.0  0.67172  0.49384  0.39331  1.0000
  H   H631      1.0  0.63665  0.77031  0.09865  1.0000
  C   C779      1.0  0.66600  0.74423  0.22800  1.0000
  C   C780      1.0  0.42621  0.74286  0.32132  1.0000
  C   C781      1.0  0.58176  0.86001  0.40220  1.0000
  C   C782      1.0  0.56722  0.56459  0.23974  1.0000
  H   H632      1.0  0.44395  0.79979  0.06538  1.0000
  H   H633      1.0  0.68795  0.51691  0.09605  1.0000
  H   H634      1.0  0.37620  0.92995  0.11682  1.0000
  C   C783      1.0  0.67276  0.53771  0.37307  1.0000
  C   C784      1.0  0.54098  0.47958  0.32186  1.0000
  H   H635      1.0  0.61049  0.86022  0.30989  1.0000
  C   C785      1.0  0.64384  0.84228  0.50358  1.0000
  H   H636      1.0  0.46798  0.57829  0.42700  1.0000
  C   C786      1.0  0.41877  0.94414  0.05089  1.0000
  H   H637      1.0  0.38071  0.70455  0.16646  1.0000
  H   H638      1.0  0.66709  0.48221  0.22872  1.0000
  H   H639      1.0  0.56404  0.49485  0.22911  1.0000
  C   C787      1.0  0.64356  0.48970  0.47957  1.0000
  C   C788      1.0  0.60746  0.80080  0.10022  1.0000
  C   C789      1.0  0.60238  0.82539  0.11238  1.0000
  C   C790      1.0  0.62337  0.83886  0.13162  1.0000
  C   C791      1.0  0.64952  0.82787  0.13851  1.0000
  C   C792      1.0  0.65514  0.80330  0.12568  1.0000
  C   C793      1.0  0.63355  0.78965  0.10728  1.0000
  H   H640      1.0  0.43270  0.78277  0.31543  1.0000
  C   C794      1.0  0.65884  0.46832  0.46849  1.0000
  C   C795      1.0  0.47326  0.56613  0.40256  1.0000
  C   C796      1.0  0.43268  0.51767  0.04420  1.0000
  H   H641      1.0  0.38675  0.70720  0.25977  1.0000
  H   H642      1.0  0.55224  0.53709  0.32773  1.0000
  H   H643      1.0  0.58166  0.57798  0.22669  1.0000
  H   H644      1.0  0.59697  0.88487  0.08708  1.0000
  C   C797      1.0  0.68153  0.78372  0.34818  1.0000
  C   C798      1.0  0.54593  0.86431  0.35203  1.0000
  H   H645      1.0  0.58198  0.83384  0.10766  1.0000
  H   H646      1.0  0.61915  0.85769  0.14217  1.0000
  H   H647      1.0  0.66490  0.83866  0.15439  1.0000
  C   C799      1.0  0.37072  0.58063  0.22792  1.0000
  H   H648      1.0  0.46620  0.53204  0.43551  1.0000
  C   C800      1.0  0.52134  0.80469  0.36393  1.0000
  H   H649      1.0  0.43715  0.89643  0.11299  1.0000
  H   H650      1.0  0.64804  0.75579  0.17307  1.0000
  Fe  Fe52      1.0  0.67874  0.65638  0.23834  1.0000
  C   C801      1.0  0.64477  0.48558  0.22857  1.0000
  H   H651      1.0  0.68034  0.91405  0.09665  1.0000
  C   C802      1.0  0.48012  0.52436  0.37610  1.0000
  H   H652      1.0  0.48542  0.89082  0.06572  1.0000
  C   C803      1.0  0.38824  0.92669  0.22270  1.0000
  H   H653      1.0  0.41272  0.81564  0.11860  1.0000
  H   H654      1.0  0.57258  0.68638  0.33245  1.0000
  H   H655      1.0  0.63658  0.60186  0.23114  1.0000
  C   C804      1.0  0.48861  0.53469  0.33974  1.0000
  C   C805      1.0  0.64370  0.50817  0.33779  1.0000
  C   C806      1.0  0.57043  0.55710  0.27894  1.0000
  P   P28       1.0  0.56708  0.73893  0.30360  1.0000
  C   C807      1.0  0.57149  0.74388  0.25122  1.0000
  C   C808      1.0  0.60149  0.73083  0.32181  1.0000
  C   C809      1.0  0.61697  0.71230  0.30207  1.0000
  C   C810      1.0  0.64339  0.70516  0.31571  1.0000
  C   C811      1.0  0.65466  0.71645  0.34923  1.0000
  C   C812      1.0  0.63957  0.73515  0.36885  1.0000
  C   C813      1.0  0.61321  0.74258  0.35496  1.0000
  C   C814      1.0  0.56088  0.72652  0.22395  1.0000
  C   C815      1.0  0.56521  0.73021  0.18353  1.0000
  C   C816      1.0  0.57972  0.75140  0.16999  1.0000
  C   C817      1.0  0.59052  0.76868  0.19697  1.0000
  C   C818      1.0  0.58685  0.76470  0.23749  1.0000
  C   C819      1.0  0.54223  0.71390  0.31224  1.0000
  C   C820      1.0  0.51368  0.71815  0.30470  1.0000
  C   C821      1.0  0.49390  0.69932  0.31223  1.0000
  C   C822      1.0  0.50248  0.67607  0.32705  1.0000
  C   C823      1.0  0.53088  0.67163  0.33425  1.0000
  C   C824      1.0  0.55074  0.69045  0.32695  1.0000
  H   H656      1.0  0.54167  0.78570  0.27284  1.0000
  H   H657      1.0  0.60849  0.70320  0.27615  1.0000
  H   H658      1.0  0.65512  0.69086  0.30010  1.0000
  H   H659      1.0  0.67517  0.71079  0.35979  1.0000
  H   H660      1.0  0.54931  0.71005  0.23356  1.0000
  H   H661      1.0  0.55681  0.71673  0.16273  1.0000
  H   H662      1.0  0.58240  0.75438  0.13860  1.0000
  H   H663      1.0  0.60168  0.78518  0.18657  1.0000
  H   H664      1.0  0.59557  0.77805  0.25817  1.0000
  H   H665      1.0  0.41702  0.70322  0.31798  1.0000
  H   H666      1.0  0.54145  0.56291  0.18826  1.0000
  H   H667      1.0  0.62924  0.63730  0.28271  1.0000
  H   H668      1.0  0.44866  0.76956  0.12225  1.0000
  C   C825      1.0  0.42675  0.45518  0.08057  1.0000
  H   H669      1.0  0.64852  0.74414  0.39455  1.0000
  H   H670      1.0  0.56867  0.85007  0.04052  1.0000
  C   C826      1.0  0.63178  0.83063  0.23791  1.0000
  C   C827      1.0  0.60714  0.84349  0.22740  1.0000
  C   C828      1.0  0.55167  0.76599  0.32725  1.0000
  C   C829      1.0  0.41380  0.71386  0.12583  1.0000
  C   C830      1.0  0.54031  0.78565  0.30474  1.0000
  H   H671      1.0  0.60245  0.75760  0.36997  1.0000
  C   C831      1.0  0.58664  0.49259  0.22976  1.0000
  H   H672      1.0  0.58837  0.83310  0.21995  1.0000
  H   H673      1.0  0.63194  0.81034  0.23834  1.0000
  C   C832      1.0  0.61746  0.48352  0.07365  1.0000
  H   H674      1.0  0.62862  0.82406  0.45137  1.0000
  H   H675      1.0  0.41440  0.54119  0.34600  1.0000
  C   C833      1.0  0.64257  0.56609  0.20322  1.0000
  C   C834      1.0  0.41037  0.59226  0.42831  1.0000
  C   C835      1.0  0.47246  0.54007  0.40737  1.0000
  C   C836      1.0  0.41882  0.91996  0.06765  1.0000
  C   C837      1.0  0.54695  0.76559  0.36823  1.0000
  C   C838      1.0  0.43728  0.91466  0.09867  1.0000
  H   H676      1.0  0.52858  0.78457  0.41814  1.0000
  C   C839      1.0  0.51220  0.48486  0.31841  1.0000
  H   H677      1.0  0.48173  0.47211  0.25049  1.0000
  C   C840      1.0  0.52533  0.80493  0.32306  1.0000
  C   C841      1.0  0.39905  0.52640  0.34204  1.0000
  H   H678      1.0  0.51597  0.81956  0.30515  1.0000
  C   C842      1.0  0.65536  0.82866  0.37105  1.0000
  H   H679      1.0  0.59365  0.52188  0.18740  1.0000
  C   C843      1.0  0.52750  0.53238  0.27474  1.0000
  H   H680      1.0  0.39634  0.46375  0.32327  1.0000
  C   C844      1.0  0.65271  0.48881  0.36270  1.0000
  C   C845      1.0  0.53223  0.78506  0.38656  1.0000
  H   H681      1.0  0.39247  0.85792  0.11402  1.0000
  C   C846      1.0  0.55352  0.86268  0.39178  1.0000
  C   C847      1.0  0.40474  0.85089  0.08943  1.0000
  C   C848      1.0  0.52466  0.53979  0.23517  1.0000
  H   H682      1.0  0.54466  0.47188  0.06661  1.0000
  C   C849      1.0  0.41323  0.72164  0.30543  1.0000
  H   H683      1.0  0.45340  0.54751  0.27430  1.0000
  H   H684      1.0  0.50923  0.81941  0.37788  1.0000
  H   H685      1.0  0.46945  0.92908  0.13682  1.0000
  H   H686      1.0  0.41484  0.77940  0.17526  1.0000
  C   C850      1.0  0.64214  0.90422  0.34533  1.0000
  C   C851      1.0  0.44181  0.48219  0.22707  1.0000
  C   C852      1.0  0.63839  0.48495  0.04471  1.0000
  C   C853      1.0  0.36717  0.64952  0.26564  1.0000
  C   C854      1.0  0.64355  0.81355  0.34148  1.0000
  H   H687      1.0  0.64740  0.54742  0.32293  1.0000
  C   C855      1.0  0.36061  0.91535  0.11316  1.0000
  H   H688      1.0  0.43882  0.46415  0.21306  1.0000
  S   S109      1.0  0.63757  0.67126  0.21610  1.0000
  H   H689      1.0  0.56322  0.90847  0.12746  1.0000
  C   C856      1.0  0.43269  0.73224  0.11283  1.0000
  C   C857      1.0  0.47026  0.50999  0.26735  1.0000
  H   H690      1.0  0.56071  0.86443  0.29177  1.0000
  H   H691      1.0  0.59091  0.79026  0.08590  1.0000
  H   H692      1.0  0.63264  0.55474  0.10519  1.0000
  C   C858      1.0  0.48110  0.57654  0.36625  1.0000
  H   H693      1.0  0.58717  0.85942  0.43316  1.0000
  C   C859      1.0  0.40403  0.76886  0.27170  1.0000
  P   P29       1.0  0.36959  0.75040  0.21211  1.0000
  H   H694      1.0  0.48164  0.59675  0.36220  1.0000
  C   C860      1.0  0.63538  0.59147  0.20378  1.0000
  C   C861      1.0  0.62578  0.48892  0.51258  1.0000
  C   C862      1.0  0.42153  0.50088  0.22326  1.0000
  S   S110      1.0  0.68654  0.82652  0.26046  1.0000
  C   C863      1.0  0.66317  0.88394  0.49447  1.0000
  C   C864      1.0  0.38906  0.48264  0.32869  1.0000
  C   C865      1.0  0.62181  0.49417  0.11079  1.0000
  C   C866      1.0  0.46625  0.48683  0.24846  1.0000
  H   H695      1.0  0.64827  0.78038  0.30584  1.0000
  S   S111      1.0  0.50977  0.84109  0.05927  1.0000
  C   C867      1.0  0.62569  0.59006  0.13380  1.0000
  C   C868      1.0  0.40952  0.86571  0.05558  1.0000
  C   C869      1.0  0.68005  0.82056  0.38974  1.0000
  H   H696      1.0  0.45093  0.51566  0.06292  1.0000
  C   C870      1.0  0.63790  0.84101  0.46322  1.0000
  C   C871      1.0  0.39439  0.71935  0.15567  1.0000
  C   C872      1.0  0.40837  0.50185  0.33578  1.0000
  H   H697      1.0  0.44846  0.72757  0.09087  1.0000
  C   C873      1.0  0.37506  0.57629  0.26816  1.0000
  H   H698      1.0  0.64484  0.47006  0.35778  1.0000
  P   P30       1.0  0.35817  0.56371  0.34446  1.0000
  C   C874      1.0  0.43274  0.75593  0.13041  1.0000
  H   H699      1.0  0.49506  0.56948  0.30719  1.0000
  C   C875      1.0  0.39251  0.57639  0.40722  1.0000
  C   C876      1.0  0.41637  0.82688  0.09235  1.0000
  H   H700      1.0  0.41659  0.58732  0.45804  1.0000
  C   C877      1.0  0.48875  0.56092  0.33498  1.0000
  C   C878      1.0  0.63356  0.56476  0.13289  1.0000
  C   C879      1.0  0.65672  0.79129  0.32998  1.0000
  H   H701      1.0  0.62104  0.62316  0.16985  1.0000
  H   H702      1.0  0.58762  0.56457  0.29611  1.0000
  C   C880      1.0  0.62779  0.47067  0.25283  1.0000
  C   C881      1.0  0.45036  0.52908  0.26179  1.0000
  C   C882      1.0  0.54437  0.55605  0.21800  1.0000
  C   C883      1.0  0.62681  0.60347  0.16917  1.0000
  H   H703      1.0  0.41973  0.47412  0.08622  1.0000
  H   H704      1.0  0.64884  0.73153  0.23496  1.0000
  C   C884      1.0  0.65615  0.92471  0.32840  1.0000
  C   C885      1.0  0.60358  0.50789  0.20597  1.0000
  C   C886      1.0  0.65734  0.88376  0.36053  1.0000
  C   C887      1.0  0.36106  0.64550  0.22589  1.0000
  C   C888      1.0  0.42180  0.76643  0.30421  1.0000
  H   H705      1.0  0.64549  0.50708  0.46313  1.0000
  C   C889      1.0  0.64232  0.55270  0.16762  1.0000
  C   C890      1.0  0.63268  0.50380  0.20389  1.0000
  H   H706      1.0  0.60509  0.49273  0.13236  1.0000
  P   P31       1.0  0.65336  0.52035  0.16725  1.0000
  H   H707      1.0  0.64910  0.55710  0.23043  1.0000
  H   H708      1.0  0.43059  0.49784  0.33541  1.0000
  C   C891      1.0  0.58261  0.89757  0.07257  1.0000
  C   C892      1.0  0.54410  0.92695  0.07767  1.0000
  H   H709      1.0  0.41121  0.53940  0.23467  1.0000
  H   H710      1.0  0.41502  0.69505  0.11386  1.0000
  C   C893      1.0  0.64737  0.50614  0.11952  1.0000
  C   C894      1.0  0.49265  0.46619  0.32919  1.0000
  H   H711      1.0  0.47967  0.50428  0.38064  1.0000
  H   H712      1.0  0.55667  0.49318  0.31330  1.0000
  C   C895      1.0  0.37020  0.53175  0.34187  1.0000
  C   C896      1.0  0.65382  0.53254  0.34286  1.0000
  H   H713      1.0  0.53754  0.86385  0.41456  1.0000
  C   C897      1.0  0.64998  0.90127  0.05414  1.0000
  H   H714      1.0  0.44018  0.74097  0.34626  1.0000
  C   C898      1.0  0.65662  0.86367  0.51913  1.0000
  H   H715      1.0  0.67998  0.49813  0.03046  1.0000
  C   C899      1.0  0.67915  0.85581  0.05594  1.0000
  C   C900      1.0  0.39362  0.74343  0.17240  1.0000
  H   H716      1.0  0.62907  0.50438  0.31423  1.0000
  H   H717      1.0  0.49677  0.45608  0.05874  1.0000
  H   H718      1.0  0.61873  0.59937  0.10711  1.0000
  H   H719      1.0  0.67484  0.88040  0.25480  1.0000
  H   H720      1.0  0.68937  0.73526  0.28052  1.0000
  C   C901      1.0  0.36084  0.92828  0.23760  1.0000
  H   H721      1.0  0.63871  0.91891  0.05414  1.0000
  H   H722      1.0  0.38847  0.58414  0.20841  1.0000
  Fe  Fe53      1.0  0.53049  0.45241  0.16476  1.0000
  H   H723      1.0  0.36448  0.78646  0.14588  1.0000
  P   P32       1.0  0.39394  0.89658  0.05149  1.0000
  C   C902      1.0  0.50328  0.47235  0.04184  1.0000
  C   C903      1.0  0.68154  0.51853  0.39841  1.0000
  C   C904      1.0  0.67354  0.89860  0.07826  1.0000
  H   H724      1.0  0.57212  0.45188  0.33705  1.0000
  C   C905      1.0  0.68679  0.88476  0.35997  1.0000
  H   H725      1.0  0.52876  0.93679  0.09553  1.0000
  C   C906      1.0  0.36037  0.48791  0.32780  1.0000
  C   C907      1.0  0.41532  0.53853  0.04920  1.0000
  S   S112      1.0  0.68457  0.64202  0.29978  1.0000
  C   C908      1.0  0.68542  0.92548  0.32793  1.0000
  C   C909      1.0  0.36328  0.89716  0.08339  1.0000
  C   C910      1.0  0.68841  0.76876  0.05848  1.0000
  H   H726      1.0  0.39874  0.94357  0.21257  1.0000
  H   H727      1.0  0.56032  0.51030  0.03128  1.0000
  C   C911      1.0  0.49059  0.88752  0.03509  1.0000
  C   C912      1.0  0.58310  0.90057  0.03132  1.0000
  C   C913      1.0  0.63843  0.44555  0.52407  1.0000
  C   C914      1.0  0.65549  0.85834  0.03196  1.0000
  C   C915      1.0  0.68885  0.74620  0.25351  1.0000
  P   P33       1.0  0.68897  0.78874  0.13467  1.0000
  C   C916      1.0  0.68817  0.77388  0.18275  1.0000
  C   C917      1.0  0.64068  0.88112  0.03091  1.0000
  Fe  Fe54      1.0  0.47556  0.91340  0.78364  1.0000
  S   S113      1.0  0.44197  0.90409  0.73859  1.0000
  H   H728      1.0  0.39762  0.48948  0.96871  1.0000
  H   H729      1.0  0.42934  0.85572  0.87040  1.0000
  C   C918      1.0  0.41520  0.84887  0.84786  1.0000
  C   C919      1.0  0.40568  0.90653  0.74870  1.0000
  C   C920      1.0  0.38675  0.90815  0.71714  1.0000
  C   C921      1.0  0.36258  0.75027  0.70054  1.0000
  H   H730      1.0  0.47467  0.92319  0.01515  1.0000
  H   H731      1.0  0.66768  0.89155  0.71966  1.0000
  C   C922      1.0  0.39527  0.90558  0.78733  1.0000
  H   H732      1.0  0.39463  0.90885  0.68715  1.0000
  C   C923      1.0  0.61537  0.90180  0.95695  1.0000
  C   C924      1.0  0.60267  0.91153  0.88916  1.0000
  H   H733      1.0  0.40966  0.90421  0.81183  1.0000
  C   C925      1.0  0.35683  0.77567  0.70686  1.0000
  H   H734      1.0  0.62956  0.93751  0.85821  1.0000
  C   C926      1.0  0.62886  0.94053  0.75340  1.0000
  Fe  Fe55      1.0  0.49640  0.92296  0.86713  1.0000
  S   S114      1.0  0.49730  0.88870  0.82830  1.0000
  C   C927      1.0  0.62550  0.92787  0.88595  1.0000
  C   C928      1.0  0.56347  0.91656  0.01349  1.0000
  S   S115      1.0  0.53830  0.93784  0.84662  1.0000
  Fe  Fe56      1.0  0.53780  0.90540  0.80462  1.0000
  S   S116      1.0  0.57756  0.88382  0.79059  1.0000
  C   C929      1.0  0.46066  0.45043  0.89431  1.0000
  C   C930      1.0  0.42248  0.85132  0.80804  1.0000
  C   C931      1.0  0.48450  0.90579  0.00634  1.0000
  C   C932      1.0  0.60573  0.90100  0.76925  1.0000
  C   C933      1.0  0.60616  0.92726  0.77018  1.0000
  H   H735      1.0  0.36744  0.91677  0.89025  1.0000
  C   C934      1.0  0.65095  0.92781  0.73459  1.0000
  C   C935      1.0  0.65071  0.90156  0.73390  1.0000
  C   C936      1.0  0.62826  0.88822  0.75149  1.0000
  S   S117      1.0  0.51619  0.92646  0.75660  1.0000
  H   H736      1.0  0.43279  0.86784  0.00037  1.0000
  H   H737      1.0  0.41686  0.91874  0.91312  1.0000
  H   H738      1.0  0.62812  0.86792  0.75076  1.0000
  C   C937      1.0  0.49119  0.90173  0.96644  1.0000
  C   C938      1.0  0.50399  0.87921  0.95543  1.0000
  C   C939      1.0  0.50967  0.86077  0.98416  1.0000
  H   H739      1.0  0.50913  0.87584  0.92476  1.0000
  H   H740      1.0  0.51906  0.84320  0.97531  1.0000
  H   H741      1.0  0.58902  0.93734  0.78386  1.0000
  C   C940      1.0  0.38417  0.83137  0.68191  1.0000
  C   C941      1.0  0.37142  0.82905  0.82921  1.0000
  H   H742      1.0  0.60975  0.46642  0.56073  1.0000
  S   S118      1.0  0.48257  0.92504  0.93134  1.0000
  H   H743      1.0  0.44210  0.86028  0.79964  1.0000
  C   C942      1.0  0.59740  0.89874  0.92452  1.0000
  H   H744      1.0  0.37911  0.71616  0.72553  1.0000
  C   C943      1.0  0.59610  0.85335  0.98956  1.0000
  H   H745      1.0  0.65235  0.92126  0.97807  1.0000
  C   C944      1.0  0.64318  0.93144  0.91826  1.0000
  H   H746      1.0  0.36955  0.86874  0.60303  1.0000
  H   H747      1.0  0.41008  0.84599  0.74827  1.0000
  H   H748      1.0  0.48376  0.47231  0.93580  1.0000
  C   C945      1.0  0.35718  0.90173  0.98715  1.0000
  H   H749      1.0  0.52890  0.94192  0.02263  1.0000
  H   H750      1.0  0.66208  0.86443  0.55018  1.0000
  H   H751      1.0  0.56262  0.91862  0.98178  1.0000
  C   C946      1.0  0.38089  0.74681  0.76683  1.0000
  H   H752      1.0  0.40620  0.83976  0.62771  1.0000
  C   C947      1.0  0.40409  0.84308  0.77874  1.0000
  C   C948      1.0  0.38760  0.84328  0.64534  1.0000
  C   C949      1.0  0.46461  0.46187  0.93101  1.0000
  H   H753      1.0  0.63496  0.47657  0.01600  1.0000
  C   C950      1.0  0.37234  0.91275  0.92080  1.0000
  C   C951      1.0  0.39171  0.54160  0.02546  1.0000
  C   C952      1.0  0.57700  0.84093  0.01452  1.0000
  H   H754      1.0  0.45411  0.82628  0.00696  1.0000
  C   C953      1.0  0.37838  0.83181  0.78903  1.0000
  H   H755      1.0  0.52774  0.53214  0.98565  1.0000
  C   C954      1.0  0.56785  0.81665  0.00561  1.0000
  C   C955      1.0  0.38965  0.83775  0.85845  1.0000
  C   C956      1.0  0.44459  0.45882  0.96121  1.0000
  C   C957      1.0  0.40011  0.91390  0.93364  1.0000
  C   C958      1.0  0.36698  0.85965  0.63143  1.0000
  C   C959      1.0  0.53939  0.50299  0.02657  1.0000
  C   C960      1.0  0.37513  0.77222  0.77328  1.0000
  C   C961      1.0  0.38509  0.90268  0.00030  1.0000
  P   P34       1.0  0.44948  0.47292  0.00925  1.0000
  C   C962      1.0  0.40643  0.90900  0.97315  1.0000
  C   C963      1.0  0.36033  0.83615  0.70525  1.0000
  H   H756      1.0  0.62171  0.84981  0.93675  1.0000
  H   H757      1.0  0.47980  0.51567  0.97562  1.0000
  C   C964      1.0  0.52102  0.51528  0.00099  1.0000
  H   H758      1.0  0.57940  0.88627  0.92630  1.0000
  H   H759      1.0  0.42806  0.91038  0.98250  1.0000
  C   C965      1.0  0.60651  0.84083  0.95609  1.0000
  H   H760      1.0  0.35758  0.74175  0.67240  1.0000
  C   C966      1.0  0.62325  0.46688  0.53485  1.0000
  C   C967      1.0  0.57774  0.80456  0.97178  1.0000
  C   C968      1.0  0.59713  0.81663  0.94706  1.0000
  H   H761      1.0  0.57016  0.78594  0.96456  1.0000
  H   H762      1.0  0.60470  0.80733  0.92067  1.0000
  C   C969      1.0  0.49387  0.50593  0.99544  1.0000
  H   H763      1.0  0.58923  0.90847  0.86391  1.0000
  H   H764      1.0  0.64872  0.84239  0.01476  1.0000
  H   H765      1.0  0.36722  0.52628  0.97800  1.0000
  P   P35       1.0  0.60903  0.88421  0.00199  1.0000
  C   C970      1.0  0.50305  0.86488  0.02410  1.0000
  H   H766      1.0  0.40013  0.81844  0.69200  1.0000
  H   H767      1.0  0.68770  0.75334  0.99970  1.0000
  C   C971      1.0  0.36331  0.78692  0.74319  1.0000
  H   H768      1.0  0.66097  0.94400  0.91558  1.0000
  H   H769      1.0  0.47666  0.45223  0.87157  1.0000
  C   C972      1.0  0.35761  0.90872  0.72411  1.0000
  C   C973      1.0  0.63821  0.91844  0.95365  1.0000
  H   H770      1.0  0.38003  0.78026  0.80171  1.0000
  H   H771      1.0  0.35818  0.90363  0.82399  1.0000
  H   H772      1.0  0.39017  0.73560  0.79010  1.0000
  C   C974      1.0  0.48489  0.48426  0.01563  1.0000
  C   C975      1.0  0.36615  0.90527  0.79419  1.0000
  H   H773      1.0  0.38401  0.83585  0.88934  1.0000
  C   C976      1.0  0.40278  0.50287  0.99144  1.0000
  C   C977      1.0  0.38545  0.52380  0.99657  1.0000
  C   C978      1.0  0.37466  0.73585  0.73047  1.0000
  C   C979      1.0  0.42653  0.49961  0.01532  1.0000
  H   H774      1.0  0.55248  0.80750  0.02456  1.0000
  C   C980      1.0  0.42743  0.85659  0.02587  1.0000
  C   C981      1.0  0.43954  0.83281  0.02934  1.0000
  H   H775      1.0  0.37836  0.55786  0.02946  1.0000
  C   C982      1.0  0.74788  0.22947  0.31898  1.0000
  H   H776      1.0  0.94801  0.43282  0.24430  1.0000
  H   H777      1.0  0.88269  0.38819  0.22704  1.0000
  C   C983      1.0  0.81487  0.95084  0.50639  1.0000
  C   C984      1.0  0.80416  0.30784  0.36615  1.0000
  H   H778      1.0  0.90569  0.41349  0.07985  1.0000
  S   S119      1.0  0.97618  0.38230  0.16547  1.0000
  H   H779      1.0  0.98525  0.36250  0.08694  1.0000
  Fe  Fe57      1.0  0.79275  0.40478  0.31128  1.0000
  S   S120      1.0  0.79107  0.39595  0.24608  1.0000
  S   S121      1.0  0.79593  0.37407  0.35728  1.0000
  C   C985      1.0  0.83270  0.31143  0.35804  1.0000
  H   H780      1.0  0.75611  0.35273  0.30532  1.0000
  Fe  Fe58      1.0  0.75796  0.42601  0.24460  1.0000
  H   H781      1.0  0.72711  0.43685  0.39373  1.0000
  C   C986      1.0  0.96658  0.43901  0.25992  1.0000
  C   C987      1.0  0.72051  0.35832  0.26799  1.0000
  H   H782      1.0  0.70966  0.39761  0.51090  1.0000
  H   H783      1.0  0.89193  0.42639  0.27973  1.0000
  C   C988      1.0  0.78845  0.38196  0.40682  1.0000
  C   C989      1.0  0.79187  0.36394  0.43677  1.0000
  H   H784      1.0  0.72823  0.37606  0.25638  1.0000
  C   C990      1.0  0.77184  0.41146  0.45610  1.0000
  C   C991      1.0  0.77862  0.40582  0.41670  1.0000
  H   H785      1.0  0.79962  0.34550  0.42948  1.0000
  H   H786      1.0  0.87109  0.38884  0.31109  1.0000
  H   H787      1.0  0.77634  0.41998  0.39403  1.0000
  C   C992      1.0  0.89047  0.41947  0.18813  1.0000
  C   C993      1.0  0.91007  0.43077  0.16248  1.0000
  C   C994      1.0  0.93663  0.41997  0.15613  1.0000
  C   C995      1.0  0.94367  0.39739  0.17475  1.0000
  C   C996      1.0  0.92415  0.38618  0.20069  1.0000
  C   C997      1.0  0.89771  0.39723  0.20758  1.0000
  C   C998      1.0  0.97322  0.36170  0.05992  1.0000
  H   H788      1.0  0.81966  0.38981  0.08004  1.0000
  H   H789      1.0  0.92942  0.36870  0.21521  1.0000
  H   H790      1.0  0.86391  0.31844  0.31306  1.0000
  H   H791      1.0  0.88175  0.37842  0.38072  1.0000
  H   H792      1.0  0.70217  0.27460  0.38173  1.0000
  S   S122      1.0  0.72095  0.42449  0.20278  1.0000
  H   H793      1.0  0.00725  0.94492  0.32823  1.0000
  H   H794      1.0  0.74264  0.29853  0.49206  1.0000
  H   H795      1.0  0.84765  0.31172  0.38202  1.0000
  C   C999      1.0  0.95875  0.38295  0.04688  1.0000
  C   C1000     1.0  0.89696  0.42211  0.31018  1.0000
  H   H796      1.0  0.81280  0.97712  0.45812  1.0000
  C   C1001     1.0  0.77508  0.39345  0.48605  1.0000
  H   H797      1.0  0.69050  0.26563  0.49835  1.0000
  H   H798      1.0  0.79761  0.30517  0.39645  1.0000
  H   H799      1.0  0.80241  0.96238  0.52598  1.0000
  C   C1002     1.0  0.88745  0.40725  0.06357  1.0000
  C   C1003     1.0  0.78519  0.36964  0.47629  1.0000
  H   H800      1.0  0.77927  0.31156  0.27208  1.0000
  H   H801      1.0  0.76052  0.21680  0.30137  1.0000
  H   H802      1.0  0.99439  0.41795  0.22246  1.0000
  C   C1004     1.0  0.73635  0.34493  0.29553  1.0000
  H   H803      1.0  0.72674  0.35269  0.37509  1.0000
  H   H804      1.0  0.95973  0.39994  0.06432  1.0000
  C   C1005     1.0  0.72930  0.34037  0.40008  1.0000
  H   H805      1.0  0.78786  0.35562  0.49914  1.0000
  C   C1006     1.0  0.99285  0.43042  0.24755  1.0000
  Fe  Fe59      1.0  0.82273  0.42714  0.23909  1.0000
  H   H806      1.0  0.69266  0.29471  0.30823  1.0000
  C   C1007     1.0  0.73879  0.27144  0.34389  1.0000
  H   H807      1.0  0.71582  0.36845  0.44166  1.0000
  C   C1008     1.0  0.88528  0.40067  0.32775  1.0000
  H   H808      1.0  0.72582  0.39598  0.36096  1.0000
  C   C1009     1.0  0.72739  0.33409  0.47080  1.0000
  C   C1010     1.0  0.97185  0.33934  0.03861  1.0000
  C   C1011     1.0  0.86248  0.40242  0.08409  1.0000
  S   S123      1.0  0.82699  0.43348  0.30430  1.0000
  H   H809      1.0  0.76415  0.42988  0.46338  1.0000
  S   S124      1.0  0.75722  0.43245  0.31010  1.0000
  C   C1012     1.0  0.75488  0.25495  0.32078  1.0000
  S   S125      1.0  0.85661  0.43290  0.19216  1.0000
  C   C1013     1.0  0.84185  0.31524  0.31921  1.0000
  C   C1014     1.0  0.83894  0.39363  0.06395  1.0000
  H   H810      1.0  0.93649  0.44242  0.38742  1.0000
  C   C1015     1.0  0.70827  0.23664  0.36248  1.0000
  C   C1016     1.0  0.90985  0.40986  0.38835  1.0000
  C   C1017     1.0  0.72678  0.32169  0.31013  1.0000
  H   H811      1.0  0.82957  0.31824  0.25830  1.0000
  H   H812      1.0  0.68999  0.00818  0.50157  1.0000
  Fe  Fe60      1.0  0.01244  0.40261  0.13507  1.0000
  C   C1018     1.0  0.70639  0.40432  0.37130  1.0000
  P   P36       1.0  0.74740  0.30445  0.34587  1.0000
  H   H813      1.0  0.95135  0.42882  0.13610  1.0000
  C   C1019     1.0  0.78445  0.30834  0.33547  1.0000
  H   H814      1.0  0.69530  0.41073  0.27851  1.0000
  C   C1020     1.0  0.73978  0.31602  0.39494  1.0000
  C   C1021     1.0  0.74443  0.30089  0.42836  1.0000
  H   H815      1.0  0.75324  0.28226  0.42534  1.0000
  C   C1022     1.0  0.79393  0.31155  0.29639  1.0000
  C   C1023     1.0  0.69476  0.34888  0.25525  1.0000
  C   C1024     1.0  0.82249  0.31516  0.28838  1.0000
  H   H816      1.0  0.77291  0.26164  0.30425  1.0000
  C   C1025     1.0  0.70076  0.31240  0.29732  1.0000
  C   C1026     1.0  0.72298  0.34932  0.43782  1.0000
  C   C1027     1.0  0.73833  0.30996  0.46617  1.0000
  C   C1028     1.0  0.71520  0.26214  0.36433  1.0000
  H   H817      1.0  0.72324  0.34136  0.50000  1.0000
  C   C1029     1.0  0.89137  0.39475  0.36697  1.0000
  C   C1030     1.0  0.91473  0.43788  0.33191  1.0000
  H   H818      1.0  0.86149  0.40516  0.11579  1.0000
  H   H819      1.0  0.69020  0.22952  0.37857  1.0000
  H   H820      1.0  0.98318  0.32299  0.04886  1.0000
  C   C1031     1.0  0.72464  0.22030  0.33990  1.0000
  H   H821      1.0  0.71931  0.20052  0.33856  1.0000
  C   C1032     1.0  0.92181  0.43117  0.37072  1.0000
  C   C1033     1.0  0.70704  0.42769  0.38988  1.0000
  H   H822      1.0  0.91486  0.40500  0.41860  1.0000
  H   H823      1.0  0.84062  0.95034  0.41259  1.0000
  C   C1034     1.0  0.82073  0.95914  0.46806  1.0000
  C   C1035     1.0  0.01703  0.43758  0.26778  1.0000
  S   S126      1.0  0.00597  0.43654  0.09686  1.0000
  S   S127      1.0  0.78502  0.98540  0.59507  1.0000
  Fe  Fe61      1.0  0.74333  0.11361  0.67619  1.0000
  S   S128      1.0  0.74630  0.09148  0.73242  1.0000
  S   S129      1.0  0.74819  0.09842  0.61487  1.0000
  Fe  Fe62      1.0  0.73393  0.16304  0.71762  1.0000
  S   S130      1.0  0.73638  0.14542  0.77771  1.0000
  S   S131      1.0  0.72504  0.20444  0.71635  1.0000
  Fe  Fe63      1.0  0.77248  0.12376  0.75299  1.0000
  S   S132      1.0  0.81057  0.11788  0.79028  1.0000
  C   C1036     1.0  0.84053  0.38922  0.02333  1.0000
  C   C1037     1.0  0.69629  0.02835  0.55577  1.0000
  S   S133      1.0  0.77272  0.14428  0.69521  1.0000
  H   H824      1.0  0.89125  0.28815  0.64034  1.0000
  Fe  Fe64      1.0  0.96203  0.11484  0.72435  1.0000
  S   S134      1.0  0.92229  0.10645  0.69092  1.0000
  S   S135      1.0  0.96576  0.12218  0.78927  1.0000
  Fe  Fe65      1.0  0.98108  0.36980  0.72311  1.0000
  S   S136      1.0  0.94705  0.38660  0.68538  1.0000
  S   S137      1.0  0.97574  0.33462  0.75867  1.0000
  Fe  Fe66      1.0  0.76500  0.37135  0.58280  1.0000
  C   C1038     1.0  0.88475  0.00977  0.69338  1.0000
  C   C1039     1.0  0.87415  0.27481  0.64238  1.0000
  Fe  Fe67      1.0  0.76616  0.31553  0.60157  1.0000
  S   S138      1.0  0.75884  0.32226  0.66579  1.0000
  S   S139      1.0  0.76612  0.27583  0.57797  1.0000
  Fe  Fe68      1.0  0.72571  0.34927  0.64659  1.0000
  H   H825      1.0  0.87698  0.43366  0.87147  1.0000
  Fe  Fe69      1.0  0.78960  0.35382  0.65994  1.0000
  H   H826      1.0  0.94222  0.20524  0.55107  1.0000
  S   S140      1.0  0.73205  0.34132  0.58224  1.0000
  S   S141      1.0  0.80031  0.34474  0.59673  1.0000
  C   C1040     1.0  0.85512  0.36377  0.70346  1.0000
  S   S142      1.0  0.99691  0.08681  0.72244  1.0000
  H   H827      1.0  0.00203  0.28008  0.77912  1.0000
  C   C1041     1.0  0.91201  0.37688  0.69268  1.0000
  C   C1042     1.0  0.89293  0.37900  0.66141  1.0000
  C   C1043     1.0  0.86463  0.37219  0.66662  1.0000
  H   H828      1.0  0.90006  0.38600  0.63307  1.0000
  H   H829      1.0  0.85007  0.37399  0.64239  1.0000
  C   C1044     1.0  0.99938  0.94742  0.96253  1.0000
  H   H830      1.0  0.74917  0.03069  0.95531  1.0000
  H   H831      1.0  0.71431  0.06761  0.85373  1.0000
  C   C1045     1.0  0.74745  0.03251  0.92355  1.0000
  C   C1046     1.0  0.84126  0.11516  0.76191  1.0000
  C   C1047     1.0  0.86718  0.11705  0.78065  1.0000
  C   C1048     1.0  0.89203  0.11442  0.75893  1.0000
  C   C1049     1.0  0.89119  0.10974  0.71845  1.0000
  C   C1050     1.0  0.86521  0.10766  0.69963  1.0000
  C   C1051     1.0  0.84022  0.11069  0.72123  1.0000
  H   H832      1.0  0.86810  0.12046  0.81208  1.0000
  H   H833      1.0  0.91171  0.11562  0.77385  1.0000
  H   H834      1.0  0.86443  0.10391  0.66828  1.0000
  H   H835      1.0  0.82024  0.10915  0.70649  1.0000
  C   C1052     1.0  0.73538  0.22295  0.67574  1.0000
  C   C1053     1.0  0.75154  0.21343  0.64454  1.0000
  C   C1054     1.0  0.76003  0.22947  0.61348  1.0000
  C   C1055     1.0  0.75249  0.25490  0.61372  1.0000
  C   C1056     1.0  0.73509  0.26383  0.64378  1.0000
  C   C1057     1.0  0.72709  0.24810  0.67505  1.0000
  H   H836      1.0  0.75785  0.19393  0.64467  1.0000
  H   H837      1.0  0.77310  0.22241  0.58990  1.0000
  H   H838      1.0  0.72733  0.28279  0.64275  1.0000
  H   H839      1.0  0.71403  0.25541  0.69856  1.0000
  C   C1058     1.0  0.77352  0.01635  0.60157  1.0000
  C   C1059     1.0  0.75813  0.02367  0.63486  1.0000
  C   C1060     1.0  0.75090  0.04906  0.64012  1.0000
  C   C1061     1.0  0.75819  0.06684  0.61120  1.0000
  C   C1062     1.0  0.77308  0.05930  0.57763  1.0000
  C   C1063     1.0  0.78111  0.03424  0.57316  1.0000
  H   H840      1.0  0.75244  0.00985  0.65684  1.0000
  H   H841      1.0  0.73907  0.05470  0.66590  1.0000
  H   H842      1.0  0.86688  0.35536  0.76346  1.0000
  P   P37       1.0  0.92199  0.40855  0.99719  1.0000
  H   H843      1.0  0.92788  0.35767  0.96548  1.0000
  H   H844      1.0  0.86181  0.05899  0.63761  1.0000
  H   H845      1.0  0.77867  0.07295  0.55519  1.0000
  C   C1064     1.0  0.91244  0.96376  0.78961  1.0000
  S   S143      1.0  0.75573  0.38203  0.64617  1.0000
  H   H846      1.0  0.82245  0.38183  0.00791  1.0000
  H   H847      1.0  0.00593  0.03755  0.61677  1.0000
  C   C1065     1.0  0.86491  0.03974  0.64705  1.0000
  H   H848      1.0  0.88119  0.00279  0.85706  1.0000
  H   H849      1.0  0.85124  0.97610  0.74162  1.0000
  C   C1066     1.0  0.87416  0.36173  0.73483  1.0000
  C   C1067     1.0  0.91093  0.16756  0.63908  1.0000
  C   C1068     1.0  0.76128  0.01926  0.85759  1.0000
  C   C1069     1.0  0.00440  0.26144  0.76707  1.0000
  H   H850      1.0  0.78184  0.14134  0.56510  1.0000
  Fe  Fe70      1.0  0.00258  0.09639  0.78625  1.0000
  C   C1070     1.0  0.86557  0.39386  0.00273  1.0000
  C   C1071     1.0  0.00681  0.01472  0.82451  1.0000
  C   C1072     1.0  0.01608  0.23443  0.71214  1.0000
  H   H851      1.0  0.71930  0.98574  0.70385  1.0000
  H   H852      1.0  0.81235  0.22771  0.65116  1.0000
  C   C1073     1.0  0.87632  0.05926  0.80756  1.0000
  C   C1074     1.0  0.87842  0.04089  0.77835  1.0000
  C   C1075     1.0  0.94067  0.99875  0.71815  1.0000
  C   C1076     1.0  0.95873  0.01936  0.71287  1.0000
  C   C1077     1.0  0.98627  0.01565  0.69980  1.0000
  C   C1078     1.0  0.99567  0.99152  0.69067  1.0000
  C   C1079     1.0  0.97741  0.97107  0.69426  1.0000
  C   C1080     1.0  0.94996  0.97466  0.70780  1.0000
  C   C1081     1.0  0.85275  0.02006  0.62589  1.0000
  C   C1082     1.0  0.85730  0.99523  0.63758  1.0000
  C   C1083     1.0  0.87366  0.99005  0.67078  1.0000
  H   H853      1.0  0.85664  0.06904  0.81208  1.0000
  H   H854      1.0  0.86013  0.03636  0.76093  1.0000
  H   H855      1.0  0.95177  0.03826  0.71948  1.0000
  H   H856      1.0  0.77632  0.00256  0.91189  1.0000
  H   H857      1.0  0.95929  0.39268  0.93289  1.0000
  H   H858      1.0  0.86667  0.38938  0.97164  1.0000
  H   H859      1.0  0.97931  0.42689  0.99057  1.0000
  H   H860      1.0  0.83983  0.02399  0.60035  1.0000
  H   H861      1.0  0.84794  0.98000  0.62097  1.0000
  H   H862      1.0  0.87753  0.97066  0.67883  1.0000
  H   H863      1.0  0.69917  0.99596  0.91581  1.0000
  S   S144      1.0  0.70427  0.13415  0.69372  1.0000
  H   H864      1.0  0.94689  0.14351  0.63287  1.0000
  C   C1084     1.0  0.00109  0.21607  0.77440  1.0000
  H   H865      1.0  0.89836  0.08024  0.85206  1.0000
  H   H866      1.0  0.80306  0.27322  0.64864  1.0000
  H   H867      1.0  0.81052  0.04656  0.68147  1.0000
  H   H868      1.0  0.84231  0.30353  0.64384  1.0000
  C   C1085     1.0  0.96695  0.44138  0.00465  1.0000
  S   S145      1.0  0.99538  0.34770  0.86654  1.0000
  C   C1086     1.0  0.72988  0.05080  0.90737  1.0000
  S   S146      1.0  0.00523  0.06583  0.83176  1.0000
  H   H869      1.0  0.81767  0.18482  0.70058  1.0000
  H   H870      1.0  0.89704  0.21817  0.58059  1.0000
  C   C1087     1.0  0.76940  0.94852  0.80189  1.0000
  C   C1088     1.0  0.86749  0.33251  0.85554  1.0000
  C   C1089     1.0  0.89365  0.34415  0.85944  1.0000
  C   C1090     1.0  0.91716  0.33406  0.84055  1.0000
  C   C1091     1.0  0.91449  0.31256  0.81730  1.0000
  C   C1092     1.0  0.88810  0.30132  0.81196  1.0000
  C   C1093     1.0  0.86477  0.31096  0.83235  1.0000
  P   P38       1.0  0.88498  0.27342  0.78209  1.0000
  C   C1094     1.0  0.90891  0.27583  0.74069  1.0000
  C   C1095     1.0  0.89351  0.24770  0.81483  1.0000
  C   C1096     1.0  0.92158  0.24050  0.82026  1.0000
  C   C1097     1.0  0.92815  0.22045  0.84527  1.0000
  C   C1098     1.0  0.90689  0.20793  0.86598  1.0000
  C   C1099     1.0  0.87905  0.21577  0.86230  1.0000
  C   C1100     1.0  0.87240  0.23575  0.83714  1.0000
  C   C1101     1.0  0.92363  0.25478  0.72689  1.0000
  C   C1102     1.0  0.94380  0.25744  0.69700  1.0000
  C   C1103     1.0  0.94888  0.28098  0.68003  1.0000
  C   C1104     1.0  0.93350  0.30182  0.69250  1.0000
  C   C1105     1.0  0.91339  0.29919  0.72243  1.0000
  C   C1106     1.0  0.85010  0.27080  0.76161  1.0000
  C   C1107     1.0  0.83511  0.29242  0.75103  1.0000
  C   C1108     1.0  0.80730  0.29052  0.73839  1.0000
  C   C1109     1.0  0.79451  0.26702  0.73496  1.0000
  C   C1110     1.0  0.80975  0.24532  0.74346  1.0000
  C   C1111     1.0  0.83758  0.24719  0.75624  1.0000
  H   H871      1.0  0.84926  0.34024  0.87031  1.0000
  C   C1112     1.0  0.00208  0.28384  0.91124  1.0000
  H   H872      1.0  0.93750  0.34293  0.84381  1.0000
  H   H873      1.0  0.93301  0.30479  0.80333  1.0000
  H   H874      1.0  0.84442  0.30202  0.83012  1.0000
  H   H875      1.0  0.93846  0.25024  0.80508  1.0000
  H   H876      1.0  0.94978  0.21451  0.84843  1.0000
  H   H877      1.0  0.91207  0.19224  0.88505  1.0000
  H   H878      1.0  0.86260  0.20631  0.87884  1.0000
  H   H879      1.0  0.85078  0.24182  0.83517  1.0000
  H   H880      1.0  0.92008  0.23643  0.73969  1.0000
  H   H881      1.0  0.95595  0.24134  0.68754  1.0000
  H   H882      1.0  0.96502  0.28315  0.65759  1.0000
  H   H883      1.0  0.93744  0.32015  0.67946  1.0000
  H   H884      1.0  0.90174  0.31550  0.73184  1.0000
  H   H885      1.0  0.84468  0.31084  0.75292  1.0000
  H   H886      1.0  0.79573  0.30737  0.73113  1.0000
  H   H887      1.0  0.77300  0.26559  0.72487  1.0000
  H   H888      1.0  0.79989  0.22710  0.73992  1.0000
  H   H889      1.0  0.84922  0.23027  0.76228  1.0000
  H   H890      1.0  0.80639  0.07114  0.74316  1.0000
  Fe  Fe71      1.0  0.99611  0.15249  0.77198  1.0000
  H   H891      1.0  0.01215  0.19479  0.72297  1.0000
  C   C1113     1.0  0.94082  0.35917  0.99155  1.0000
  H   H892      1.0  0.80379  0.00039  0.68312  1.0000
  H   H893      1.0  0.00162  0.34441  0.95041  1.0000
  P   P39       1.0  0.78007  0.99787  0.82554  1.0000
  C   C1114     1.0  0.94779  0.17390  0.59059  1.0000
  C   C1115     1.0  0.90814  0.20231  0.59298  1.0000
  C   C1116     1.0  0.90262  0.36801  0.72936  1.0000
  C   C1117     1.0  0.92702  0.03397  0.79591  1.0000
  C   C1118     1.0  0.86156  0.97092  0.88532  1.0000
  C   C1119     1.0  0.69684  0.40806  0.56956  1.0000
  C   C1120     1.0  0.86629  0.96674  0.76029  1.0000
  C   C1121     1.0  0.93631  0.16014  0.62192  1.0000
  C   C1122     1.0  0.01324  0.28925  0.94833  1.0000
  H   H894      1.0  0.83757  0.01770  0.82650  1.0000
  C   C1123     1.0  0.79779  0.15222  0.58014  1.0000
  C   C1124     1.0  0.81277  0.14136  0.61107  1.0000
  C   C1125     1.0  0.83276  0.15546  0.63143  1.0000
  C   C1126     1.0  0.83767  0.18067  0.62137  1.0000
  C   C1127     1.0  0.82347  0.19114  0.58907  1.0000
  P   P40       1.0  0.86407  0.19830  0.64748  1.0000
  C   C1128     1.0  0.85740  0.23167  0.64532  1.0000
  C   C1129     1.0  0.86272  0.19043  0.69931  1.0000
  C   C1130     1.0  0.88722  0.19070  0.72219  1.0000
  C   C1131     1.0  0.88608  0.18421  0.76220  1.0000
  C   C1132     1.0  0.86041  0.17784  0.77975  1.0000
  C   C1133     1.0  0.83584  0.17819  0.75741  1.0000
  C   C1134     1.0  0.83694  0.18459  0.71739  1.0000
  C   C1135     1.0  0.87962  0.24901  0.64349  1.0000
  H   H895      1.0  0.71801  0.06319  0.92648  1.0000
  C   C1136     1.0  0.84657  0.28352  0.64416  1.0000
  C   C1137     1.0  0.82443  0.26641  0.64687  1.0000
  C   C1138     1.0  0.82978  0.24062  0.64792  1.0000
  C   C1139     1.0  0.91575  0.41400  0.86138  1.0000
  C   C1140     1.0  0.71113  0.95414  0.80241  1.0000
  H   H896      1.0  0.80848  0.12208  0.61970  1.0000
  H   H897      1.0  0.84414  0.14682  0.65538  1.0000
  H   H898      1.0  0.82764  0.21026  0.57973  1.0000
  H   H899      1.0  0.90731  0.19547  0.70907  1.0000
  H   H900      1.0  0.90520  0.18364  0.77942  1.0000
  H   H901      1.0  0.85957  0.17210  0.81044  1.0000
  H   H902      1.0  0.81599  0.17292  0.77092  1.0000
  C   C1141     1.0  0.92506  0.05278  0.82447  1.0000
  C   C1142     1.0  0.93361  0.19488  0.57591  1.0000
  H   H903      1.0  0.94667  0.02398  0.79265  1.0000
  H   H904      1.0  0.93613  0.95856  0.71051  1.0000
  S   S147      1.0  0.81953  0.35618  0.71158  1.0000
  H   H905      1.0  0.89576  0.36090  0.87723  1.0000
  H   H906      1.0  0.90210  0.15625  0.66275  1.0000
  S   S148      1.0  0.98948  0.14730  0.70695  1.0000
  C   C1143     1.0  0.72779  0.05329  0.86643  1.0000
  C   C1144     1.0  0.00801  0.36945  0.90116  1.0000
  H   H907      1.0  0.94332  0.05758  0.84196  1.0000
  H   H908      1.0  0.71392  0.42132  0.57333  1.0000
  C   C1145     1.0  0.89975  0.06547  0.83024  1.0000
  C   C1146     1.0  0.90390  0.02843  0.77181  1.0000
  P   P41       1.0  0.90550  0.00317  0.73663  1.0000
  H   H909      1.0  0.70373  0.05498  0.76387  1.0000
  H   H910      1.0  0.98069  0.27712  0.90862  1.0000
  Fe  Fe72      1.0  0.70986  0.11491  0.75239  1.0000
  C   C1147     1.0  0.89708  0.18915  0.62553  1.0000
  H   H911      1.0  0.90116  0.24271  0.64318  1.0000
  H   H912      1.0  0.00054  0.28654  0.97461  1.0000
  C   C1148     1.0  0.01597  0.03784  0.80938  1.0000
  S   S149      1.0  0.00771  0.38976  0.76800  1.0000
  H   H913      1.0  0.79114  0.97922  0.74526  1.0000
  C   C1149     1.0  0.74334  0.03758  0.84168  1.0000
  Fe  Fe73      1.0  0.00500  0.35330  0.80157  1.0000
  C   C1150     1.0  0.75764  0.97148  0.81375  1.0000
  C   C1151     1.0  0.83652  0.95769  0.89135  1.0000
  H   H914      1.0  0.91713  0.36652  0.75370  1.0000
  C   C1152     1.0  0.80306  0.05107  0.74378  1.0000
  C   C1153     1.0  0.79053  0.01329  0.78012  1.0000
  H   H915      1.0  0.95434  0.32070  0.98800  1.0000
  C   C1154     1.0  0.91921  0.41046  0.94403  1.0000
  S   S150      1.0  0.02092  0.28460  0.69823  1.0000
  C   C1155     1.0  0.79583  0.03924  0.77924  1.0000
  H   H916      1.0  0.73137  0.01565  0.75610  1.0000
  C   C1156     1.0  0.70755  0.00290  0.70680  1.0000
  H   H917      1.0  0.00950  0.28387  0.84857  1.0000
  C   C1157     1.0  0.95557  0.33805  0.00448  1.0000
  C   C1158     1.0  0.71412  0.01974  0.73665  1.0000
  C   C1159     1.0  0.80334  0.17702  0.56885  1.0000
  C   C1160     1.0  0.69449  0.39462  0.53441  1.0000
  C   C1161     1.0  0.72829  0.97410  0.81402  1.0000
  C   C1162     1.0  0.01749  0.39314  0.88933  1.0000
  C   C1163     1.0  0.83697  0.00087  0.84431  1.0000
  H   H918      1.0  0.88036  0.43146  0.94428  1.0000
  C   C1164     1.0  0.88093  0.03466  0.68062  1.0000
  H   H919      1.0  0.89043  0.05019  0.69636  1.0000
  C   C1165     1.0  0.80562  0.03718  0.70910  1.0000
  C   C1166     1.0  0.01330  0.25850  0.72798  1.0000
  H   H920      1.0  0.79433  0.05051  0.80573  1.0000
  H   H921      1.0  0.99285  0.01418  0.84979  1.0000
  C   C1167     1.0  0.89390  0.97574  0.76361  1.0000
  C   C1168     1.0  0.94081  0.40102  0.91997  1.0000
  H   H922      1.0  0.93359  0.97083  0.79340  1.0000
  H   H923      1.0  0.00053  0.03144  0.69766  1.0000
  C   C1169     1.0  0.99849  0.24019  0.79038  1.0000
  C   C1170     1.0  0.93893  0.40252  0.87884  1.0000
  S   S151      1.0  0.01820  0.35546  0.68938  1.0000
  H   H924      1.0  0.99183  0.24241  0.82072  1.0000
  C   C1171     1.0  0.00987  0.21327  0.73527  1.0000
  C   C1172     1.0  0.76295  0.01667  0.89879  1.0000
  S   S152      1.0  0.99372  0.18964  0.80383  1.0000
  H   H925      1.0  0.74148  0.04003  0.81015  1.0000
  H   H926      1.0  0.95560  0.39490  0.86052  1.0000
  C   C1173     1.0  0.89465  0.42432  0.88511  1.0000
  C   C1174     1.0  0.89651  0.42283  0.92632  1.0000
  H   H927      1.0  0.69695  0.04653  0.61211  1.0000
  H   H928      1.0  0.98460  0.95232  0.68726  1.0000
  H   H929      1.0  0.79248  0.95550  0.87878  1.0000
  C   C1175     1.0  0.94272  0.38192  0.01226  1.0000
  C   C1176     1.0  0.69869  0.04180  0.74072  1.0000
  C   C1177     1.0  0.80160  0.01123  0.71004  1.0000
  H   H930      1.0  0.91436  0.41516  0.82944  1.0000
  S   S153      1.0  0.76626  0.40147  0.53515  1.0000
  H   H931      1.0  0.88087  0.96434  0.89858  1.0000
  H   H932      1.0  0.01928  0.37460  0.00044  1.0000
  C   C1178     1.0  0.79412  0.99931  0.74538  1.0000
  C   C1179     1.0  0.01866  0.37986  0.96958  1.0000
  H   H933      1.0  0.69850  0.32728  0.76736  1.0000
  H   H934      1.0  0.01696  0.39843  0.85849  1.0000
  C   C1180     1.0  0.81181  0.98746  0.84959  1.0000
  H   H935      1.0  0.00831  0.97448  0.81821  1.0000
  C   C1181     1.0  0.00868  0.36282  0.94128  1.0000
  C   C1182     1.0  0.86175  0.99255  0.86191  1.0000
  Fe  Fe74      1.0  0.01495  0.32172  0.72841  1.0000
  C   C1183     1.0  0.81168  0.96597  0.87374  1.0000
  H   H936      1.0  0.96746  0.16803  0.57738  1.0000
  H   H937      1.0  0.71852  0.99166  0.82201  1.0000
  C   C1184     1.0  0.93836  0.43749  0.01255  1.0000
  H   H938      1.0  0.79190  0.94615  0.80035  1.0000
  C   C1185     1.0  0.01559  0.99227  0.80680  1.0000
  H   H939      1.0  0.70367  0.28714  0.56032  1.0000
  S   S154      1.0  0.75865  0.94829  0.69051  1.0000
  Fe  Fe75      1.0  0.76235  0.95359  0.62525  1.0000
  H   H940      1.0  0.79185  0.18538  0.54466  1.0000
  H   H941      1.0  0.69338  0.97871  0.98360  1.0000
  C   C1186     1.0  0.01838  0.28749  0.87732  1.0000
  H   H942      1.0  0.70021  0.19564  0.80420  1.0000
  H   H943      1.0  0.79305  0.02865  0.54740  1.0000
  H   H944      1.0  0.71796  0.03315  0.54913  1.0000
  H   H945      1.0  0.01726  0.98860  0.68160  1.0000
  H   H946      1.0  0.98866  0.94707  0.99081  1.0000
  C   C1187     1.0  0.85802  0.94508  0.78071  1.0000
  C   C1188     1.0  0.88900  0.40359  0.02256  1.0000
  C   C1189     1.0  0.99794  0.94482  0.89132  1.0000
  C   C1190     1.0  0.98410  0.94465  0.92776  1.0000
  Fe  Fe76      1.0  0.96751  0.88453  0.15217  1.0000
  S   S155      1.0  0.96732  0.85286  0.10880  1.0000
  S   S156      1.0  0.93092  0.91114  0.15882  1.0000
  H   H947      1.0  0.90607  0.87120  0.20949  1.0000
  S   S157      1.0  0.96650  0.79575  0.18328  1.0000
  S   S158      1.0  0.98382  0.86173  0.20222  1.0000
  Fe  Fe77      1.0  0.76815  0.86851  0.33459  1.0000
  S   S159      1.0  0.74719  0.88025  0.27788  1.0000
  S   S160      1.0  0.77291  0.89507  0.38626  1.0000
  Fe  Fe78      1.0  0.78554  0.81829  0.30171  1.0000
  S   S161      1.0  0.76613  0.82561  0.24295  1.0000
  S   S162      1.0  0.80955  0.78241  0.30900  1.0000
  Fe  Fe79      1.0  0.78529  0.86388  0.24814  1.0000
  S   S163      1.0  0.80336  0.88383  0.19482  1.0000
  Fe  Fe80      1.0  0.72966  0.84110  0.27738  1.0000
  H   H948      1.0  0.71075  0.58918  0.12913  1.0000
  S   S164      1.0  0.80767  0.85544  0.30437  1.0000
  S   S165      1.0  0.74785  0.83054  0.33643  1.0000
  Fe  Fe81      1.0  0.72467  0.66385  0.29829  1.0000
  S   S166      1.0  0.71707  0.68083  0.23879  1.0000
  S   S167      1.0  0.73206  0.68939  0.34961  1.0000
  Fe  Fe82      1.0  0.70923  0.61117  0.27164  1.0000
  C   C1191     1.0  0.93253  0.49185  0.34172  1.0000
  C   C1192     1.0  0.71709  0.81170  0.13042  1.0000
  Fe  Fe83      1.0  0.73977  0.64691  0.21631  1.0000
  S   S168      1.0  0.77112  0.64851  0.16636  1.0000
  H   H949      1.0  0.96228  0.51152  0.30474  1.0000
  C   C1193     1.0  0.83375  0.84560  0.40785  1.0000
  S   S169      1.0  0.75053  0.63143  0.27631  1.0000
  C   C1194     1.0  0.88005  0.48059  0.27573  1.0000
  S   S170      1.0  0.96752  0.66871  0.21356  1.0000
  H   H950      1.0  0.00690  0.81330  0.03427  1.0000
  S   S171      1.0  0.94905  0.61008  0.22669  1.0000
  H   H951      1.0  0.85578  0.86153  0.22556  1.0000
  Fe  Fe84      1.0  0.92791  0.64609  0.21088  1.0000
  S   S172      1.0  0.89014  0.65921  0.24482  1.0000
  S   S173      1.0  0.92993  0.63971  0.14566  1.0000
  C   C1195     1.0  0.91349  0.72713  0.08321  1.0000
  S   S174      1.0  0.79646  0.49803  0.32734  1.0000
  H   H952      1.0  0.82292  0.72443  0.11039  1.0000
  C   C1196     1.0  0.97206  0.54602  0.14039  1.0000
  H   H953      1.0  0.88787  0.92689  0.52654  1.0000
  C   C1197     1.0  0.99811  0.55425  0.15405  1.0000
  H   H954      1.0  0.96453  0.85873  0.29526  1.0000
  C   C1198     1.0  0.88001  0.83156  0.42665  1.0000
  C   C1199     1.0  0.80466  0.65462  0.18524  1.0000
  C   C1200     1.0  0.82856  0.64613  0.16510  1.0000
  C   C1201     1.0  0.85502  0.64762  0.18297  1.0000
  C   C1202     1.0  0.85779  0.65867  0.22016  1.0000
  C   C1203     1.0  0.83414  0.66869  0.23891  1.0000
  C   C1204     1.0  0.80754  0.66628  0.22187  1.0000
  H   H955      1.0  0.82640  0.63722  0.13663  1.0000
  H   H956      1.0  0.87307  0.63984  0.16825  1.0000
  H   H957      1.0  0.83632  0.67807  0.26691  1.0000
  H   H958      1.0  0.78923  0.67336  0.23715  1.0000
  C   C1205     1.0  0.72401  0.55087  0.30044  1.0000
  C   C1206     1.0  0.74867  0.56013  0.31723  1.0000
  C   C1207     1.0  0.77023  0.54350  0.32760  1.0000
  C   C1208     1.0  0.76774  0.51786  0.31931  1.0000
  C   C1209     1.0  0.74284  0.50852  0.30343  1.0000
  C   C1210     1.0  0.72074  0.52496  0.29488  1.0000
  H   H959      1.0  0.75108  0.58006  0.32220  1.0000
  H   H960      1.0  0.78923  0.55058  0.34079  1.0000
  H   H961      1.0  0.74068  0.48871  0.29722  1.0000
  C   C1211     1.0  0.83518  0.92874  0.29175  1.0000
  C   C1212     1.0  0.75874  0.88907  0.43372  1.0000
  C   C1213     1.0  0.76352  0.90663  0.46371  1.0000
  H   H962      1.0  0.69035  0.83817  0.05691  1.0000
  C   C1214     1.0  0.73302  0.86320  0.48091  1.0000
  C   C1215     1.0  0.74349  0.86725  0.44241  1.0000
  H   H963      1.0  0.77514  0.92357  0.45709  1.0000
  C   C1216     1.0  0.88435  0.92237  0.27644  1.0000
  H   H964      1.0  0.73983  0.85351  0.41961  1.0000
  C   C1217     1.0  0.78778  0.75663  0.31989  1.0000
  C   C1218     1.0  0.76348  0.75974  0.34265  1.0000
  C   C1219     1.0  0.74660  0.73893  0.35205  1.0000
  C   C1220     1.0  0.75323  0.71520  0.33711  1.0000
  C   C1221     1.0  0.77716  0.71216  0.31354  1.0000
  C   C1222     1.0  0.79492  0.73270  0.30604  1.0000
  H   H965      1.0  0.75821  0.77800  0.35418  1.0000
  H   H966      1.0  0.72840  0.74119  0.37089  1.0000
  H   H967      1.0  0.78242  0.69385  0.30205  1.0000
  H   H968      1.0  0.81398  0.73006  0.28908  1.0000
  C   C1223     1.0  0.84622  0.92074  0.45535  1.0000
  P   P42       1.0  0.85301  0.88212  0.51039  1.0000
  C   C1224     1.0  0.95939  0.72269  0.15618  1.0000
  C   C1225     1.0  0.95600  0.74622  0.17367  1.0000
  H   H969      1.0  0.94669  0.70710  0.16618  1.0000
  H   H970      1.0  0.94137  0.74842  0.19794  1.0000
  C   C1226     1.0  0.89613  0.90178  0.17005  1.0000
  C   C1227     1.0  0.88945  0.88209  0.19626  1.0000
  C   C1228     1.0  0.86102  0.87675  0.20566  1.0000
  C   C1229     1.0  0.83940  0.89059  0.18787  1.0000
  C   C1230     1.0  0.92033  0.48221  0.23172  1.0000
  Fe  Fe85      1.0  0.98634  0.83065  0.15824  1.0000
  H   H971      1.0  0.81470  0.93582  0.28354  1.0000
  H   H972      1.0  0.77564  0.70576  0.11442  1.0000
  C   C1231     1.0  0.72013  0.83051  0.15903  1.0000
  H   H973      1.0  0.76512  0.73522  0.23126  1.0000
  C   C1232     1.0  0.75795  0.82872  0.09588  1.0000
  S   S175      1.0  0.01061  0.89841  0.13482  1.0000
  C   C1233     1.0  0.86306  0.48990  0.24561  1.0000
  C   C1234     1.0  0.87463  0.49532  0.20856  1.0000
  H   H974      1.0  0.80281  0.60096  0.17185  1.0000
  C   C1235     1.0  0.95179  0.53318  0.35597  1.0000
  C   C1236     1.0  0.93584  0.53422  0.39065  1.0000
  C   C1237     1.0  0.91796  0.51432  0.40060  1.0000
  C   C1238     1.0  0.70559  0.74095  0.10969  1.0000
  H   H975      1.0  0.69606  0.52307  0.42182  1.0000
  H   H976      1.0  0.87933  0.93119  0.13359  1.0000
  C   C1239     1.0  0.84730  0.51832  0.10506  1.0000
  H   H977      1.0  0.84080  0.49238  0.25088  1.0000
  H   H978      1.0  0.86134  0.50205  0.18510  1.0000
  C   C1240     1.0  0.96437  0.45532  0.29222  1.0000
  H   H979      1.0  0.93718  0.55052  0.40964  1.0000
  H   H980      1.0  0.85797  0.81884  0.37474  1.0000
  C   C1241     1.0  0.87991  0.58627  0.22824  1.0000
  C   C1242     1.0  0.89367  0.56333  0.22370  1.0000
  C   C1243     1.0  0.90062  0.54915  0.25695  1.0000
  C   C1244     1.0  0.89355  0.55765  0.29463  1.0000
  C   C1245     1.0  0.87967  0.58067  0.29945  1.0000
  C   C1246     1.0  0.87324  0.59506  0.26599  1.0000
  P   P43       1.0  0.87486  0.59350  0.34822  1.0000
  C   C1247     1.0  0.86705  0.56876  0.38341  1.0000
  C   C1248     1.0  0.90656  0.61032  0.36128  1.0000
  C   C1249     1.0  0.90605  0.62813  0.39179  1.0000
  C   C1250     1.0  0.93021  0.64187  0.40097  1.0000
  C   C1251     1.0  0.95501  0.63807  0.37962  1.0000
  C   C1252     1.0  0.95571  0.62050  0.34913  1.0000
  C   C1253     1.0  0.93166  0.60664  0.34000  1.0000
  C   C1254     1.0  0.85194  0.54736  0.37162  1.0000
  C   C1255     1.0  0.84388  0.52923  0.39941  1.0000
  C   C1256     1.0  0.85037  0.53243  0.43923  1.0000
  C   C1257     1.0  0.86537  0.55362  0.45124  1.0000
  C   C1258     1.0  0.87373  0.57170  0.42348  1.0000
  C   C1259     1.0  0.84553  0.61502  0.34904  1.0000
  C   C1260     1.0  0.84951  0.64042  0.33911  1.0000
  C   C1261     1.0  0.82736  0.65746  0.34286  1.0000
  C   C1262     1.0  0.80091  0.64917  0.35516  1.0000
  C   C1263     1.0  0.79651  0.62384  0.36387  1.0000
  C   C1264     1.0  0.81874  0.60684  0.36115  1.0000
  H   H981      1.0  0.87500  0.59761  0.20264  1.0000
  H   H982      1.0  0.89954  0.55683  0.19453  1.0000
  H   H983      1.0  0.91200  0.53180  0.25357  1.0000
  H   H984      1.0  0.89957  0.54659  0.32000  1.0000
  H   H985      1.0  0.86321  0.61316  0.26890  1.0000
  H   H986      1.0  0.88684  0.63172  0.40806  1.0000
  H   H987      1.0  0.92960  0.65571  0.42433  1.0000
  H   H988      1.0  0.97365  0.64891  0.38639  1.0000
  H   H989      1.0  0.97480  0.61791  0.33201  1.0000
  H   H990      1.0  0.93276  0.59354  0.31573  1.0000
  H   H991      1.0  0.84568  0.54488  0.34115  1.0000
  H   H992      1.0  0.83218  0.51283  0.39010  1.0000
  H   H993      1.0  0.84372  0.51850  0.46075  1.0000
  H   H994      1.0  0.87025  0.55618  0.48220  1.0000
  H   H995      1.0  0.88484  0.58813  0.43363  1.0000
  H   H996      1.0  0.86972  0.64717  0.32868  1.0000
  H   H997      1.0  0.83061  0.67716  0.33608  1.0000
  H   H998      1.0  0.78374  0.66237  0.35789  1.0000
  H   H999      1.0  0.77583  0.61748  0.37299  1.0000
  H   H1000     1.0  0.81481  0.58743  0.36870  1.0000
  C   C1265     1.0  0.76565  0.48947  0.43075  1.0000
  H   H1001     1.0  0.90758  0.92713  0.38774  1.0000
  C   C1266     1.0  0.97857  0.92152  0.24446  1.0000
  C   C1267     1.0  0.93913  0.86977  0.39141  1.0000
  H   H1002     1.0  0.96579  0.92431  0.35741  1.0000
  H   H1003     1.0  0.78136  0.49626  0.41008  1.0000
  C   C1268     1.0  0.82452  0.92746  0.51926  1.0000
  H   H1004     1.0  0.95261  0.69473  0.31686  1.0000
  C   C1269     1.0  0.76307  0.54429  0.07692  1.0000
  C   C1270     1.0  0.02124  0.69634  0.28878  1.0000
  H   H1005     1.0  0.90456  0.44783  0.14700  1.0000
  H   H1006     1.0  0.72332  0.90672  0.34501  1.0000
  H   H1007     1.0  0.71795  0.70403  0.09068  1.0000
  H   H1008     1.0  0.75828  0.58469  0.15471  1.0000
  H   H1009     1.0  0.74685  0.71069  0.17488  1.0000
  H   H1010     1.0  0.81234  0.75365  0.22833  1.0000
  P   P44       1.0  0.93019  0.46525  0.30894  1.0000
  C   C1271     1.0  0.94433  0.84996  0.29021  1.0000
  C   C1272     1.0  0.70982  0.72215  0.08160  1.0000
  C   C1273     1.0  0.72524  0.47107  0.48364  1.0000
  C   C1274     1.0  0.88782  0.90891  0.31182  1.0000
  H   H1011     1.0  0.91222  0.49585  0.17292  1.0000
  C   C1275     1.0  0.84001  0.91212  0.49371  1.0000
  H   H1012     1.0  0.79942  0.46197  0.13341  1.0000
  C   C1276     1.0  0.85812  0.93219  0.26649  1.0000
  C   C1277     1.0  0.97207  0.70203  0.30471  1.0000
  C   C1278     1.0  0.99627  0.68733  0.30546  1.0000
  H   H1013     1.0  0.79800  0.59054  0.06278  1.0000
  H   H1014     1.0  0.79982  0.85333  0.50474  1.0000
  H   H1015     1.0  0.98229  0.92077  0.21287  1.0000
  C   C1279     1.0  0.93695  0.88873  0.45628  1.0000
  H   H1016     1.0  0.78126  0.50523  0.13824  1.0000
  C   C1280     1.0  0.81932  0.59249  0.07317  1.0000
  C   C1281     1.0  0.95180  0.79207  0.04166  1.0000
  C   C1282     1.0  0.70580  0.53823  0.19276  1.0000
  C   C1283     1.0  0.83846  0.91552  0.32708  1.0000
  H   H1017     1.0  0.99555  0.66860  0.31793  1.0000
  C   C1284     1.0  0.81391  0.54228  0.20834  1.0000
  C   C1285     1.0  0.72530  0.57656  0.11453  1.0000
  H   H1018     1.0  0.68966  0.83173  0.41270  1.0000
  H   H1019     1.0  0.84806  0.45447  0.11049  1.0000
  C   C1286     1.0  0.69293  0.79812  0.37850  1.0000
  H   H1020     1.0  0.90108  0.47866  0.38344  1.0000
  H   H1021     1.0  0.87861  0.49035  0.09194  1.0000
  H   H1022     1.0  0.80465  0.61122  0.24258  1.0000
  C   C1287     1.0  0.83275  0.86107  0.44101  1.0000
  S   S176      1.0  0.94386  0.56715  0.13636  1.0000
  C   C1288     1.0  0.87889  0.84681  0.46026  1.0000
  H   H1023     1.0  0.92863  0.80240  0.09380  1.0000
  H   H1024     1.0  0.81846  0.53354  0.27014  1.0000
  C   C1289     1.0  0.76046  0.84750  0.12432  1.0000
  S   S177      1.0  0.69719  0.57117  0.28529  1.0000
  C   C1290     1.0  0.69032  0.51766  0.17862  1.0000
  S   S178      1.0  0.98345  0.68962  0.10461  1.0000
  H   H1025     1.0  0.71025  0.46344  0.50454  1.0000
  C   C1291     1.0  0.73580  0.54707  0.06240  1.0000
  C   C1292     1.0  0.73173  0.49152  0.18539  1.0000
  C   C1293     1.0  0.74647  0.51175  0.20127  1.0000
  C   C1294     1.0  0.73378  0.53524  0.20394  1.0000
  P   P45       1.0  0.92052  0.89315  0.32240  1.0000
  C   C1295     1.0  0.71131  0.76199  0.24387  1.0000
  H   H1026     1.0  0.89597  0.60087  0.10906  1.0000
  C   C1296     1.0  0.98875  0.53750  0.24689  1.0000
  C   C1297     1.0  0.80621  0.58609  0.19302  1.0000
  C   C1298     1.0  0.86451  0.90532  0.33686  1.0000
  H   H1027     1.0  0.94246  0.47978  0.22571  1.0000
  H   H1028     1.0  0.96701  0.53861  0.23779  1.0000
  C   C1299     1.0  0.98865  0.46170  0.31336  1.0000
  C   C1300     1.0  0.86435  0.61364  0.06842  1.0000
  H   H1029     1.0  0.99731  0.75307  0.25658  1.0000
  C   C1301     1.0  0.71124  0.77545  0.20832  1.0000
  H   H1030     1.0  0.76756  0.50911  0.21211  1.0000
  H   H1031     1.0  0.74518  0.55094  0.21646  1.0000
  H   H1032     1.0  0.75848  0.47117  0.52660  1.0000
  H   H1033     1.0  0.96544  0.54870  0.34785  1.0000
  C   C1302     1.0  0.87447  0.59883  0.09930  1.0000
  C   C1303     1.0  0.85698  0.58117  0.11754  1.0000
  H   H1034     1.0  0.86856  0.85346  0.12986  1.0000
  C   C1304     1.0  0.84004  0.47348  0.11194  1.0000
  H   H1035     1.0  0.00174  0.78008  0.11726  1.0000
  H   H1036     1.0  0.94830  0.51416  0.12009  1.0000
  C   C1305     1.0  0.00309  0.51465  0.24490  1.0000
  H   H1037     1.0  0.87072  0.47652  0.30430  1.0000
  C   C1306     1.0  0.75266  0.47558  0.49644  1.0000
  H   H1038     1.0  0.81439  0.87265  0.44564  1.0000
  H   H1039     1.0  0.70158  0.51773  0.28212  1.0000
  H   H1040     1.0  0.72891  0.76370  0.26387  1.0000
  S   S179      1.0  0.70062  0.62398  0.20976  1.0000
  H   H1041     1.0  0.01596  0.94288  0.25602  1.0000
  C   C1307     1.0  0.71693  0.56320  0.08121  1.0000
  H   H1042     1.0  0.81598  0.84500  0.38804  1.0000
  C   C1308     1.0  0.91585  0.49341  0.37588  1.0000
  C   C1309     1.0  0.70066  0.90570  0.34425  1.0000
  C   C1310     1.0  0.77285  0.48475  0.47001  1.0000
  C   C1311     1.0  0.92320  0.90953  0.44031  1.0000
  C   C1312     1.0  0.90871  0.47633  0.26887  1.0000
  C   C1313     1.0  0.95517  0.90940  0.26079  1.0000
  H   H1043     1.0  0.73530  0.79640  0.07668  1.0000
  H   H1044     1.0  0.69646  0.55653  0.19629  1.0000
  C   C1314     1.0  0.80250  0.50227  0.12802  1.0000
  C   C1315     1.0  0.70335  0.72661  0.04200  1.0000
  H   H1045     1.0  0.85545  0.94185  0.23854  1.0000
  H   H1046     1.0  0.87793  0.62747  0.05458  1.0000
  H   H1047     1.0  0.74163  0.47332  0.18294  1.0000
  H   H1048     1.0  0.95406  0.73712  0.28572  1.0000
  H   H1049     1.0  0.72931  0.78687  0.20100  1.0000
  H   H1050     1.0  0.97457  0.50028  0.04186  1.0000
  H   H1051     1.0  0.00107  0.57349  0.16250  1.0000
  H   H1052     1.0  0.86129  0.53354  0.09728  1.0000
  C   C1316     1.0  0.85728  0.49373  0.10166  1.0000
  C   C1317     1.0  0.01490  0.45305  0.30084  1.0000
  H   H1053     1.0  0.99261  0.49802  0.23394  1.0000
  H   H1054     1.0  0.82987  0.92075  0.14778  1.0000
  H   H1055     1.0  0.95566  0.85279  0.44421  1.0000
  H   H1056     1.0  0.89833  0.82012  0.42093  1.0000
  H   H1057     1.0  0.98773  0.48412  0.12766  1.0000
  H   H1058     1.0  0.82879  0.62220  0.03180  1.0000
  C   C1318     1.0  0.81262  0.47774  0.12494  1.0000
  H   H1059     1.0  0.77289  0.82787  0.07170  1.0000
  C   C1319     1.0  0.95004  0.91022  0.30159  1.0000
  C   C1320     1.0  0.97127  0.76689  0.15976  1.0000
  C   C1321     1.0  0.92546  0.89067  0.37511  1.0000
  C   C1322     1.0  0.74151  0.84841  0.15580  1.0000
  C   C1323     1.0  0.89839  0.72178  0.26700  1.0000
  C   C1324     1.0  0.89183  0.73933  0.29610  1.0000
  C   C1325     1.0  0.87577  0.76031  0.28654  1.0000
  C   C1326     1.0  0.86608  0.76366  0.24798  1.0000
  C   C1327     1.0  0.87239  0.74601  0.21858  1.0000
  C   C1328     1.0  0.88870  0.72501  0.22844  1.0000
  P   P46       1.0  0.85815  0.74990  0.16956  1.0000
  C   C1329     1.0  0.86105  0.78278  0.15721  1.0000
  C   C1330     1.0  0.87811  0.73119  0.13483  1.0000
  C   C1331     1.0  0.89796  0.74213  0.10915  1.0000
  C   C1332     1.0  0.88920  0.69023  0.10747  1.0000
  C   C1333     1.0  0.87385  0.70512  0.13362  1.0000
  C   C1334     1.0  0.83823  0.79591  0.14124  1.0000
  C   C1335     1.0  0.84097  0.82136  0.13157  1.0000
  C   C1336     1.0  0.86648  0.83375  0.13747  1.0000
  C   C1337     1.0  0.88910  0.82093  0.15408  1.0000
  C   C1338     1.0  0.88638  0.79557  0.16408  1.0000
  C   C1339     1.0  0.82185  0.73961  0.16975  1.0000
  C   C1340     1.0  0.80478  0.74331  0.20314  1.0000
  C   C1341     1.0  0.77773  0.73311  0.20478  1.0000
  C   C1342     1.0  0.76734  0.71946  0.17293  1.0000
  C   C1343     1.0  0.78363  0.71666  0.13886  1.0000
  C   C1344     1.0  0.81063  0.72698  0.13700  1.0000
  H   H1060     1.0  0.91064  0.70535  0.27432  1.0000
  H   H1061     1.0  0.89888  0.73651  0.32612  1.0000
  H   H1062     1.0  0.87016  0.77373  0.30921  1.0000
  H   H1063     1.0  0.85304  0.77975  0.24138  1.0000
  H   H1064     1.0  0.89391  0.71089  0.20681  1.0000
  H   H1065     1.0  0.90202  0.76205  0.10941  1.0000
  H   H1066     1.0  0.88586  0.67013  0.10711  1.0000
  H   H1067     1.0  0.85881  0.69629  0.15336  1.0000
  H   H1068     1.0  0.81829  0.78664  0.13651  1.0000
  H   H1069     1.0  0.82325  0.83165  0.11999  1.0000
  C   C1345     1.0  0.82944  0.57749  0.10415  1.0000
  H   H1070     1.0  0.90875  0.83067  0.15943  1.0000
  H   H1071     1.0  0.90416  0.78585  0.17677  1.0000
  Fe  Fe86      1.0  0.98911  0.63203  0.22303  1.0000
  Fe  Fe87      1.0  0.97112  0.65989  0.14902  1.0000
  C   C1346     1.0  0.97839  0.71956  0.12506  1.0000
  C   C1347     1.0  0.75338  0.90248  0.50222  1.0000
  C   C1348     1.0  0.98988  0.76410  0.12803  1.0000
  H   H1072     1.0  0.91716  0.79699  0.24947  1.0000
  Fe  Fe88      1.0  0.95447  0.60520  0.16147  1.0000
  H   H1073     1.0  0.90560  0.51509  0.42746  1.0000
  C   C1349     1.0  0.91756  0.91057  0.39986  1.0000
  H   H1074     1.0  0.69208  0.76687  0.33839  1.0000
  H   H1075     1.0  0.89663  0.84701  0.47991  1.0000
  H   H1076     1.0  0.82054  0.91252  0.34629  1.0000
  H   H1077     1.0  0.72110  0.84638  0.48750  1.0000
  C   C1350     1.0  0.83673  0.61056  0.05550  1.0000
  H   H1078     1.0  0.86513  0.57008  0.14172  1.0000
  C   C1351     1.0  0.73828  0.48501  0.41782  1.0000
  H   H1079     1.0  0.73328  0.48836  0.38705  1.0000
  C   C1352     1.0  0.90326  0.49161  0.20166  1.0000
  C   C1353     1.0  0.01690  0.51210  0.14808  1.0000
  C   C1354     1.0  0.97285  0.72579  0.28716  1.0000
  C   C1355     1.0  0.99079  0.50369  0.13455  1.0000
  Fe  Fe89      1.0  0.79146  0.46048  0.29832  1.0000
  C   C1356     1.0  0.73642  0.81087  0.09887  1.0000
  C   C1357     1.0  0.85513  0.86163  0.46784  1.0000
  C   C1358     1.0  0.73801  0.88078  0.51097  1.0000
  C   C1359     1.0  0.96842  0.52068  0.13053  1.0000
  H   H1080     1.0  0.85836  0.90937  0.43518  1.0000
  C   C1360     1.0  0.75253  0.57385  0.12910  1.0000
  C   C1361     1.0  0.02049  0.53742  0.15758  1.0000
  C   C1362     1.0  0.85738  0.83087  0.40053  1.0000
  H   H1081     1.0  0.77732  0.86120  0.12249  1.0000
  C   C1363     1.0  0.99334  0.74039  0.11055  1.0000
  H   H1082     1.0  0.70631  0.83112  0.18437  1.0000
  C   C1364     1.0  0.84634  0.90997  0.16166  1.0000
  C   C1365     1.0  0.81985  0.52283  0.11877  1.0000
  C   C1366     1.0  0.87441  0.91582  0.15344  1.0000
  H   H1083     1.0  0.79420  0.48770  0.47980  1.0000
  H   H1084     1.0  0.86614  0.89397  0.36333  1.0000
  C   C1367     1.0  0.95002  0.51211  0.33157  1.0000
  C   C1368     1.0  0.80912  0.56122  0.18029  1.0000
  H   H1085     1.0  0.94128  0.89911  0.24151  1.0000
  H   H1086     1.0  0.87390  0.85929  0.30123  1.0000
  C   C1369     1.0  0.94485  0.86884  0.43186  1.0000
  P   P47       1.0  0.80734  0.55439  0.12817  1.0000
  H   H1087     1.0  0.87264  0.81823  0.26901  1.0000
  C   C1370     1.0  0.71775  0.47600  0.44428  1.0000
  C   C1371     1.0  0.94344  0.82639  0.27221  1.0000
  C   C1372     1.0  0.81119  0.57293  0.26086  1.0000
  C   C1373     1.0  0.80704  0.59192  0.23311  1.0000
  H   H1088     1.0  0.77753  0.53198  0.06163  1.0000
  S   S180      1.0  0.99626  0.62478  0.15842  1.0000
  H   H1089     1.0  0.92210  0.68949  0.06366  1.0000
  S   S181      1.0  0.78941  0.45661  0.23288  1.0000
  C   C1374     1.0  0.99778  0.73490  0.27056  1.0000
  H   H1090     1.0  0.81186  0.57752  0.29188  1.0000
  C   C1375     1.0  0.89352  0.85034  0.29359  1.0000
  C   C1376     1.0  0.90929  0.70117  0.08265  1.0000
  C   C1377     1.0  0.91767  0.81494  0.26441  1.0000
  H   H1091     1.0  0.94583  0.85436  0.37293  1.0000
  C   C1378     1.0  0.81495  0.54818  0.24850  1.0000
  H   H1092     1.0  0.81661  0.52297  0.19962  1.0000
  C   C1379     1.0  0.00294  0.55923  0.25837  1.0000
  C   C1380     1.0  0.91934  0.86224  0.30069  1.0000
  C   C1381     1.0  0.89272  0.82687  0.27531  1.0000
  H   H1093     1.0  0.96276  0.81725  0.26331  1.0000
  H   H1094     1.0  0.99222  0.57711  0.25872  1.0000
  C   C1382     1.0  0.77165  0.55753  0.11059  1.0000
  H   H1095     1.0  0.75730  0.91616  0.52509  1.0000
  H   H1096     1.0  0.92946  0.73552  0.06445  1.0000
  Fe  Fe90      1.0  0.01179  0.86451  0.09547  1.0000
  H   H1097     1.0  0.00810  0.73811  0.08656  1.0000
  H   H1098     1.0  0.71223  0.79226  0.39253  1.0000
  C   C1383     1.0  0.70383  0.49445  0.17390  1.0000
  H   H1099     1.0  0.94169  0.88807  0.48752  1.0000
  H   H1100     1.0  0.98742  0.47305  0.33971  1.0000
  H   H1101     1.0  0.74382  0.86273  0.17830  1.0000
  H   H1102     1.0  0.72936  0.53684  0.03637  1.0000
  H   H1103     1.0  0.69636  0.94149  0.31538  1.0000
  C   C1384     1.0  0.96888  0.92338  0.32584  1.0000
  H   H1104     1.0  0.69583  0.56546  0.06995  1.0000
  H   H1105     1.0  0.69915  0.86977  0.37258  1.0000
  C   C1385     1.0  0.69463  0.76436  0.09841  1.0000
  H   H1106     1.0  0.70623  0.87380  0.09808  1.0000
  H   H1107     1.0  0.90146  0.92480  0.25572  1.0000
  H   H1108     1.0  0.69248  0.47827  0.16286  1.0000
  H   H1109     1.0  0.92369  0.49442  0.05387  1.0000
  H   H1110     1.0  0.71076  0.73703  0.14017  1.0000
  C   C1386     1.0  0.99251  0.93519  0.30943  1.0000
  H   H1111     1.0  0.96273  0.77700  0.05656  1.0000
  C   C1387     1.0  0.91810  0.82594  0.04414  1.0000
  H   H1112     1.0  0.90342  0.83734  0.06077  1.0000
  C   C1388     1.0  0.83641  0.94408  0.44251  1.0000
  S   S182      1.0  0.01992  0.62742  0.27273  1.0000
  H   H1113     1.0  0.91726  0.92506  0.45915  1.0000
  C   C1389     1.0  0.99741  0.93415  0.26877  1.0000
  C   C1390     1.0  0.93222  0.80625  0.06273  1.0000
  C   C1391     1.0  0.96435  0.48293  0.03327  1.0000
  C   C1392     1.0  0.93567  0.47949  0.04031  1.0000
  H   H1114     1.0  0.90024  0.45491  0.03440  1.0000
  C   C1393     1.0  0.02242  0.72044  0.27175  1.0000
  C   C1394     1.0  0.69271  0.74992  0.03043  1.0000
  Fe  Fe91      1.0  0.97262  0.90086  0.73258  1.0000
  S   S183      1.0  0.93962  0.90581  0.68486  1.0000
  H   H1115     1.0  0.91869  0.93257  0.82941  1.0000
  Fe  Fe92      1.0  0.73798  0.90224  0.60728  1.0000
  S   S184      1.0  0.73262  0.89245  0.67186  1.0000
  S   S185      1.0  0.72486  0.87521  0.55910  1.0000
  C   C1395     1.0  0.72305  0.93144  0.79049  1.0000
  C   C1396     1.0  0.90400  0.94225  0.81033  1.0000
  Fe  Fe93      1.0  0.77559  0.90980  0.67935  1.0000
  S   S186      1.0  0.80873  0.89482  0.72125  1.0000
  H   H1116     1.0  0.87062  0.91568  0.82062  1.0000
  Fe  Fe94      1.0  0.02163  0.93063  0.76660  1.0000
  S   S187      1.0  0.78209  0.91608  0.61463  1.0000
  H   H1117     1.0  0.82068  0.86406  0.64699  1.0000
  C   C1397     1.0  0.75218  0.92860  0.79037  1.0000
  C   C1398     1.0  0.94287  0.81698  0.98307  1.0000
  C   C1399     1.0  0.90332  0.90334  0.69594  1.0000
  C   C1400     1.0  0.89376  0.89143  0.73033  1.0000
  C   C1401     1.0  0.86475  0.88872  0.73740  1.0000
  C   C1402     1.0  0.84503  0.89839  0.71070  1.0000
  C   C1403     1.0  0.85459  0.91066  0.67657  1.0000
  C   C1404     1.0  0.88361  0.91287  0.66904  1.0000
  H   H1118     1.0  0.90873  0.88396  0.75119  1.0000
  H   H1119     1.0  0.85756  0.87917  0.76383  1.0000
  H   H1120     1.0  0.83965  0.91829  0.65586  1.0000
  C   C1405     1.0  0.99026  0.77117  0.89450  1.0000
  H   H1121     1.0  0.99616  0.73170  0.01987  1.0000
  S   S188      1.0  0.71856  0.94044  0.61261  1.0000
  Fe  Fe95      1.0  0.71600  0.93169  0.67770  1.0000
  C   C1406     1.0  0.96965  0.88018  0.95794  1.0000
  H   H1122     1.0  0.94702  0.88163  0.95863  1.0000
  H   H1123     1.0  0.89082  0.92207  0.64234  1.0000
  C   C1407     1.0  0.92336  0.83124  0.00432  1.0000
  H   H1124     1.0  0.94636  0.82136  0.95223  1.0000
  C   C1408     1.0  0.96769  0.74731  0.97648  1.0000
  C   C1409     1.0  0.93446  0.89370  0.58104  1.0000
  C   C1410     1.0  0.93081  0.71880  0.95532  1.0000
  H   H1125     1.0  0.91260  0.84664  0.98997  1.0000
  H   H1126     1.0  0.85222  0.88294  0.59769  1.0000
  H   H1127     1.0  0.81979  0.92139  0.54903  1.0000
  C   C1411     1.0  0.99640  0.77906  0.85594  1.0000
  H   H1128     1.0  0.97309  0.87294  0.02063  1.0000
  C   C1412     1.0  0.83459  0.87194  0.58751  1.0000
  H   H1129     1.0  0.95240  0.89662  0.60012  1.0000
  H   H1130     1.0  0.76849  0.83515  0.55475  1.0000
  C   C1413     1.0  0.99685  0.81371  0.91779  1.0000
  H   H1131     1.0  0.83727  0.93730  0.77625  1.0000
  H   H1132     1.0  0.98623  0.75146  0.89978  1.0000
  S   S189      1.0  0.01785  0.90525  0.71435  1.0000
  C   C1414     1.0  0.92185  0.91414  0.56235  1.0000
  H   H1133     1.0  0.70969  0.91633  0.78013  1.0000
  C   C1415     1.0  0.00271  0.82154  0.87911  1.0000
  C   C1416     1.0  0.94207  0.69979  0.97889  1.0000
  C   C1417     1.0  0.01331  0.88154  0.92140  1.0000
  H   H1134     1.0  0.93233  0.68139  0.97974  1.0000
  C   C1418     1.0  0.95756  0.79752  0.00185  1.0000
  P   P48       1.0  0.98277  0.77844  0.97578  1.0000
  C   C1419     1.0  0.87688  0.93279  0.80558  1.0000
  H   H1135     1.0  0.93433  0.75720  0.93625  1.0000
  H   H1136     1.0  0.77857  0.84035  0.62590  1.0000
  H   H1137     1.0  0.01516  0.82111  0.60083  1.0000
  H   H1138     1.0  0.99773  0.82730  0.94150  1.0000
  Fe  Fe96      1.0  0.98758  0.89554  0.81978  1.0000
  S   S190      1.0  0.97580  0.92873  0.78177  1.0000
  H   H1139     1.0  0.00748  0.84103  0.87285  1.0000
  C   C1420     1.0  0.94344  0.74252  0.95432  1.0000
  H   H1140     1.0  0.99664  0.76565  0.83198  1.0000
  C   C1421     1.0  0.81667  0.86127  0.61580  1.0000
  C   C1422     1.0  0.79299  0.84786  0.60398  1.0000
  C   C1423     1.0  0.92319  0.86965  0.57667  1.0000
  C   C1424     1.0  0.97987  0.46401  0.01497  1.0000
  H   H1141     1.0  0.91223  0.71520  0.93791  1.0000
  C   C1425     1.0  0.89924  0.86601  0.55367  1.0000
  C   C1426     1.0  0.98406  0.88327  0.92195  1.0000
  S   S191      1.0  0.98162  0.86741  0.77109  1.0000
  C   C1427     1.0  0.01622  0.77967  0.00053  1.0000
  H   H1142     1.0  0.93241  0.85403  0.59252  1.0000
  H   H1143     1.0  0.76146  0.91121  0.78000  1.0000
  C   C1428     1.0  0.01365  0.87331  0.99236  1.0000
  S   S192      1.0  0.96492  0.88903  0.87823  1.0000
  C   C1429     1.0  0.98438  0.87530  0.99308  1.0000
  C   C1430     1.0  0.97836  0.72833  0.00100  1.0000
  C   C1431     1.0  0.00247  0.80427  0.84822  1.0000
  H   H1144     1.0  0.83645  0.94089  0.90949  1.0000
  C   C1432     1.0  0.82939  0.86867  0.54694  1.0000
  C   C1433     1.0  0.96577  0.70460  0.00179  1.0000
  H   H1145     1.0  0.88994  0.84745  0.55222  1.0000
  H   H1146     1.0  0.93011  0.93287  0.56697  1.0000
  C   C1434     1.0  0.78736  0.84489  0.56385  1.0000
  C   C1435     1.0  0.98984  0.78856  0.92566  1.0000
  H   H1147     1.0  0.00725  0.81049  0.81836  1.0000
  H   H1148     1.0  0.97425  0.68999  0.02062  1.0000
  C   C1436     1.0  0.02216  0.79884  0.02765  1.0000
  C   C1437     1.0  0.80529  0.85539  0.53543  1.0000
  C   C1438     1.0  0.89785  0.91059  0.53937  1.0000
  H   H1149     1.0  0.98600  0.94247  0.86453  1.0000
  H   H1150     1.0  0.96159  0.94180  0.92898  1.0000
  C   C1439     1.0  0.88642  0.88643  0.53463  1.0000
  H   H1151     1.0  0.00209  0.46671  0.00923  1.0000
  H   H1152     1.0  0.70651  0.71194  0.02032  1.0000
  C   C1440     1.0  0.92258  0.45697  0.02954  1.0000
