data_image0
_chemical_formula_structural       FeS2FeS2FeSFeS2H5C3HCH2CHC5H2CHC2H4C3H4CHCH3C2H3C2H2CHCHC4H2C5FeSFeS2FeSFeHS2C3H4C3HC5HC2HPCH2C2HCHC2H2C2H5C4HCH2C2H3C3H2C4H2CHCH2CH4SFeSHFeS2FeSFeS3CFe2SCS2FeCSFeS2FeSFeHS2FeS2FeS2FeSFeS3CFeHFeS2FeS2C6H3C4HC2HC8H4CH3SC2HCHCHSHC3H2C6H4C6H4C6H4C6H4C6H3C6PC17H19C5PC19H14CH4C6HC2HCH6CHCH2CHCHSHC7PHCHC2FeH2CH3C6H5C2PHCH12CHC3HC2H2C2HC3HCHCH2C3H2CHCSCH2C2H2C6PC16H2CH6CH6C3HC3H2SHCH2SCH6C2H3C3HCHCH2CH2C2SH2C2PCHCHCH2FeC3HCHFeCH2CSHCHC3HC2H4PCH2SC4HC2SH2PCHC3HC3HC4HCH2CH3C3PH3C2HSCH2SC8SH2C3HC2HC6H3CH2C6H2PH3CHC4HCPC2H4CH2CHCHCHCHC3HC2H4CH2CH3CSC3H4C2HC9HC3FeS2FeS2FeSFeS3FeS2FeS2FeS2FeHFeS3FeS2FeS2FeSFeCS2HFeSFeS2FeS2C3H2C7H3C6H5CHC2H3CHC6H6C6H3C6H4C6H4C5H3CH2C3H5CH2C5PC3HC4HSHC7HSPHCH7CH2CH3CH2C3HC2H2C2H10PC14HC3H8CH3CSC5HSHC6PH2CH2C3H3C2H2C3PC4H2C12H3C2H13CHC4HCH4CHC8H5C4H3C2PHSC2HCSFeHCFePHC2H4C2SCHCHCH2CHCH2C2SCH2CH2C3H2CHC4H2SH3C5H2CH2PC2HC4H2C4HC5H2C2H3C2HC4H2C3HC4H3CFeCH2SCHCHCH3CHCH3CHC3HCH2C2HC4HC5HC2HCFeHC2H2CH3CHCH2C5H2SCHCHCHC5H2C5PCH4C2H2C3H2CHC2H3C3HCHC3PH2PC2H2C2HC6HCHCH3C3SHC2H3CH3CH2C3HCHC2HC2HCHC2HC5SC3HC3H2C3HC4HCH2PCH2CH5CPCHCHCH2C2HC4H2C8H8CHC4HC3FeSHFeS2FeSFeS3FeSFeS2FeS2FeS2FeSFeS4C2S2FeHS2C6H4FeHC5HCHC6H4C6H4C6H4C6H4C2SHCHCHC2H2CHCH4CH4CHC2HC5H3CPHC2H3CHCH3C2HS2CH4C2HC4PC9PC18H16CHC7H4C2HCHC4H3C2H9CHC2HCH2C2HC2HCHC2HCHC4HC2HC2HCHCHCH3CHCH2CHSHCH2C2SFeCHSCHFeHFeHSHCSCH2C2FeHSHCH2C5HC4H3CH3C5H3C2HCH2C2HCH2CH2C3H2CHCHCHPFeH2C5HCH4C5PC2SH2CH4CFeH2C7FeC6HC2H4CH3C3H2SH2SCFeSHCSCFeS2FeS2FeS2FeS2Fe2S6HC7H4C6H4C6H5C6H4C6H3PC6H2CSCH4C2HCPH2SHC2HC3SHC7PC5HCHCH2C2SCH10CSH2FeHCHC2HCH3C3HC2HS2H2C2FeHPH2C4HCSFe2H6CHC6PC8H5CHCHCH5CH4C3HSHCFeHC2HCHSHFeCH3C2SHC3H2FeHCHSCHC6PC3HC6HC7H5CH6FeCH7C2HFeCH4C6PC10H4CHC2HCH3C12HC2H2C2HCPCH3C2HC3H4CSCH2CHCHCHCHC3HC2SC2HC2HCH2C6HC2HCHCHC3H4C3H4C2HC2HC3HCHC2HC2HCHCFeHFeS2HFeHS2FeS2FeS2FeHFeS3HC2H3CFeSCFeS2FeSFeS3HC2H2CHCHC6H3PC6H5CHC6H4C6H4CHC2HCH2C5H2CHPH3C2HCHC2HPHC2SCHC5H2C2HPH2C2SCHC2H2PCH5CHCHFeCHCSHCSHSH3C2HSC2H4CH5CHCHC3HC2H2C12PC18H17CH3C2H2CHCHC2H5CH2C2HC10HC4HCH8C2H2C2H2C2HC2PCHC5H4C3SCHCHC3HC2H3CHC2HCH2CHC3H3CHCHCH3CH2C2H2C3H2C2H3C2HC3HCSHC3HSCHC3HC5SC2FeHCHFeSCHC3FeS2FeS2FeS2FeSFeS3CHC4SHFeS2FeS2FeHFeS3CHC4H2C6H3CH4CHC6H4C6H4C3H4C6H8C2HC7PC7HC2H2C6H3CH5C2H2C2H2CHCPC3PH2CH6CH3C2PCSHCH3C11HCH3SHCH12PCSHPC3HCH4C2HC2H3C5HCH4SHC5H2CHCHCHFeH2C2HC8HC5HCHCH2C3HC2H4CH2CHC5HCHC2H2C2HC3H2C2HC3H3PHC4H3C3PC2HCH2C3HCHC5HC3HC2HC2HC3SHCHC3H3CH2C2HC4FeS2FeS2FeSFeS3FeS2FeS2FeSFeS3CHSFeS2FeSFeS3FeSHFeS2FeSFeCS2FeS2FeS2FeSHS2C2SHCH2C7H4C6H5C2H2C6H4CHCHC6H4C6H4C6H4C6H4CH2C2HC2FeH4C6H4FeC4H10C2H2C2SH2CHC3SC5PC9H8CHCH2C2HCH3CHCH3CH2C2H6CH3C11PCHCH2C2H3C3HCHCH6C3SCH3CHC11PC14H16C2P2HC2H2FeC4H5C4PC10H9FeHC4HC2SCH4C2H2C2HC2H2CSHCHCHCHPC5H3C2HCHC5HCH2SPCHCH3CHCHCH2CHCHC2H4C4HC2H2C4HCHC6HC8H3CHC2HC2HC3H4C2H3C3HCH2C2H2C2H2CHCHC2HP2CHCH2CH2CH3C2HC4HC4HCH3CFeSC4HC3H2C6H2CHC2HC2H2CHC3H2C2H2CHCH2C2H2CHCHCHC9H2C3HCH2C2HCHC4HC2FeSHFeS2FeSFeS3FeS2FeS2Fe2S3FeS2FeS2H2FeS3FeS2FeS2FeSFeS2FeS2FeS2FeSFeS5C3H2C4H3C7H3C6H4FeHC5H3C6H4CH3C2HC7H4C6H4C6H4CH2CHCHCHC7H4CHCHPCHCHSC4HCH2PC10FeHC2H4CHC2H3CH3C3HCH3C2PC2HCFeH2PH5C2H2C4HC2H2CH4C2H2C3HC2PCHCH2CPC9H6CH2C6PC18H20CHCH2CH2SC3H2C8H5CH2C2HCH2CHCHCH3C4SHCHCH2C2H2PC2HCSCFeC2HCHCH3CHCHC3HCH3CHC2H2C4H2C2HC2H2C4H3CH2C3HC4H2C4PHFeHCHC6HC3HC5PH2C3HC5H2C2HCHC2HCH2C2HC2H2C2H2C2H5C4HC2H2CH2CHCH2C2H3CSC2H6CH5CH4C3SC4H2C10HCH4C2HCHCPCH3CHC2H2SHC3H2C4FeC4H2C3HCH3CHC2SC2PSH2CFeS2FeS2FeSFeS3FeS2FeSHFeSFeS3H2FeS2FeS2FeSFeS3H3C2SH2FeHCH3C4H2C6H3CHCHC2HCHCHCH2C2H2C6H4CHC4H2C3HC2HC2HC6H3C3HC2HC3HCHCHCSH2C7H3C2HCPHS2C6H3CH2CSCH2C2HCH2C4HC2HCHCH2CH2CH2PC4HC5H2CHC2HC2HCH2CHCHCH2C3H2CHCFeH3CH2CH3CPC4HC3HC5H2CHC2HC3HCSCPCHC3FeC2HCPHC2HCHCH2CH3C5PCPCH2C2PHCSHC6HC2H4C3HCHCPH4FeCHCHCHC6HC4SCHCHCHC2H3CHCHC2HCH2CHC4H3CHC4SCHCH7C2HC3HCHC2HCH4C6H3CHC3HCH3CH2C2HC3HCHCHC2H2CH3C5HCHC3H3C2H2CHC4H2CH3C3H2C2H2FeS2FeS2FeSFeS3FeSFeS2FeSFeS3C2SC2FeS2FeS2FeSFeS3CH2CH4CHC9H2CHC2HPC6H4C6H3C7H4CH2C5H2C6H4C3FeCHC6PC16H13C6H10CPC10H6CH3C2HC4PC14H2C3HSH5CH6CSCFeHC6PC2HC5SC5HC3H5CH6C2SHCH5C2H3C8H2CHCH2CH5CFeCH2C2PHSC7HFeHCH4CH3CHCHCH2C4HCH5CHC3SCHCH2CH2CH3C2H5CH4CH5C2HCFeC2HSC2HSHC2H2CH2C3HCHCSHC2HC3HCH2C4HCH2C3HCPH3C3HCHCHC2HC2HCSHC2H3CH3CH2CHC2HC2HCH2CH2C2H2CHC6HC2H3CSH7CPC3SCHSCHC5SHCHFeHC2H3C2H4C10H5CHC4H2CHSH2C2HFeCSH7C2HC3HC2HPC4H5CHPC3HSH2CPFeCSCFeCHSFeS2HCHFeSCHSC3HC5HC2HCH3C6H5C2HC4FeHC4H4C5HC2HCH2CH4CHC7HCHPH3SHCPC2H2C8HCHSCH4CS2CH4FeS2FeS2FeSFeHS2FeS2FeS2FeCFeS3FeS2FeS2FeSFeHS2FeS2FeSCFeSFeS3C4H2CHC6H4C6H6C4HC2H2CH3C5H3C6H4C3PHCH2CH2C5HCH3C7H4C2HC2FeHC3SC4HCHC2HC3H4CH3C2H7SHCHCH4CHFeHC5FeCH2CHC7H3CHC2HPCH3CH3C3H2CHCHC3PC9HC8H17CHC2H4C5HC2H7CHCHCH4CHCHC9PC4HC13H20C3HC3HCHC6HC4HCH2CH2C4SC2HC2H2CHC2H2CHC2HCHCHCHPHCHC5H3C10PC2HCHC4H4C8HC2HC2SC3HC2HCH2CHC4HCHC2PC3HCHC3H7CHCH6PCPSHC3HC2H2CSCHC3H3CHC2HCHCHCHSH2CSH4CH2CSHCH2CHC2HC3H2SH4CFeS2HFeSHSHC2HFeS2FeS2FeSFeS3FeS2FeS2FeSFeS3FeS2FeS2FeSFeS3C8H5C5H2C8H9C2H2C3H4C2H2PHFeHC2HC3H2C3HC6H4CHCH2CH2C9H4CHCPC3HC6PC9H13CHCHCSCHCHC2H2C2H2C4PCHSCHC4H6CHC2HC2HC3H2C3HPHC7PHCHC8H2CH2PCHCH4CH2C2HC2HC3HC8HC2H2CHSCHC7HC2H2C2HCH2CH4CHC2HC5HC2HCHC2HC6HSC2HCHCSCHCH4CHC2HCH4C2HC2HC6HCH2C2H2C2FePHC2H4CHC2HC3HC3HCHCHC2PCHSH5CHCH3C2H2C3HC2HC2HCHC3HC3HC3H2SC3H2FeH5PH2CHCH2C3H3CHCH2CSFeHC7HC5H5C5H2CH2CH2C4HCHCHCH2C7HC2H3C2H6C4H4C2HCHCHC3H2CH2C3HCH3C3H5C2HCH2CHC4H2SH5CS2HC3HCHC2FeHCPHC3HCFeC2HC2H2CH2C3S2HCH2C6H3C2SC2H4CH2C4HFeH3CHCHCFeC2HC2H3C4SH2SH2CHC7PC3H3CSH5C3HCHCHC3HC2HC5H3CHCH3C2SCH5CH2C4H4CHCFeHS2H2CPC2HCH2SFeHC2SHCHCHCHFeCHC2SH3C3HCH2C6H3C2SC2H2FeC3HCHC2HSHCHCHCPC3HC3H2CH
_chemical_formula_sum              "Fe240 S480 H2880 C3600 P120"
_cell_length_a       108.178
_cell_length_b       108.491
_cell_length_c       37.9829
_cell_angle_alpha    79.0352
_cell_angle_beta     79.1658
_cell_angle_gamma    102.202

_space_group_name_H-M_alt    "P 1"
_space_group_IT_number       1

loop_
  _space_group_symop_operation_xyz
  'x, y, z'

loop_
  _atom_site_type_symbol
  _atom_site_label
  _atom_site_symmetry_multiplicity
  _atom_site_fract_x
  _atom_site_fract_y
  _atom_site_fract_z
  _atom_site_occupancy
  Fe  Fe1       1.0  0.05579  0.46561  0.15852  1.0000
  S   S1        1.0  0.05522  0.47848  0.10543  1.0000
  S   S2        1.0  0.07513  0.46793  0.17607  1.0000
  Fe  Fe2       1.0  0.02661  0.45155  0.17335  1.0000
  S   S3        1.0  0.02380  0.46371  0.12179  1.0000
  S   S4        1.0  0.01013  0.43843  0.22084  1.0000
  Fe  Fe3       1.0  0.04298  0.46087  0.09378  1.0000
  S   S5        1.0  0.04888  0.45903  0.03419  1.0000
  Fe  Fe4       1.0  0.03631  0.48026  0.13678  1.0000
  S   S6        1.0  0.04510  0.44750  0.14469  1.0000
  S   S7        1.0  0.03755  0.46863  0.19063  1.0000
  H   H1        1.0  0.99697  0.45549  0.45842  1.0000
  H   H2        1.0  0.00164  0.40815  0.37156  1.0000
  H   H3        1.0  0.02070  0.45418  0.04210  1.0000
  H   H4        1.0  0.01319  0.45487  0.40430  1.0000
  H   H5        1.0  0.12229  0.48962  0.17809  1.0000
  C   C1        1.0  0.00828  0.49212  0.08453  1.0000
  C   C2        1.0  0.99947  0.42712  0.34757  1.0000
  C   C3        1.0  0.07226  0.48382  0.22510  1.0000
  H   H6        1.0  0.08508  0.48721  0.03052  1.0000
  C   C4        1.0  0.99961  0.47737  0.36236  1.0000
  H   H7        1.0  0.01516  0.46895  0.34279  1.0000
  H   H8        1.0  0.06250  0.48290  0.22121  1.0000
  C   C5        1.0  0.00648  0.41772  0.35390  1.0000
  H   H9        1.0  0.13851  0.49689  0.06173  1.0000
  C   C6        1.0  0.08963  0.49300  0.25321  1.0000
  C   C7        1.0  0.12271  0.49444  0.14999  1.0000
  C   C8        1.0  0.01969  0.42045  0.33656  1.0000
  C   C9        1.0  0.03889  0.45856  0.00194  1.0000
  C   C10       1.0  0.09761  0.48630  0.23558  1.0000
  H   H10       1.0  0.02499  0.41309  0.34100  1.0000
  H   H11       1.0  0.01970  0.48373  0.01003  1.0000
  C   C11       1.0  0.00790  0.46918  0.36646  1.0000
  H   H12       1.0  0.07053  0.49642  0.26244  1.0000
  C   C12       1.0  0.08034  0.47739  0.20667  1.0000
  C   C13       1.0  0.02532  0.45575  0.01321  1.0000
  H   H13       1.0  0.00452  0.41813  0.18054  1.0000
  H   H14       1.0  0.01823  0.49128  0.07950  1.0000
  H   H15       1.0  0.00718  0.45166  0.99661  1.0000
  H   H16       1.0  0.10734  0.48712  0.23974  1.0000
  C   C14       1.0  0.03733  0.49643  0.24927  1.0000
  C   C15       1.0  0.00680  0.46127  0.40114  1.0000
  C   C16       1.0  0.09295  0.47848  0.21262  1.0000
  H   H17       1.0  0.05911  0.49123  0.02127  1.0000
  H   H18       1.0  0.00094  0.47474  0.06780  1.0000
  H   H19       1.0  0.00042  0.48349  0.33553  1.0000
  H   H20       1.0  0.03612  0.43453  0.29812  1.0000
  C   C17       1.0  0.03025  0.42670  0.99339  1.0000
  H   H21       1.0  0.00083  0.44663  0.31730  1.0000
  C   C18       1.0  0.00593  0.43930  0.32365  1.0000
  H   H22       1.0  0.03580  0.48040  0.04707  1.0000
  H   H23       1.0  0.09917  0.47331  0.19912  1.0000
  H   H24       1.0  0.99704  0.45464  0.25904  1.0000
  C   C19       1.0  0.99692  0.48638  0.23179  1.0000
  C   C20       1.0  0.01911  0.44196  0.30608  1.0000
  H   H25       1.0  0.02390  0.45114  0.28628  1.0000
  H   H26       1.0  0.99744  0.41956  0.42455  1.0000
  H   H27       1.0  0.02393  0.49318  0.21506  1.0000
  C   C21       1.0  0.02599  0.43255  0.31250  1.0000
  C   C22       1.0  0.03889  0.48708  0.02014  1.0000
  H   H28       1.0  0.00077  0.47496  0.27984  1.0000
  H   H29       1.0  0.09262  0.49348  0.08348  1.0000
  C   C23       1.0  0.99793  0.47491  0.25409  1.0000
  H   H30       1.0  0.02480  0.42768  0.01930  1.0000
  C   C24       1.0  0.99755  0.46165  0.43186  1.0000
  H   H31       1.0  0.13785  0.48632  0.12624  1.0000
  C   C25       1.0  0.02982  0.48899  0.99929  1.0000
  C   C26       1.0  0.07685  0.49147  0.24844  1.0000
  C   C27       1.0  0.05208  0.49322  0.00549  1.0000
  C   C28       1.0  0.13147  0.49255  0.12072  1.0000
  H   H32       1.0  0.04846  0.42962  0.00961  1.0000
  H   H33       1.0  0.04421  0.49222  0.23417  1.0000
  C   C29       1.0  0.99842  0.48269  0.07850  1.0000
  C   C30       1.0  0.04360  0.42775  0.98792  1.0000
  C   C31       1.0  0.01767  0.45435  0.98728  1.0000
  C   C32       1.0  0.02576  0.49698  0.23853  1.0000
  C   C33       1.0  0.06443  0.43992  0.86204  1.0000
  Fe  Fe5       1.0  0.01914  0.47569  0.78749  1.0000
  S   S8        1.0  0.02207  0.46271  0.74900  1.0000
  Fe  Fe6       1.0  0.01822  0.45553  0.85651  1.0000
  S   S9        1.0  0.02120  0.44077  0.82324  1.0000
  S   S10       1.0  0.01320  0.45244  0.91937  1.0000
  Fe  Fe7       1.0  0.03630  0.45763  0.78205  1.0000
  S   S11       1.0  0.05630  0.45690  0.75195  1.0000
  Fe  Fe8       1.0  0.00673  0.44714  0.79232  1.0000
  H   H34       1.0  0.08267  0.43469  0.86317  1.0000
  S   S12       1.0  0.03429  0.47165  0.81792  1.0000
  S   S13       1.0  0.00278  0.46074  0.82859  1.0000
  C   C34       1.0  0.02345  0.45588  0.94974  1.0000
  C   C35       1.0  0.03705  0.45925  0.93817  1.0000
  C   C36       1.0  0.04471  0.46050  0.96421  1.0000
  H   H35       1.0  0.08191  0.38490  0.89851  1.0000
  H   H36       1.0  0.04164  0.46040  0.90949  1.0000
  H   H37       1.0  0.05519  0.46262  0.95521  1.0000
  H   H38       1.0  0.05920  0.48344  0.76116  1.0000
  C   C37       1.0  0.08592  0.45481  0.83749  1.0000
  C   C38       1.0  0.07858  0.40084  0.86129  1.0000
  C   C39       1.0  0.07659  0.49246  0.86619  1.0000
  H   H39       1.0  0.01700  0.39611  0.85095  1.0000
  C   C40       1.0  0.06305  0.41171  0.88826  1.0000
  C   C41       1.0  0.06771  0.39332  0.92613  1.0000
  C   C42       1.0  0.03808  0.49380  0.68174  1.0000
  C   C43       1.0  0.03074  0.49419  0.65520  1.0000
  C   C44       1.0  0.04395  0.41897  0.85162  1.0000
  H   H40       1.0  0.03059  0.40275  0.89313  1.0000
  C   C45       1.0  0.06690  0.49651  0.88747  1.0000
  C   C46       1.0  0.07001  0.47030  0.74358  1.0000
  H   H41       1.0  0.10214  0.47073  0.62417  1.0000
  P   P1        1.0  0.05395  0.42381  0.88220  1.0000
  C   C47       1.0  0.07662  0.39234  0.89562  1.0000
  H   H42       1.0  0.07889  0.46540  0.65755  1.0000
  H   H43       1.0  0.09642  0.45659  0.83111  1.0000
  C   C48       1.0  0.04450  0.42481  0.92567  1.0000
  C   C49       1.0  0.08025  0.46495  0.82726  1.0000
  H   H44       1.0  0.04004  0.49333  0.87471  1.0000
  C   C50       1.0  0.03316  0.40813  0.86455  1.0000
  H   H45       1.0  0.10325  0.47772  0.71571  1.0000
  C   C51       1.0  0.07805  0.44235  0.85525  1.0000
  C   C52       1.0  0.02879  0.41102  0.80362  1.0000
  H   H46       1.0  0.02276  0.40818  0.78524  1.0000
  H   H47       1.0  0.08634  0.47449  0.81237  1.0000
  C   C53       1.0  0.06671  0.46273  0.83561  1.0000
  C   C54       1.0  0.05072  0.42688  0.95413  1.0000
  H   H48       1.0  0.04832  0.44861  0.85784  1.0000
  H   H49       1.0  0.02632  0.42386  0.90855  1.0000
  H   H50       1.0  0.11363  0.49339  0.59010  1.0000
  H   H51       1.0  0.07785  0.48280  0.87510  1.0000
  H   H52       1.0  0.03331  0.48971  0.71055  1.0000
  C   C55       1.0  0.07729  0.48506  0.64250  1.0000
  C   C56       1.0  0.08389  0.47528  0.64239  1.0000
  C   C57       1.0  0.04741  0.42542  0.81410  1.0000
  C   C58       1.0  0.08251  0.46886  0.73021  1.0000
  H   H53       1.0  0.05593  0.43353  0.80303  1.0000
  C   C59       1.0  0.10344  0.49103  0.60455  1.0000
  H   H54       1.0  0.05374  0.40321  0.94622  1.0000
  H   H55       1.0  0.06231  0.47060  0.82765  1.0000
  C   C60       1.0  0.07174  0.41041  0.85752  1.0000
  C   C61       1.0  0.09698  0.47827  0.62367  1.0000
  H   H56       1.0  0.06725  0.48248  0.65788  1.0000
  H   H57       1.0  0.07320  0.41682  0.83059  1.0000
  H   H58       1.0  0.08535  0.39997  0.83749  1.0000
  C   C62       1.0  0.06874  0.48217  0.75110  1.0000
  C   C63       1.0  0.09366  0.47909  0.72501  1.0000
  C   C64       1.0  0.02552  0.40427  0.84069  1.0000
  H   H59       1.0  0.04236  0.42682  0.76158  1.0000
  H   H60       1.0  0.08361  0.45971  0.72448  1.0000
  C   C65       1.0  0.03120  0.42439  0.93081  1.0000
  C   C66       1.0  0.06084  0.40288  0.92245  1.0000
  C   C67       1.0  0.05881  0.45026  0.85271  1.0000
  C   C68       1.0  0.03981  0.42150  0.79027  1.0000
  H   H61       1.0  0.02024  0.49040  0.66364  1.0000
  H   H62       1.0  0.99853  0.48828  0.94592  1.0000
  C   C69       1.0  0.09241  0.49077  0.73394  1.0000
  H   H63       1.0  0.02123  0.49022  0.84654  1.0000
  C   C70       1.0  0.02408  0.42512  0.96477  1.0000
  H   H64       1.0  0.06603  0.38659  0.95263  1.0000
  H   H65       1.0  0.00164  0.43747  0.70655  1.0000
  C   C71       1.0  0.07989  0.49226  0.74690  1.0000
  H   H66       1.0  0.04319  0.49572  0.77059  1.0000
  H   H67       1.0  0.06064  0.48970  0.91220  1.0000
  H   H68       1.0  0.01388  0.42505  0.96833  1.0000
  H   H69       1.0  0.06111  0.42793  0.95009  1.0000
  S   S14       1.0  0.01654  0.49556  0.76696  1.0000
  Fe  Fe9       1.0  0.24400  0.57949  0.08665  1.0000
  S   S15       1.0  0.25999  0.59526  0.09272  1.0000
  H   H70       1.0  0.20775  0.54465  0.20523  1.0000
  Fe  Fe10      1.0  0.22623  0.57778  0.16121  1.0000
  S   S16       1.0  0.24101  0.59327  0.17409  1.0000
  S   S17       1.0  0.20520  0.57158  0.19474  1.0000
  Fe  Fe11      1.0  0.24398  0.60386  0.11530  1.0000
  S   S18       1.0  0.24278  0.62448  0.09741  1.0000
  Fe  Fe12      1.0  0.25606  0.58353  0.15077  1.0000
  S   S19       1.0  0.27280  0.57904  0.17486  1.0000
  S   S20       1.0  0.22837  0.58919  0.10355  1.0000
  S   S21       1.0  0.24093  0.56693  0.14347  1.0000
  C   C72       1.0  0.20830  0.55510  0.11828  1.0000
  Fe  Fe13      1.0  0.27324  0.68866  0.13086  1.0000
  Fe  Fe14      1.0  0.05325  0.57314  0.12494  1.0000
  S   S22       1.0  0.28031  0.67036  0.13650  1.0000
  C   C73       1.0  0.04351  0.54151  0.27400  1.0000
  S   S23       1.0  0.23599  0.69532  0.21586  1.0000
  S   S24       1.0  0.25349  0.68985  0.12226  1.0000
  Fe  Fe15      1.0  0.14352  0.51945  0.29297  1.0000
  C   C74       1.0  0.24858  0.62672  0.00542  1.0000
  S   S25       1.0  0.16356  0.51741  0.26818  1.0000
  Fe  Fe16      1.0  0.12934  0.54018  0.28708  1.0000
  S   S26       1.0  0.11139  0.52719  0.32612  1.0000
  S   S27       1.0  0.12844  0.56011  0.26057  1.0000
  Fe  Fe17      1.0  0.12433  0.52063  0.36141  1.0000
  S   S28       1.0  0.11691  0.52139  0.42137  1.0000
  Fe  Fe18      1.0  0.11435  0.51197  0.29508  1.0000
  H   H71       1.0  0.03321  0.51049  0.32180  1.0000
  S   S29       1.0  0.14222  0.53501  0.32401  1.0000
  S   S30       1.0  0.13172  0.52571  0.25346  1.0000
  Fe  Fe19      1.0  0.13987  0.62877  0.26652  1.0000
  S   S31       1.0  0.14544  0.61567  0.31102  1.0000
  S   S32       1.0  0.12008  0.62307  0.25089  1.0000
  Fe  Fe20      1.0  0.16594  0.64940  0.25268  1.0000
  S   S33       1.0  0.17341  0.63756  0.29509  1.0000
  S   S34       1.0  0.17815  0.66819  0.21251  1.0000
  Fe  Fe21      1.0  0.16503  0.62112  0.27179  1.0000
  S   S35       1.0  0.17505  0.60566  0.26165  1.0000
  Fe  Fe22      1.0  0.15326  0.63328  0.33162  1.0000
  S   S36       1.0  0.14983  0.62915  0.39499  1.0000
  S   S37       1.0  0.15918  0.63315  0.22625  1.0000
  S   S38       1.0  0.14605  0.64624  0.29025  1.0000
  C   C75       1.0  0.10665  0.67837  0.03181  1.0000
  Fe  Fe23      1.0  0.06729  0.58920  0.04665  1.0000
  H   H72       1.0  0.20288  0.60928  0.02667  1.0000
  Fe  Fe24      1.0  0.07349  0.56415  0.07524  1.0000
  S   S39       1.0  0.07128  0.56660  0.13328  1.0000
  S   S40       1.0  0.07840  0.54780  0.05148  1.0000
  Fe  Fe25      1.0  0.08263  0.58740  0.10867  1.0000
  S   S41       1.0  0.10148  0.59549  0.12672  1.0000
  S   S42       1.0  0.08610  0.58420  0.05084  1.0000
  C   C76       1.0  0.02255  0.52063  0.00878  1.0000
  C   C77       1.0  0.04675  0.52393  0.12469  1.0000
  C   C78       1.0  0.05714  0.53461  0.10622  1.0000
  C   C79       1.0  0.06589  0.53400  0.07500  1.0000
  C   C80       1.0  0.06416  0.52265  0.06204  1.0000
  C   C81       1.0  0.05368  0.51190  0.08071  1.0000
  H   H73       1.0  0.04038  0.52437  0.14942  1.0000
  H   H74       1.0  0.05834  0.54333  0.11627  1.0000
  H   H75       1.0  0.07069  0.52225  0.03732  1.0000
  C   C82       1.0  0.27411  0.55389  0.13229  1.0000
  C   C83       1.0  0.15576  0.63798  0.42622  1.0000
  C   C84       1.0  0.15626  0.63103  0.46098  1.0000
  C   C85       1.0  0.10967  0.67927  0.10288  1.0000
  H   H76       1.0  0.22623  0.55163  0.09175  1.0000
  C   C86       1.0  0.18832  0.69083  0.33555  1.0000
  C   C87       1.0  0.15891  0.65155  0.41878  1.0000
  H   H77       1.0  0.15338  0.62056  0.46765  1.0000
  C   C88       1.0  0.13268  0.55256  0.06543  1.0000
  C   C89       1.0  0.20109  0.65253  0.42292  1.0000
  C   C90       1.0  0.11517  0.61514  0.21643  1.0000
  C   C91       1.0  0.10226  0.61362  0.21252  1.0000
  C   C92       1.0  0.09775  0.60720  0.18643  1.0000
  C   C93       1.0  0.10619  0.60247  0.16296  1.0000
  C   C94       1.0  0.11916  0.60411  0.16658  1.0000
  C   C95       1.0  0.12361  0.61034  0.19311  1.0000
  H   H78       1.0  0.09562  0.61733  0.23009  1.0000
  H   H79       1.0  0.08779  0.60608  0.18415  1.0000
  H   H80       1.0  0.12583  0.60051  0.14874  1.0000
  H   H81       1.0  0.13356  0.61137  0.19561  1.0000
  C   C96       1.0  0.12507  0.51866  0.45750  1.0000
  H   H82       1.0  0.12511  0.55611  0.14830  1.0000
  H   H83       1.0  0.07452  0.62182  0.13379  1.0000
  H   H84       1.0  0.19346  0.65591  0.47644  1.0000
  S   S43       1.0  0.12630  0.50430  0.33313  1.0000
  C   C97       1.0  0.13526  0.51257  0.45484  1.0000
  C   C98       1.0  0.18773  0.66460  0.35876  1.0000
  H   H85       1.0  0.00573  0.54098  0.11791  1.0000
  C   C99       1.0  0.09785  0.51417  0.05870  1.0000
  H   H86       1.0  0.01871  0.56497  0.06238  1.0000
  C   C100      1.0  0.01311  0.56588  0.14642  1.0000
  H   H87       1.0  0.20665  0.57793  0.00457  1.0000
  S   S44       1.0  0.05474  0.56885  0.06892  1.0000
  H   H88       1.0  0.18137  0.52303  0.14322  1.0000
  C   C101      1.0  0.21598  0.57605  0.99509  1.0000
  C   C102      1.0  0.18031  0.68145  0.32347  1.0000
  C   C103      1.0  0.21588  0.55009  0.09348  1.0000
  H   H89       1.0  0.20729  0.64551  0.37457  1.0000
  H   H90       1.0  0.22058  0.68758  0.32622  1.0000
  C   C104      1.0  0.14189  0.57258  0.25879  1.0000
  C   C105      1.0  0.14111  0.58541  0.24916  1.0000
  C   C106      1.0  0.15147  0.59556  0.24925  1.0000
  C   C107      1.0  0.16273  0.59292  0.25844  1.0000
  C   C108      1.0  0.16378  0.58012  0.26649  1.0000
  C   C109      1.0  0.15328  0.56992  0.26698  1.0000
  H   H91       1.0  0.13235  0.58750  0.24245  1.0000
  H   H92       1.0  0.15065  0.60541  0.24245  1.0000
  H   H93       1.0  0.17251  0.57804  0.27344  1.0000
  H   H94       1.0  0.15396  0.56004  0.27416  1.0000
  C   C110      1.0  0.19470  0.67436  0.21254  1.0000
  C   C111      1.0  0.19928  0.67164  0.24451  1.0000
  C   C112      1.0  0.21201  0.67796  0.24506  1.0000
  C   C113      1.0  0.22050  0.68662  0.21318  1.0000
  C   C114      1.0  0.21616  0.68879  0.18063  1.0000
  C   C115      1.0  0.20325  0.68286  0.18051  1.0000
  H   H95       1.0  0.19286  0.66503  0.26914  1.0000
  H   H96       1.0  0.21524  0.67624  0.27038  1.0000
  H   H97       1.0  0.22257  0.69549  0.15596  1.0000
  H   H98       1.0  0.19982  0.68502  0.15564  1.0000
  C   C116      1.0  0.25357  0.63695  0.10813  1.0000
  C   C117      1.0  0.26247  0.63437  0.12908  1.0000
  C   C118      1.0  0.27089  0.64468  0.13718  1.0000
  C   C119      1.0  0.27026  0.65753  0.12475  1.0000
  C   C120      1.0  0.26146  0.66004  0.10346  1.0000
  C   C121      1.0  0.25314  0.64979  0.09524  1.0000
  H   H99       1.0  0.26282  0.62445  0.13920  1.0000
  H   H100      1.0  0.27772  0.64269  0.15357  1.0000
  H   H101      1.0  0.26117  0.66990  0.09282  1.0000
  H   H102      1.0  0.24636  0.65188  0.07883  1.0000
  C   C122      1.0  0.28863  0.58976  0.16177  1.0000
  C   C123      1.0  0.29941  0.58474  0.16541  1.0000
  C   C124      1.0  0.31201  0.59305  0.15770  1.0000
  C   C125      1.0  0.31393  0.60652  0.14695  1.0000
  C   C126      1.0  0.30313  0.61155  0.14350  1.0000
  C   C127      1.0  0.29057  0.60321  0.15040  1.0000
  H   H103      1.0  0.29799  0.57436  0.17449  1.0000
  H   H104      1.0  0.32019  0.58903  0.16068  1.0000
  H   H105      1.0  0.30446  0.62195  0.13590  1.0000
  H   H106      1.0  0.28230  0.60720  0.14849  1.0000
  C   C128      1.0  0.19393  0.55619  0.21221  1.0000
  C   C129      1.0  0.18079  0.55582  0.22496  1.0000
  C   C130      1.0  0.17146  0.54394  0.24112  1.0000
  C   C131      1.0  0.17516  0.53228  0.24512  1.0000
  C   C132      1.0  0.18826  0.53257  0.23142  1.0000
  C   C133      1.0  0.19764  0.54450  0.21492  1.0000
  H   H107      1.0  0.17782  0.56480  0.22276  1.0000
  H   H108      1.0  0.16138  0.54380  0.25085  1.0000
  H   H109      1.0  0.19120  0.52357  0.23430  1.0000
  C   C134      1.0  0.23458  0.65599  0.27641  1.0000
  C   C135      1.0  0.24349  0.66361  0.24412  1.0000
  C   C136      1.0  0.24986  0.65773  0.21926  1.0000
  C   C137      1.0  0.24752  0.64422  0.22692  1.0000
  C   C138      1.0  0.23884  0.63646  0.25981  1.0000
  C   C139      1.0  0.23225  0.64247  0.28429  1.0000
  P   P2        1.0  0.23568  0.61895  0.26936  1.0000
  C   C140      1.0  0.22480  0.61288  0.24227  1.0000
  C   C141      1.0  0.25050  0.61398  0.25665  1.0000
  C   C142      1.0  0.24976  0.60147  0.25094  1.0000
  C   C143      1.0  0.26111  0.59745  0.24094  1.0000
  C   C144      1.0  0.27328  0.60586  0.23669  1.0000
  C   C145      1.0  0.27412  0.61825  0.24306  1.0000
  C   C146      1.0  0.26277  0.62226  0.25345  1.0000
  C   C147      1.0  0.21501  0.60123  0.25725  1.0000
  C   C148      1.0  0.20655  0.59662  0.23641  1.0000
  C   C149      1.0  0.20815  0.60325  0.19998  1.0000
  C   C150      1.0  0.21811  0.61456  0.18434  1.0000
  C   C151      1.0  0.22639  0.61942  0.20539  1.0000
  C   C152      1.0  0.22844  0.61184  0.31803  1.0000
  C   C153      1.0  0.21517  0.61062  0.33265  1.0000
  C   C154      1.0  0.20937  0.60435  0.36966  1.0000
  C   C155      1.0  0.23008  0.60095  0.37853  1.0000
  C   C156      1.0  0.23588  0.60707  0.34140  1.0000
  H   H110      1.0  0.22932  0.66057  0.29499  1.0000
  H   H111      1.0  0.24537  0.67408  0.23803  1.0000
  H   H112      1.0  0.25659  0.66367  0.19389  1.0000
  H   H113      1.0  0.25257  0.63988  0.20713  1.0000
  H   H114      1.0  0.22527  0.63682  0.30937  1.0000
  H   H115      1.0  0.24043  0.59481  0.25384  1.0000
  H   H116      1.0  0.26048  0.58785  0.23594  1.0000
  H   H117      1.0  0.28205  0.60275  0.22833  1.0000
  H   H118      1.0  0.28359  0.62475  0.23966  1.0000
  H   H119      1.0  0.26366  0.63182  0.25873  1.0000
  H   H120      1.0  0.21394  0.59553  0.28472  1.0000
  H   H121      1.0  0.19890  0.58771  0.24799  1.0000
  H   H122      1.0  0.20184  0.59935  0.18375  1.0000
  H   H123      1.0  0.21948  0.61952  0.15579  1.0000
  H   H124      1.0  0.23408  0.62813  0.19234  1.0000
  H   H125      1.0  0.20923  0.61425  0.31514  1.0000
  H   H126      1.0  0.19907  0.60308  0.38044  1.0000
  H   H127      1.0  0.24613  0.60790  0.33100  1.0000
  H   H128      1.0  0.23110  0.72118  0.00631  1.0000
  C   C157      1.0  0.21952  0.68467  0.43978  1.0000
  C   C158      1.0  0.22720  0.64884  0.02990  1.0000
  C   C159      1.0  0.21910  0.64250  0.06477  1.0000
  C   C160      1.0  0.20589  0.64251  0.07263  1.0000
  C   C161      1.0  0.20091  0.64891  0.04488  1.0000
  P   P3        1.0  0.19564  0.63481  0.11845  1.0000
  C   C162      1.0  0.18054  0.63963  0.12260  1.0000
  C   C163      1.0  0.19201  0.61723  0.12747  1.0000
  C   C164      1.0  0.18118  0.60952  0.15546  1.0000
  C   C165      1.0  0.17816  0.59597  0.16203  1.0000
  C   C166      1.0  0.18588  0.58996  0.14082  1.0000
  C   C167      1.0  0.19664  0.59751  0.11295  1.0000
  C   C168      1.0  0.19979  0.61108  0.10650  1.0000
  C   C169      1.0  0.17955  0.65106  0.13383  1.0000
  C   C170      1.0  0.16790  0.65485  0.13668  1.0000
  C   C171      1.0  0.15716  0.64724  0.12857  1.0000
  C   C172      1.0  0.15807  0.63587  0.11733  1.0000
  C   C173      1.0  0.16977  0.63216  0.11383  1.0000
  C   C174      1.0  0.20339  0.64048  0.15275  1.0000
  C   C175      1.0  0.21338  0.65205  0.14301  1.0000
  C   C176      1.0  0.21885  0.65666  0.17006  1.0000
  C   C177      1.0  0.21425  0.64992  0.20704  1.0000
  C   C178      1.0  0.20424  0.63851  0.21705  1.0000
  C   C179      1.0  0.19880  0.63384  0.19006  1.0000
  C   C180      1.0  0.16369  0.56659  0.09401  1.0000
  H   H129      1.0  0.13340  0.51248  0.18849  1.0000
  H   H130      1.0  0.22320  0.63784  0.08595  1.0000
  H   H131      1.0  0.19084  0.64926  0.05011  1.0000
  H   H132      1.0  0.17512  0.61392  0.17269  1.0000
  H   H133      1.0  0.17002  0.59010  0.18431  1.0000
  H   H134      1.0  0.18380  0.57945  0.14689  1.0000
  H   H135      1.0  0.20276  0.59279  0.09714  1.0000
  H   H136      1.0  0.20838  0.61664  0.08551  1.0000
  H   H137      1.0  0.18765  0.65701  0.14095  1.0000
  H   H138      1.0  0.16717  0.66354  0.14616  1.0000
  H   H139      1.0  0.14809  0.65004  0.13145  1.0000
  H   H140      1.0  0.14963  0.62984  0.11197  1.0000
  H   H141      1.0  0.17029  0.62337  0.10486  1.0000
  H   H142      1.0  0.21683  0.65772  0.11478  1.0000
  C   C181      1.0  0.11344  0.54465  0.20131  1.0000
  H   H143      1.0  0.21826  0.65371  0.22793  1.0000
  H   H144      1.0  0.20055  0.63330  0.24573  1.0000
  H   H145      1.0  0.19098  0.62509  0.19857  1.0000
  H   H146      1.0  0.23585  0.59714  0.39625  1.0000
  C   C182      1.0  0.12558  0.58837  0.41483  1.0000
  C   C183      1.0  0.11291  0.58199  0.41498  1.0000
  C   C184      1.0  0.08222  0.52104  0.19476  1.0000
  C   C185      1.0  0.23651  0.57273  0.00679  1.0000
  C   C186      1.0  0.32136  0.74475  0.25136  1.0000
  C   C187      1.0  0.12841  0.59141  0.44705  1.0000
  H   H147      1.0  0.22870  0.61960  0.03663  1.0000
  C   C188      1.0  0.22698  0.68194  0.33558  1.0000
  C   C189      1.0  0.11441  0.50245  0.14317  1.0000
  H   H148      1.0  0.05744  0.50420  0.16578  1.0000
  C   C190      1.0  0.12565  0.56191  0.06828  1.0000
  H   H149      1.0  0.11909  0.55031  0.45993  1.0000
  H   H150      1.0  0.28582  0.54010  0.03619  1.0000
  H   H151      1.0  0.10766  0.50372  0.16626  1.0000
  H   H152      1.0  0.13322  0.59107  0.38962  1.0000
  H   H153      1.0  0.11078  0.57971  0.38981  1.0000
  H   H154      1.0  0.03458  0.54018  0.29441  1.0000
  C   C191      1.0  0.01814  0.56049  0.17533  1.0000
  H   H155      1.0  0.13824  0.59662  0.44619  1.0000
  C   C192      1.0  0.15100  0.50699  0.19432  1.0000
  H   H156      1.0  0.07552  0.50530  0.11456  1.0000
  H   H157      1.0  0.14376  0.62925  0.02696  1.0000
  C   C193      1.0  0.10632  0.68947  0.08142  1.0000
  H   H158      1.0  0.13178  0.53235  0.07178  1.0000
  C   C194      1.0  0.04001  0.50129  0.27928  1.0000
  H   H159      1.0  0.30249  0.59564  0.02718  1.0000
  S   S45       1.0  0.06456  0.59431  0.10261  1.0000
  H   H160      1.0  0.25777  0.67909  0.30680  1.0000
  C   C195      1.0  0.27165  0.55567  0.05971  1.0000
  C   C196      1.0  0.19540  0.56556  0.31866  1.0000
  C   C197      1.0  0.18993  0.55410  0.30941  1.0000
  C   C198      1.0  0.17727  0.54695  0.32768  1.0000
  C   C199      1.0  0.16998  0.55133  0.35489  1.0000
  C   C200      1.0  0.17524  0.56305  0.36356  1.0000
  C   C201      1.0  0.18816  0.56994  0.34604  1.0000
  P   P4        1.0  0.16593  0.56821  0.40009  1.0000
  H   H161      1.0  0.25152  0.54566  0.08379  1.0000
  C   C202      1.0  0.16931  0.56034  0.44226  1.0000
  H   H162      1.0  0.16253  0.54632  0.17582  1.0000
  C   C203      1.0  0.19586  0.67397  0.37094  1.0000
  C   C204      1.0  0.04493  0.51259  0.11200  1.0000
  Fe  Fe26      1.0  0.28179  0.71752  0.13399  1.0000
  H   H163      1.0  0.17010  0.50442  0.19545  1.0000
  H   H164      1.0  0.02551  0.53798  0.13864  1.0000
  C   C205      1.0  0.15306  0.57355  0.14614  1.0000
  H   H165      1.0  0.21231  0.59459  0.42122  1.0000
  H   H166      1.0  0.19947  0.62236  0.40735  1.0000
  H   H167      1.0  0.10473  0.69765  0.09253  1.0000
  C   C206      1.0  0.16958  0.58564  0.39315  1.0000
  C   C207      1.0  0.17434  0.59381  0.35756  1.0000
  C   C208      1.0  0.17685  0.60729  0.35262  1.0000
  C   C209      1.0  0.17423  0.61268  0.38292  1.0000
  C   C210      1.0  0.16912  0.60458  0.41827  1.0000
  C   C211      1.0  0.16666  0.59111  0.42331  1.0000
  H   H168      1.0  0.20528  0.57095  0.30458  1.0000
  H   H169      1.0  0.19554  0.55069  0.28825  1.0000
  H   H170      1.0  0.17310  0.53796  0.32077  1.0000
  H   H171      1.0  0.16027  0.54549  0.36927  1.0000
  H   H172      1.0  0.19265  0.57866  0.35344  1.0000
  C   C212      1.0  0.22437  0.57504  0.01902  1.0000
  C   C213      1.0  0.16535  0.55586  0.11816  1.0000
  P   P5        1.0  0.11544  0.65525  0.11705  1.0000
  H   H173      1.0  0.18384  0.57702  0.44515  1.0000
  C   C214      1.0  0.15756  0.57540  0.10801  1.0000
  H   H174      1.0  0.15327  0.52551  0.07381  1.0000
  H   H175      1.0  0.21277  0.56031  0.13612  1.0000
  H   H176      1.0  0.17587  0.58984  0.33346  1.0000
  H   H177      1.0  0.18053  0.61353  0.32509  1.0000
  H   H178      1.0  0.17576  0.62311  0.37889  1.0000
  H   H179      1.0  0.16674  0.60874  0.44160  1.0000
  H   H180      1.0  0.16225  0.58496  0.45061  1.0000
  H   H181      1.0  0.12370  0.51081  0.04917  1.0000
  H   H182      1.0  0.13718  0.66469  0.05162  1.0000
  H   H183      1.0  0.03945  0.51648  0.02575  1.0000
  H   H184      1.0  0.09323  0.57379  0.44729  1.0000
  H   H185      1.0  0.26738  0.62390  0.04557  1.0000
  C   C215      1.0  0.17858  0.56704  0.45802  1.0000
  H   H186      1.0  0.12587  0.63763  0.45607  1.0000
  C   C216      1.0  0.31896  0.57424  0.06059  1.0000
  C   C217      1.0  0.02875  0.58486  0.03636  1.0000
  C   C218      1.0  0.11250  0.53545  0.08570  1.0000
  H   H187      1.0  0.11442  0.62767  0.12191  1.0000
  C   C219      1.0  0.29887  0.62624  0.04923  1.0000
  C   C220      1.0  0.28534  0.62345  0.06102  1.0000
  H   H188      1.0  0.25941  0.70187  0.46254  1.0000
  H   H189      1.0  0.15124  0.68610  0.14391  1.0000
  C   C221      1.0  0.17085  0.52061  0.15153  1.0000
  C   C222      1.0  0.00267  0.51481  0.20687  1.0000
  H   H190      1.0  0.32403  0.56650  0.99240  1.0000
  C   C223      1.0  0.13530  0.67290  0.13271  1.0000
  C   C224      1.0  0.32403  0.71295  0.15649  1.0000
  C   C225      1.0  0.16315  0.65106  0.48035  1.0000
  H   H191      1.0  0.32549  0.72845  0.23205  1.0000
  C   C226      1.0  0.08008  0.62850  0.14646  1.0000
  H   H192      1.0  0.32442  0.55333  0.41378  1.0000
  C   C227      1.0  0.01920  0.54194  0.01138  1.0000
  H   H193      1.0  0.02356  0.52139  0.19545  1.0000
  H   H194      1.0  0.01298  0.50988  0.10242  1.0000
  C   C228      1.0  0.12604  0.66082  0.14539  1.0000
  C   C229      1.0  0.14376  0.66863  0.18729  1.0000
  C   C230      1.0  0.12345  0.50641  0.07747  1.0000
  H   H195      1.0  0.30464  0.62442  0.06915  1.0000
  H   H196      1.0  0.28066  0.61953  0.09003  1.0000
  C   C231      1.0  0.07762  0.50973  0.13666  1.0000
  H   H197      1.0  0.14209  0.55800  0.46037  1.0000
  C   C232      1.0  0.19498  0.55334  0.12027  1.0000
  S   S46       1.0  0.06730  0.60088  0.98991  1.0000
  C   C233      1.0  0.13468  0.65417  0.05833  1.0000
  H   H198      1.0  0.31131  0.73975  0.26470  1.0000
  H   H199      1.0  0.01311  0.54780  0.22980  1.0000
  C   C234      1.0  0.18398  0.62883  0.99912  1.0000
  C   C235      1.0  0.09039  0.51608  0.13642  1.0000
  H   H200      1.0  0.13592  0.67923  0.10636  1.0000
  H   H201      1.0  0.08911  0.63145  0.46737  1.0000
  C   C236      1.0  0.05447  0.54162  0.21225  1.0000
  C   C237      1.0  0.04297  0.53982  0.23872  1.0000
  C   C238      1.0  0.22288  0.67236  0.36895  1.0000
  C   C239      1.0  0.05557  0.54516  0.28266  1.0000
  C   C240      1.0  0.06719  0.54740  0.25581  1.0000
  C   C241      1.0  0.06655  0.54544  0.22063  1.0000
  P   P6        1.0  0.08265  0.55211  0.26768  1.0000
  C   C242      1.0  0.08200  0.53996  0.30830  1.0000
  C   C243      1.0  0.09588  0.55294  0.22964  1.0000
  C   C244      1.0  0.10306  0.54356  0.23091  1.0000
  C   C245      1.0  0.11687  0.55517  0.17065  1.0000
  C   C246      1.0  0.09933  0.56345  0.19854  1.0000
  C   C247      1.0  0.08529  0.54350  0.33975  1.0000
  C   C248      1.0  0.08423  0.53394  0.37142  1.0000
  C   C249      1.0  0.07990  0.52081  0.37195  1.0000
  C   C250      1.0  0.07655  0.51722  0.34087  1.0000
  C   C251      1.0  0.07755  0.52674  0.30922  1.0000
  C   C252      1.0  0.08566  0.56813  0.27667  1.0000
  C   C253      1.0  0.07590  0.57485  0.28014  1.0000
  C   C254      1.0  0.07856  0.58718  0.28754  1.0000
  C   C255      1.0  0.09096  0.59290  0.29119  1.0000
  C   C256      1.0  0.10080  0.58642  0.28679  1.0000
  C   C257      1.0  0.09817  0.57411  0.27955  1.0000
  H   H202      1.0  0.05400  0.54037  0.18486  1.0000
  H   H203      1.0  0.22144  0.57607  0.04685  1.0000
  C   C258      1.0  0.16450  0.50997  0.18122  1.0000
  H   H204      1.0  0.07529  0.54690  0.19943  1.0000
  H   H205      1.0  0.10087  0.53551  0.25478  1.0000
  H   H206      1.0  0.18865  0.70099  0.32616  1.0000
  H   H207      1.0  0.09405  0.57092  0.19709  1.0000
  H   H208      1.0  0.08883  0.55357  0.33990  1.0000
  H   H209      1.0  0.08720  0.53666  0.39514  1.0000
  C   C259      1.0  0.03074  0.54495  0.02344  1.0000
  H   H210      1.0  0.07516  0.52374  0.28518  1.0000
  H   H211      1.0  0.06633  0.57076  0.27663  1.0000
  H   H212      1.0  0.07107  0.59240  0.28979  1.0000
  H   H213      1.0  0.09314  0.60256  0.29616  1.0000
  H   H214      1.0  0.11055  0.59109  0.28817  1.0000
  H   H215      1.0  0.10593  0.56925  0.27601  1.0000
  C   C260      1.0  0.21682  0.59952  0.39260  1.0000
  C   C261      1.0  0.20764  0.67942  0.43177  1.0000
  C   C262      1.0  0.26214  0.54855  0.12548  1.0000
  H   H216      1.0  0.01968  0.57259  0.12212  1.0000
  C   C263      1.0  0.22217  0.65515  0.00247  1.0000
  C   C264      1.0  0.19928  0.61589  0.00850  1.0000
  C   C265      1.0  0.24810  0.67725  0.32432  1.0000
  H   H217      1.0  0.03367  0.53736  0.23154  1.0000
  H   H218      1.0  0.15802  0.65704  0.39292  1.0000
  S   S47       1.0  0.24740  0.57173  0.03559  1.0000
  H   H219      1.0  0.22649  0.66563  0.16250  1.0000
  C   C266      1.0  0.12864  0.62703  0.07525  1.0000
  H   H220      1.0  0.17576  0.63233  0.01014  1.0000
  H   H221      1.0  0.17359  0.66110  0.32627  1.0000
  S   S48       1.0  0.03520  0.56402  0.17329  1.0000
  C   C267      1.0  0.23954  0.68438  0.31349  1.0000
  H   H222      1.0  0.24258  0.69174  0.28763  1.0000
  H   H223      1.0  0.14817  0.58024  0.15722  1.0000
  H   H224      1.0  0.20231  0.69455  0.36794  1.0000
  H   H225      1.0  0.19255  0.53586  0.05497  1.0000
  H   H226      1.0  0.16700  0.56814  0.06447  1.0000
  H   H227      1.0  0.15156  0.56164  0.19983  1.0000
  C   C268      1.0  0.19603  0.68712  0.35928  1.0000
  C   C269      1.0  0.24411  0.66768  0.35741  1.0000
  H   H228      1.0  0.13464  0.65007  0.22527  1.0000
  H   H229      1.0  0.25377  0.54389  0.14836  1.0000
  H   H230      1.0  0.27500  0.55345  0.16044  1.0000
  C   C270      1.0  0.23159  0.66528  0.37977  1.0000
  C   C271      1.0  0.09978  0.64483  0.14324  1.0000
  C   C272      1.0  0.17732  0.55235  0.02454  1.0000
  H   H231      1.0  0.09502  0.54211  0.09808  1.0000
  C   C273      1.0  0.15497  0.56309  0.17026  1.0000
  H   H232      1.0  0.15623  0.58364  0.08938  1.0000
  C   C274      1.0  0.16119  0.55437  0.15644  1.0000
  H   H233      1.0  0.15209  0.56853  0.34133  1.0000
  H   H234      1.0  0.25077  0.66215  0.36571  1.0000
  C   C275      1.0  0.18915  0.54649  0.09735  1.0000
  H   H235      1.0  0.17444  0.68431  0.30472  1.0000
  H   H236      1.0  0.05586  0.54641  0.31014  1.0000
  C   C276      1.0  0.08934  0.50694  0.99844  1.0000
  C   C277      1.0  0.16917  0.54297  0.05560  1.0000
  S   S49       1.0  0.27257  0.69875  0.17729  1.0000
  H   H237      1.0  0.11244  0.55120  0.40053  1.0000
  H   H238      1.0  0.18720  0.65439  0.36743  1.0000
  C   C278      1.0  0.28489  0.56015  0.10290  1.0000
  C   C279      1.0  0.17994  0.66836  0.33535  1.0000
  P   P7        1.0  0.20686  0.66951  0.39860  1.0000
  C   C280      1.0  0.01603  0.53186  0.15413  1.0000
  H   H239      1.0  0.18687  0.67756  0.44525  1.0000
  C   C281      1.0  0.26088  0.54951  0.08919  1.0000
  H   H240      1.0  0.04903  0.50090  0.28746  1.0000
  C   C282      1.0  0.28375  0.56111  0.06629  1.0000
  H   H241      1.0  0.10222  0.69693  0.02928  1.0000
  H   H242      1.0  0.11900  0.53746  0.20252  1.0000
  Fe  Fe27      1.0  0.25328  0.70105  0.16621  1.0000
  C   C283      1.0  0.11471  0.50847  0.10684  1.0000
  C   C284      1.0  0.99954  0.56273  0.14921  1.0000
  C   C285      1.0  0.15008  0.52513  0.14753  1.0000
  H   H243      1.0  0.07845  0.63805  0.22710  1.0000
  C   C286      1.0  0.14886  0.56343  0.40073  1.0000
  H   H244      1.0  0.22873  0.65798  0.40560  1.0000
  Fe  Fe28      1.0  0.26416  0.70915  0.08340  1.0000
  C   C287      1.0  0.19072  0.63566  0.47923  1.0000
  H   H245      1.0  0.22851  0.68307  0.42582  1.0000
  H   H246      1.0  0.01929  0.51118  0.00346  1.0000
  C   C288      1.0  0.03107  0.50666  0.29864  1.0000
  S   S50       1.0  0.26240  0.72070  0.12666  1.0000
  H   H247      1.0  0.18507  0.55995  0.02761  1.0000
  C   C289      1.0  0.14495  0.56459  0.36734  1.0000
  H   H248      1.0  0.18929  0.55717  0.14008  1.0000
  C   C290      1.0  0.06880  0.62110  0.48288  1.0000
  C   C291      1.0  0.12627  0.55446  0.43408  1.0000
  C   C292      1.0  0.20274  0.64287  0.40384  1.0000
  H   H249      1.0  0.14438  0.53118  0.13576  1.0000
  C   C293      1.0  0.25641  0.70774  0.99814  1.0000
  C   C294      1.0  0.16264  0.65804  0.44557  1.0000
  H   H250      1.0  0.14622  0.49913  0.21851  1.0000
  H   H251      1.0  0.31819  0.61028  0.05017  1.0000
  H   H252      1.0  0.16485  0.66852  0.43953  1.0000
  H   H253      1.0  0.12896  0.56077  0.34127  1.0000
  P   P8        1.0  0.17184  0.54349  0.10097  1.0000
  C   C295      1.0  0.08884  0.49742  0.02949  1.0000
  H   H254      1.0  0.12328  0.61440  0.45971  1.0000
  H   H255      1.0  0.24132  0.69454  0.04277  1.0000
  S   S51       1.0  0.26294  0.71766  0.02543  1.0000
  C   C296      1.0  0.13183  0.56032  0.36727  1.0000
  C   C297      1.0  0.12183  0.63340  0.09771  1.0000
  C   C298      1.0  0.28313  0.58193  0.99222  1.0000
  C   C299      1.0  0.21016  0.54330  0.07046  1.0000
  H   H256      1.0  0.09987  0.65230  0.19228  1.0000
  C   C300      1.0  0.01533  0.52979  0.00338  1.0000
  C   C301      1.0  0.30098  0.53197  0.01390  1.0000
  S   S52       1.0  0.28391  0.70698  0.08843  1.0000
  H   H257      1.0  0.06659  0.62635  0.45857  1.0000
  H   H258      1.0  0.11102  0.65981  0.04224  1.0000
  P   P9        1.0  0.00115  0.50154  0.24540  1.0000
  C   C302      1.0  0.29415  0.57693  0.98842  1.0000
  H   H259      1.0  0.23071  0.68281  0.00168  1.0000
  C   C303      1.0  0.16369  0.52835  0.13456  1.0000
  C   C304      1.0  0.19682  0.54138  0.07260  1.0000
  C   C305      1.0  0.15949  0.53304  0.05057  1.0000
  H   H260      1.0  0.21612  0.53962  0.05079  1.0000
  C   C306      1.0  0.30966  0.59194  0.03935  1.0000
  C   C307      1.0  0.09230  0.63645  0.12666  1.0000
  C   C308      1.0  0.19833  0.62974  0.42232  1.0000
  H   H261      1.0  0.14321  0.55552  0.05656  1.0000
  C   C309      1.0  0.10980  0.56456  0.16925  1.0000
  C   C310      1.0  0.09455  0.64559  0.17929  1.0000
  C   C311      1.0  0.01937  0.50705  0.28830  1.0000
  C   C312      1.0  0.12251  0.55506  0.40065  1.0000
  H   H262      1.0  0.11046  0.67960  0.13073  1.0000
  C   C313      1.0  0.19618  0.68169  0.45053  1.0000
  H   H263      1.0  0.29402  0.56425  0.10909  1.0000
  H   H264      1.0  0.09594  0.63595  0.09852  1.0000
  C   C314      1.0  0.18866  0.62037  0.02268  1.0000
  H   H265      1.0  0.01261  0.51108  0.30420  1.0000
  H   H266      1.0  0.18408  0.61728  0.05193  1.0000
  H   H267      1.0  0.32811  0.73263  0.16146  1.0000
  C   C315      1.0  0.14380  0.51454  0.17740  1.0000
  C   C316      1.0  0.10554  0.54491  0.08877  1.0000
  C   C317      1.0  0.30429  0.55470  0.01603  1.0000
  P   P10       1.0  0.29799  0.56790  0.02837  1.0000
  H   H268      1.0  0.11249  0.57282  0.14574  1.0000
  H   H269      1.0  0.11941  0.64295  0.18819  1.0000
  H   H270      1.0  0.27866  0.67452  0.02051  1.0000
  C   C318      1.0  0.11187  0.66871  0.08853  1.0000
  C   C319      1.0  0.08232  0.63761  0.19904  1.0000
  H   H271      1.0  0.15068  0.67154  0.20338  1.0000
  S   S53       1.0  0.30121  0.73240  0.12722  1.0000
  C   C320      1.0  0.07513  0.62901  0.18272  1.0000
  H   H272      1.0  0.06571  0.62274  0.19813  1.0000
  H   H273      1.0  0.15642  0.54158  0.44608  1.0000
  S   S54       1.0  0.09496  0.50341  0.28145  1.0000
  C   C321      1.0  0.11001  0.66816  0.05320  1.0000
  C   C322      1.0  0.14406  0.67681  0.15375  1.0000
  C   C323      1.0  0.13474  0.65653  0.19966  1.0000
  C   C324      1.0  0.10305  0.57864  0.44740  1.0000
  C   C325      1.0  0.32306  0.74535  0.02608  1.0000
  C   C326      1.0  0.19506  0.64880  0.46084  1.0000
  C   C327      1.0  0.03803  0.53582  0.02835  1.0000
  C   C328      1.0  0.00937  0.55200  0.20718  1.0000
  S   S55       1.0  0.03170  0.49945  0.13602  1.0000
  H   H274      1.0  0.31507  0.71341  0.14795  1.0000
  H   H275      1.0  0.32188  0.69287  0.15544  1.0000
  C   C329      1.0  0.12600  0.65257  0.17869  1.0000
  C   C330      1.0  0.29605  0.54214  0.02328  1.0000
  C   C331      1.0  0.10488  0.68906  0.04583  1.0000
  H   H276      1.0  0.18873  0.61595  0.47427  1.0000
  C   C332      1.0  0.12451  0.64699  0.08880  1.0000
  C   C333      1.0  0.06952  0.51512  0.19415  1.0000
  H   H277      1.0  0.07371  0.50703  0.34073  1.0000
  C   C334      1.0  0.32942  0.73846  0.23221  1.0000
  C   C335      1.0  0.14163  0.64779  0.03615  1.0000
  C   C336      1.0  0.03388  0.52361  0.02139  1.0000
  C   C337      1.0  0.19655  0.68897  0.47714  1.0000
  C   C338      1.0  0.13852  0.63421  0.04439  1.0000
  C   C339      1.0  0.13938  0.55871  0.43420  1.0000
  H   H278      1.0  0.12619  0.61649  0.08194  1.0000
  H   H279      1.0  0.14937  0.65337  0.01243  1.0000
  H   H280      1.0  0.29456  0.52232  0.01968  1.0000
  C   C340      1.0  0.20904  0.65520  0.00998  1.0000
  H   H281      1.0  0.10119  0.53394  0.02710  1.0000
  H   H282      1.0  0.03428  0.55431  0.02886  1.0000
  C   C341      1.0  0.01843  0.56966  0.00450  1.0000
  C   C342      1.0  0.06725  0.50921  0.16558  1.0000
  C   C343      1.0  0.00489  0.53358  0.14243  1.0000
  C   C344      1.0  0.16324  0.54715  0.45843  1.0000
  C   C345      1.0  0.09385  0.52009  0.99767  1.0000
  C   C346      1.0  0.12614  0.53938  0.07407  1.0000
  H   H283      1.0  0.03155  0.58688  0.06102  1.0000
  H   H284      1.0  0.09495  0.54269  0.47546  1.0000
  P   P11       1.0  0.10377  0.51847  0.09722  1.0000
  H   H285      1.0  0.27832  0.69221  0.45931  1.0000
  H   H286      1.0  0.06150  0.51491  0.21621  1.0000
  H   H287      1.0  0.07961  0.51339  0.39590  1.0000
  C   C347      1.0  0.01491  0.52256  0.18645  1.0000
  H   H288      1.0  0.23745  0.64911  0.02435  1.0000
  C   C348      1.0  0.09261  0.52153  0.16605  1.0000
  C   C349      1.0  0.30991  0.57887  0.04307  1.0000
  C   C350      1.0  0.31849  0.60027  0.05240  1.0000
  C   C351      1.0  0.02159  0.57245  0.03687  1.0000
  H   H289      1.0  0.32057  0.73556  0.04333  1.0000
  C   C352      1.0  0.24544  0.69724  0.01329  1.0000
  P   P12       1.0  0.00944  0.55347  0.00537  1.0000
  C   C353      1.0  0.32786  0.70137  0.16079  1.0000
  C   C354      1.0  0.09803  0.52372  0.02781  1.0000
  H   H290      1.0  0.31800  0.52635  0.98996  1.0000
  H   H291      1.0  0.04689  0.53824  0.03772  1.0000
  H   H292      1.0  0.13863  0.50967  0.42977  1.0000
  H   H293      1.0  0.08401  0.52509  0.21776  1.0000
  C   C355      1.0  0.21989  0.69207  0.46618  1.0000
  H   H294      1.0  0.20526  0.66037  0.98890  1.0000
  H   H295      1.0  0.10239  0.52625  0.16673  1.0000
  C   C356      1.0  0.31749  0.55689  0.99882  1.0000
  H   H296      1.0  0.03851  0.60412  0.00308  1.0000
  C   C357      1.0  0.27782  0.62589  0.03559  1.0000
  H   H297      1.0  0.27697  0.58090  0.01919  1.0000
  C   C358      1.0  0.11207  0.55807  0.07991  1.0000
  H   H298      1.0  0.31545  0.63389  0.00293  1.0000
  C   C359      1.0  0.00533  0.50260  0.09757  1.0000
  H   H299      1.0  0.31911  0.56413  0.06491  1.0000
  C   C360      1.0  0.19230  0.62612  0.45998  1.0000
  C   C361      1.0  0.30494  0.63158  0.01194  1.0000
  C   C362      1.0  0.15802  0.53250  0.01499  1.0000
  H   H300      1.0  0.10528  0.67793  0.00448  1.0000
  C   C363      1.0  0.32752  0.59562  0.06939  1.0000
  C   C364      1.0  0.32239  0.54666  0.98973  1.0000
  H   H301      1.0  0.28303  0.65381  0.01269  1.0000
  H   H302      1.0  0.99777  0.52234  0.28282  1.0000
  H   H303      1.0  0.27049  0.55616  0.03180  1.0000
  H   H304      1.0  0.05444  0.57406  0.99161  1.0000
  C   C365      1.0  0.31416  0.53422  0.99720  1.0000
  H   H305      1.0  0.10655  0.56527  0.08229  1.0000
  H   H306      1.0  0.25062  0.63441  0.01954  1.0000
  C   C366      1.0  0.32775  0.58262  0.07352  1.0000
  H   H307      1.0  0.05221  0.50322  0.07050  1.0000
  H   H308      1.0  0.15070  0.52468  0.01116  1.0000
  H   H309      1.0  0.13067  0.57212  0.06172  1.0000
  C   C367      1.0  0.28382  0.63124  0.99806  1.0000
  S   S56       1.0  0.32955  0.61742  0.13831  1.0000
  C   C368      1.0  0.23610  0.61834  0.01510  1.0000
  C   C369      1.0  0.03260  0.59462  0.00376  1.0000
  C   C370      1.0  0.01656  0.50213  0.25820  1.0000
  H   H310      1.0  0.22905  0.69611  0.47233  1.0000
  H   H311      1.0  0.28903  0.74510  0.18180  1.0000
  H   H312      1.0  0.00668  0.52736  0.99304  1.0000
  H   H313      1.0  0.14844  0.50472  0.48333  1.0000
  C   C371      1.0  0.23942  0.69064  0.98995  1.0000
  C   C372      1.0  0.17593  0.55170  0.98905  1.0000
  H   H314      1.0  0.22373  0.60162  0.00553  1.0000
  C   C373      1.0  0.12540  0.63115  0.48209  1.0000
  C   C374      1.0  0.27723  0.65805  0.99597  1.0000
  C   C375      1.0  0.12404  0.61790  0.48425  1.0000
  C   C376      1.0  0.23334  0.60819  0.99781  1.0000
  C   C377      1.0  0.10585  0.58171  0.47972  1.0000
  C   C378      1.0  0.27478  0.66986  0.00061  1.0000
  C   C379      1.0  0.11858  0.58803  0.47979  1.0000
  C   C380      1.0  0.13185  0.49854  0.08443  1.0000
  C   C381      1.0  0.30680  0.74662  0.14273  1.0000
  H   H315      1.0  0.25550  0.74467  0.08363  1.0000
  C   C382      1.0  0.09311  0.50100  0.05948  1.0000
  C   C383      1.0  0.29745  0.63419  0.98650  1.0000
  C   C384      1.0  0.20840  0.69423  0.48484  1.0000
  Fe  Fe29      1.0  0.22010  0.57916  0.86929  1.0000
  S   S57       1.0  0.23986  0.59257  0.84233  1.0000
  S   S58       1.0  0.20964  0.57714  0.92829  1.0000
  Fe  Fe30      1.0  0.21510  0.57232  0.79667  1.0000
  S   S59       1.0  0.23484  0.58508  0.76404  1.0000
  S   S60       1.0  0.19675  0.56636  0.77519  1.0000
  Fe  Fe31      1.0  0.24264  0.57703  0.81246  1.0000
  S   S61       1.0  0.26191  0.57124  0.80808  1.0000
  Fe  Fe32      1.0  0.23091  0.59969  0.79643  1.0000
  S   S62       1.0  0.23168  0.62045  0.77081  1.0000
  S   S63       1.0  0.22313  0.56289  0.84277  1.0000
  S   S64       1.0  0.21097  0.58764  0.82601  1.0000
  Fe  Fe33      1.0  0.26309  0.68343  0.80312  1.0000
  S   S65       1.0  0.27255  0.66709  0.79611  1.0000
  S   S66       1.0  0.24163  0.67827  0.82782  1.0000
  Fe  Fe34      1.0  0.13499  0.53935  0.63841  1.0000
  S   S67       1.0  0.13579  0.53053  0.69573  1.0000
  S   S68       1.0  0.12904  0.55799  0.62867  1.0000
  Fe  Fe35      1.0  0.13990  0.51653  0.60863  1.0000
  S   S69       1.0  0.14110  0.50559  0.66444  1.0000
  S   S70       1.0  0.14327  0.50900  0.55650  1.0000
  Fe  Fe36      1.0  0.12356  0.51226  0.68737  1.0000
  H   H316      1.0  0.32539  0.61003  0.72315  1.0000
  Fe  Fe37      1.0  0.15322  0.52477  0.66861  1.0000
  S   S71       1.0  0.17169  0.52560  0.69025  1.0000
  S   S72       1.0  0.12158  0.52175  0.63147  1.0000
  S   S73       1.0  0.15335  0.53506  0.61104  1.0000
  Fe  Fe38      1.0  0.18090  0.64874  0.63945  1.0000
  S   S74       1.0  0.18524  0.64332  0.58461  1.0000
  S   S75       1.0  0.19850  0.65485  0.66478  1.0000
  Fe  Fe39      1.0  0.15142  0.63630  0.65065  1.0000
  S   S76       1.0  0.15371  0.62988  0.59756  1.0000
  S   S77       1.0  0.13247  0.63085  0.69475  1.0000
  Fe  Fe40      1.0  0.17107  0.62421  0.61284  1.0000
  S   S78       1.0  0.17658  0.60611  0.60385  1.0000
  Fe  Fe41      1.0  0.16759  0.64941  0.57241  1.0000
  C   C385      1.0  0.08258  0.51304  0.82121  1.0000
  S   S79       1.0  0.16777  0.62888  0.66805  1.0000
  S   S80       1.0  0.16420  0.65670  0.62495  1.0000
  H   H317      1.0  0.16992  0.57860  0.53068  1.0000
  Fe  Fe42      1.0  0.04772  0.57687  0.81009  1.0000
  S   S81       1.0  0.04318  0.58876  0.76041  1.0000
  Fe  Fe43      1.0  0.05598  0.55826  0.76614  1.0000
  S   S82       1.0  0.05236  0.56827  0.71346  1.0000
  S   S83       1.0  0.06321  0.54037  0.77210  1.0000
  Fe  Fe44      1.0  0.06213  0.58644  0.72812  1.0000
  S   S84       1.0  0.07752  0.60004  0.67890  1.0000
  S   S85       1.0  0.06716  0.57604  0.77839  1.0000
  C   C386      1.0  0.05833  0.59518  0.89348  1.0000
  C   C387      1.0  0.06348  0.60073  0.92008  1.0000
  C   C388      1.0  0.06201  0.59322  0.95588  1.0000
  H   H318      1.0  0.05888  0.60121  0.86686  1.0000
  H   H319      1.0  0.06826  0.61099  0.91323  1.0000
  C   C389      1.0  0.25431  0.59804  0.65778  1.0000
  C   C390      1.0  0.04209  0.50545  0.76772  1.0000
  C   C391      1.0  0.05239  0.51539  0.76980  1.0000
  C   C392      1.0  0.05098  0.52806  0.76614  1.0000
  C   C393      1.0  0.03962  0.53088  0.75829  1.0000
  C   C394      1.0  0.02930  0.52092  0.75682  1.0000
  C   C395      1.0  0.04460  0.59694  0.61688  1.0000
  H   H320      1.0  0.06130  0.51322  0.77484  1.0000
  H   H321      1.0  0.03860  0.54068  0.75417  1.0000
  H   H322      1.0  0.02036  0.52312  0.75243  1.0000
  C   C396      1.0  0.11754  0.62153  0.69010  1.0000
  C   C397      1.0  0.11624  0.61778  0.65741  1.0000
  C   C398      1.0  0.10399  0.61099  0.65431  1.0000
  C   C399      1.0  0.09305  0.60755  0.68424  1.0000
  C   C400      1.0  0.09447  0.61092  0.71719  1.0000
  C   C401      1.0  0.10660  0.61802  0.71996  1.0000
  H   H323      1.0  0.12460  0.62035  0.63436  1.0000
  H   H324      1.0  0.10298  0.60846  0.62861  1.0000
  H   H325      1.0  0.08604  0.60850  0.73992  1.0000
  H   H326      1.0  0.10744  0.62103  0.74511  1.0000
  H   H327      1.0  0.27080  0.59126  0.96422  1.0000
  C   C402      1.0  0.08066  0.51564  0.54495  1.0000
  H   H328      1.0  0.26700  0.60694  0.68851  1.0000
  C   C403      1.0  0.30077  0.73444  0.81464  1.0000
  C   C404      1.0  0.24225  0.59680  0.64859  1.0000
  H   H329      1.0  0.31743  0.67010  0.82942  1.0000
  H   H330      1.0  0.23317  0.63931  0.65688  1.0000
  H   H331      1.0  0.13402  0.51149  0.77013  1.0000
  C   C405      1.0  0.25843  0.62498  0.97851  1.0000
  H   H332      1.0  0.12841  0.64650  0.51066  1.0000
  C   C406      1.0  0.14214  0.57127  0.62341  1.0000
  C   C407      1.0  0.15483  0.56978  0.61819  1.0000
  C   C408      1.0  0.16532  0.58049  0.61330  1.0000
  C   C409      1.0  0.16316  0.59269  0.61404  1.0000
  C   C410      1.0  0.15042  0.59410  0.62067  1.0000
  C   C411      1.0  0.13991  0.58342  0.62491  1.0000
  H   H333      1.0  0.15660  0.56042  0.61767  1.0000
  H   H334      1.0  0.17512  0.57936  0.60859  1.0000
  H   H335      1.0  0.14863  0.60339  0.62200  1.0000
  H   H336      1.0  0.13008  0.58456  0.62934  1.0000
  H   H337      1.0  0.07695  0.60237  0.56944  1.0000
  H   H338      1.0  0.12315  0.52261  0.54564  1.0000
  C   C412      1.0  0.21682  0.68254  0.73165  1.0000
  C   C413      1.0  0.22129  0.67163  0.72678  1.0000
  C   C414      1.0  0.21536  0.66316  0.70713  1.0000
  C   C415      1.0  0.20480  0.66534  0.69216  1.0000
  C   C416      1.0  0.20003  0.67598  0.69821  1.0000
  C   C417      1.0  0.20606  0.68456  0.71746  1.0000
  H   H339      1.0  0.21900  0.65483  0.70356  1.0000
  H   H340      1.0  0.19186  0.67779  0.68735  1.0000
  H   H341      1.0  0.20242  0.69288  0.72117  1.0000
  C   C418      1.0  0.24325  0.63310  0.77828  1.0000
  C   C419      1.0  0.25467  0.63117  0.78797  1.0000
  C   C420      1.0  0.26392  0.64173  0.79219  1.0000
  C   C421      1.0  0.26161  0.65412  0.78749  1.0000
  C   C422      1.0  0.25031  0.65602  0.77701  1.0000
  C   C423      1.0  0.24117  0.64555  0.77245  1.0000
  H   H342      1.0  0.25640  0.62160  0.79205  1.0000
  H   H343      1.0  0.27270  0.64020  0.79995  1.0000
  H   H344      1.0  0.24867  0.66560  0.77184  1.0000
  H   H345      1.0  0.23246  0.64714  0.76424  1.0000
  C   C424      1.0  0.19012  0.55493  0.75134  1.0000
  C   C425      1.0  0.19477  0.54401  0.74809  1.0000
  C   C426      1.0  0.18905  0.53517  0.72919  1.0000
  C   C427      1.0  0.17856  0.53707  0.71362  1.0000
  C   C428      1.0  0.17390  0.54797  0.71696  1.0000
  C   C429      1.0  0.17962  0.55681  0.73580  1.0000
  H   H346      1.0  0.20278  0.54238  0.76005  1.0000
  H   H347      1.0  0.19274  0.52677  0.72674  1.0000
  H   H348      1.0  0.16596  0.54963  0.70475  1.0000
  H   H349      1.0  0.17594  0.56523  0.73795  1.0000
  C   C430      1.0  0.27616  0.58166  0.81355  1.0000
  C   C431      1.0  0.27723  0.59489  0.81118  1.0000
  C   C432      1.0  0.28889  0.60303  0.81367  1.0000
  C   C433      1.0  0.29960  0.59810  0.81891  1.0000
  C   C434      1.0  0.28684  0.57667  0.81911  1.0000
  H   H350      1.0  0.26918  0.59891  0.80660  1.0000
  H   H351      1.0  0.28962  0.61327  0.81101  1.0000
  H   H352      1.0  0.28609  0.56646  0.82100  1.0000
  C   C435      1.0  0.32202  0.66440  0.88248  1.0000
  H   H353      1.0  0.26061  0.71275  0.56171  1.0000
  H   H354      1.0  0.24924  0.73751  0.87135  1.0000
  C   C436      1.0  0.01857  0.57095  0.54433  1.0000
  C   C437      1.0  0.23191  0.57257  0.94653  1.0000
  C   C438      1.0  0.05158  0.49867  0.67134  1.0000
  H   H355      1.0  0.12755  0.52855  0.88666  1.0000
  H   H356      1.0  0.28248  0.52326  0.73342  1.0000
  H   H357      1.0  0.23491  0.57166  0.91852  1.0000
  H   H358      1.0  0.24953  0.56946  0.96110  1.0000
  H   H359      1.0  0.14554  0.55181  0.74278  1.0000
  C   C439      1.0  0.24490  0.67224  0.63053  1.0000
  H   H360      1.0  0.12812  0.63182  0.56945  1.0000
  H   H361      1.0  0.99779  0.52883  0.73094  1.0000
  C   C440      1.0  0.29386  0.62536  0.87846  1.0000
  C   C441      1.0  0.06175  0.60467  0.54089  1.0000
  C   C442      1.0  0.26391  0.65741  0.95140  1.0000
  C   C443      1.0  0.25558  0.61470  0.96132  1.0000
  C   C444      1.0  0.01087  0.55335  0.89710  1.0000
  P   P13       1.0  0.05264  0.51438  0.90359  1.0000
  C   C445      1.0  0.06521  0.50906  0.87630  1.0000
  C   C446      1.0  0.03925  0.51261  0.88133  1.0000
  C   C447      1.0  0.27199  0.65183  0.97076  1.0000
  H   H362      1.0  0.24091  0.59852  0.95743  1.0000
  C   C448      1.0  0.12689  0.63616  0.51276  1.0000
  C   C449      1.0  0.22440  0.63127  0.53847  1.0000
  C   C450      1.0  0.03237  0.52221  0.87652  1.0000
  C   C451      1.0  0.07302  0.51719  0.84266  1.0000
  H   H363      1.0  0.30476  0.59291  0.73662  1.0000
  S   S86       1.0  0.27993  0.73337  0.77983  1.0000
  H   H364      1.0  0.23047  0.65835  0.61536  1.0000
  C   C452      1.0  0.30478  0.67487  0.87219  1.0000
  C   C453      1.0  0.05885  0.53106  0.90582  1.0000
  C   C454      1.0  0.06173  0.53402  0.93841  1.0000
  C   C455      1.0  0.06684  0.54688  0.93945  1.0000
  C   C456      1.0  0.06901  0.55691  0.90816  1.0000
  C   C457      1.0  0.06586  0.55414  0.87606  1.0000
  C   C458      1.0  0.06089  0.54130  0.87476  1.0000
  H   H365      1.0  0.05992  0.52657  0.96336  1.0000
  S   S87       1.0  0.26837  0.69626  0.84099  1.0000
  P   P14       1.0  0.24379  0.68631  0.59810  1.0000
  H   H366      1.0  0.04925  0.60936  0.50462  1.0000
  C   C459      1.0  0.31250  0.55453  0.83415  1.0000
  H   H367      1.0  0.01568  0.55123  0.61813  1.0000
  H   H368      1.0  0.08856  0.53871  0.59240  1.0000
  H   H369      1.0  0.01702  0.52811  0.85431  1.0000
  H   H370      1.0  0.03507  0.53110  0.88537  1.0000
  H   H371      1.0  0.07163  0.52664  0.83231  1.0000
  H   H372      1.0  0.08838  0.51926  0.79488  1.0000
  H   H373      1.0  0.00322  0.52679  0.58379  1.0000
  C   C460      1.0  0.23895  0.64887  0.65564  1.0000
  H   H374      1.0  0.15136  0.56258  0.52198  1.0000
  H   H375      1.0  0.30471  0.56984  0.75261  1.0000
  C   C461      1.0  0.26714  0.67557  0.98012  1.0000
  H   H376      1.0  0.07270  0.56691  0.90909  1.0000
  H   H377      1.0  0.06691  0.56199  0.85249  1.0000
  H   H378      1.0  0.05833  0.53944  0.84970  1.0000
  C   C462      1.0  0.00948  0.55322  0.64100  1.0000
  H   H379      1.0  0.22132  0.69571  0.62915  1.0000
  H   H380      1.0  0.29519  0.54329  0.68620  1.0000
  C   C463      1.0  0.15255  0.51510  0.78454  1.0000
  C   C464      1.0  0.10936  0.57108  0.58067  1.0000
  C   C465      1.0  0.03035  0.50811  0.76278  1.0000
  H   H381      1.0  0.08332  0.56611  0.65263  1.0000
  C   C466      1.0  0.09988  0.56477  0.61328  1.0000
  C   C467      1.0  0.12548  0.61462  0.54815  1.0000
  H   H382      1.0  0.08828  0.54256  0.71905  1.0000
  H   H383      1.0  0.29938  0.67894  0.85361  1.0000
  C   C468      1.0  0.09206  0.54218  0.53357  1.0000
  C   C469      1.0  0.16629  0.54178  0.98424  1.0000
  H   H384      1.0  0.15543  0.50728  0.77388  1.0000
  H   H385      1.0  0.03384  0.60777  0.70737  1.0000
  H   H386      1.0  0.19192  0.67873  0.57861  1.0000
  H   H387      1.0  0.10024  0.55542  0.62880  1.0000
  H   H388      1.0  0.06905  0.54333  0.69296  1.0000
  H   H389      1.0  0.09385  0.54729  0.84102  1.0000
  H   H390      1.0  0.21224  0.67933  0.89969  1.0000
  H   H391      1.0  0.01231  0.51263  0.70610  1.0000
  H   H392      1.0  0.00818  0.59832  0.54614  1.0000
  H   H393      1.0  0.00093  0.57611  0.53697  1.0000
  P   P15       1.0  0.14109  0.54989  0.82323  1.0000
  C   C470      1.0  0.14341  0.56316  0.78383  1.0000
  C   C471      1.0  0.15119  0.55635  0.85186  1.0000
  C   C472      1.0  0.16434  0.56275  0.83591  1.0000
  C   C473      1.0  0.17237  0.56788  0.85723  1.0000
  C   C474      1.0  0.16730  0.56695  0.89452  1.0000
  C   C475      1.0  0.15412  0.56092  0.91049  1.0000
  C   C476      1.0  0.14606  0.55564  0.88927  1.0000
  C   C477      1.0  0.14364  0.57569  0.78900  1.0000
  C   C478      1.0  0.14630  0.58623  0.75855  1.0000
  C   C479      1.0  0.14864  0.58430  0.72283  1.0000
  C   C480      1.0  0.14823  0.57184  0.71762  1.0000
  C   C481      1.0  0.14560  0.56129  0.74787  1.0000
  C   C482      1.0  0.14574  0.53627  0.80840  1.0000
  C   C483      1.0  0.13714  0.52810  0.79395  1.0000
  H   H394      1.0  0.18828  0.56599  0.50288  1.0000
  C   C484      1.0  0.07457  0.60755  0.54537  1.0000
  C   C485      1.0  0.16105  0.52301  0.79948  1.0000
  C   C486      1.0  0.15770  0.53356  0.81134  1.0000
  H   H395      1.0  0.16849  0.56361  0.80698  1.0000
  H   H396      1.0  0.18262  0.57241  0.84475  1.0000
  H   H397      1.0  0.17365  0.57087  0.91090  1.0000
  H   H398      1.0  0.15017  0.56027  0.93939  1.0000
  H   H399      1.0  0.14199  0.57735  0.81649  1.0000
  H   H400      1.0  0.14664  0.59591  0.76242  1.0000
  H   H401      1.0  0.15083  0.59246  0.69912  1.0000
  H   H402      1.0  0.12791  0.53000  0.79099  1.0000
  C   C487      1.0  0.29430  0.52642  0.77224  1.0000
  H   H403      1.0  0.01837  0.59119  0.68925  1.0000
  H   H404      1.0  0.17047  0.52123  0.80061  1.0000
  H   H405      1.0  0.16464  0.53963  0.82195  1.0000
  C   C488      1.0  0.08571  0.53630  0.70105  1.0000
  S   S88       1.0  0.26283  0.69975  0.75694  1.0000
  C   C489      1.0  0.08121  0.52109  0.57551  1.0000
  C   C490      1.0  0.16106  0.58136  0.52756  1.0000
  C   C491      1.0  0.22733  0.68402  0.59196  1.0000
  C   C492      1.0  0.21216  0.62701  0.56297  1.0000
  C   C493      1.0  0.07145  0.52854  0.66354  1.0000
  H   H406      1.0  0.24435  0.63011  0.52906  1.0000
  S   S89       1.0  0.16783  0.65964  0.51354  1.0000
  H   H407      1.0  0.30760  0.53193  0.80526  1.0000
  C   C494      1.0  0.30219  0.57899  0.95303  1.0000
  C   C495      1.0  0.29888  0.58536  0.92189  1.0000
  C   C496      1.0  0.28750  0.58965  0.92578  1.0000
  C   C497      1.0  0.09022  0.58296  0.60713  1.0000
  C   C498      1.0  0.20185  0.68040  0.58178  1.0000
  C   C499      1.0  0.03475  0.58731  0.55854  1.0000
  P   P16       1.0  0.07537  0.51071  0.62171  1.0000
  H   H408      1.0  0.25973  0.68304  0.65252  1.0000
  H   H409      1.0  0.15012  0.57033  0.69004  1.0000
  C   C500      1.0  0.24444  0.69441  0.95152  1.0000
  H   H410      1.0  0.09953  0.63765  0.83702  1.0000
  H   H411      1.0  0.23776  0.69189  0.67080  1.0000
  C   C501      1.0  0.20591  0.68818  0.60497  1.0000
  C   C502      1.0  0.23751  0.65976  0.63196  1.0000
  C   C503      1.0  0.31390  0.59024  0.73610  1.0000
  H   H412      1.0  0.31097  0.57561  0.94926  1.0000
  H   H413      1.0  0.30504  0.58680  0.89461  1.0000
  H   H414      1.0  0.28470  0.59411  0.90146  1.0000
  C   C504      1.0  0.18992  0.63280  0.96133  1.0000
  C   C505      1.0  0.08370  0.49790  0.62316  1.0000
  H   H415      1.0  0.11674  0.56630  0.57167  1.0000
  H   H416      1.0  0.18584  0.63288  0.50834  1.0000
  C   C506      1.0  0.20445  0.65314  0.84473  1.0000
  C   C507      1.0  0.20715  0.64957  0.87949  1.0000
  C   C508      1.0  0.20990  0.65912  0.89927  1.0000
  P   P17       1.0  0.20801  0.63317  0.89784  1.0000
  C   C509      1.0  0.22478  0.63234  0.88997  1.0000
  C   C510      1.0  0.20065  0.62838  0.94689  1.0000
  C   C511      1.0  0.08546  0.52346  0.50905  1.0000
  C   C512      1.0  0.28261  0.63620  0.91976  1.0000
  H   H417      1.0  0.18610  0.63925  0.94332  1.0000
  H   H418      1.0  0.25963  0.73134  0.65186  1.0000
  C   C513      1.0  0.31392  0.57712  0.74502  1.0000
  C   C514      1.0  0.22779  0.62031  0.89104  1.0000
  C   C515      1.0  0.24071  0.61956  0.88643  1.0000
  C   C516      1.0  0.25074  0.63079  0.87985  1.0000
  C   C517      1.0  0.24786  0.64280  0.87810  1.0000
  C   C518      1.0  0.23494  0.64359  0.88350  1.0000
  C   C519      1.0  0.19945  0.62206  0.87520  1.0000
  C   C520      1.0  0.20498  0.62207  0.83869  1.0000
  C   C521      1.0  0.19845  0.61371  0.82049  1.0000
  C   C522      1.0  0.18649  0.60498  0.83891  1.0000
  C   C523      1.0  0.18097  0.60475  0.87547  1.0000
  C   C524      1.0  0.18737  0.61330  0.89354  1.0000
  H   H419      1.0  0.20259  0.64621  0.82817  1.0000
  H   H420      1.0  0.21254  0.65675  0.92537  1.0000
  H   H421      1.0  0.07881  0.50119  0.75427  1.0000
  C   C525      1.0  0.07895  0.51995  0.65498  1.0000
  C   C526      1.0  0.09041  0.57078  0.62674  1.0000
  H   H422      1.0  0.29683  0.72411  0.82613  1.0000
  H   H423      1.0  0.21339  0.61615  0.96046  1.0000
  H   H424      1.0  0.22017  0.61147  0.89567  1.0000
  H   H425      1.0  0.24298  0.61028  0.88769  1.0000
  H   H426      1.0  0.26075  0.63020  0.87502  1.0000
  H   H427      1.0  0.25567  0.65159  0.87143  1.0000
  H   H428      1.0  0.23301  0.65301  0.88202  1.0000
  H   H429      1.0  0.21439  0.62860  0.82421  1.0000
  H   H430      1.0  0.20292  0.61376  0.79236  1.0000
  H   H431      1.0  0.18171  0.59822  0.82499  1.0000
  H   H432      1.0  0.17181  0.59783  0.88995  1.0000
  H   H433      1.0  0.18295  0.61292  0.92185  1.0000
  H   H434      1.0  0.09503  0.51223  0.66630  1.0000
  C   C527      1.0  0.24419  0.70059  0.65186  1.0000
  H   H435      1.0  0.16799  0.60073  0.53403  1.0000
  C   C528      1.0  0.25495  0.66269  0.67743  1.0000
  C   C529      1.0  0.24757  0.65034  0.67856  1.0000
  C   C530      1.0  0.14055  0.51757  0.78212  1.0000
  C   C531      1.0  0.05159  0.58207  0.90242  1.0000
  H   H436      1.0  0.16378  0.62257  0.79748  1.0000
  C   C532      1.0  0.03065  0.57485  0.55258  1.0000
  H   H437      1.0  0.25964  0.70754  0.90709  1.0000
  H   H438      1.0  0.02397  0.55286  0.93294  1.0000
  H   H439      1.0  0.29956  0.63511  0.82078  1.0000
  H   H440      1.0  0.29014  0.65356  0.83017  1.0000
  C   C533      1.0  0.25452  0.68776  0.55408  1.0000
  H   H441      1.0  0.06644  0.50605  0.95891  1.0000
  C   C534      1.0  0.00706  0.55977  0.69953  1.0000
  C   C535      1.0  0.13899  0.57578  0.52014  1.0000
  C   C536      1.0  0.10714  0.52754  0.89450  1.0000
  C   C537      1.0  0.09968  0.58929  0.57448  1.0000
  C   C538      1.0  0.20190  0.56064  0.63732  1.0000
  C   C539      1.0  0.19907  0.57120  0.61602  1.0000
  C   C540      1.0  0.20406  0.58381  0.61943  1.0000
  C   C541      1.0  0.21207  0.58594  0.64397  1.0000
  H   H442      1.0  0.19775  0.55082  0.63545  1.0000
  H   H443      1.0  0.19278  0.56953  0.59743  1.0000
  H   H444      1.0  0.20139  0.59180  0.60352  1.0000
  H   H445      1.0  0.19664  0.58472  0.71023  1.0000
  H   H446      1.0  0.11707  0.55691  0.80952  1.0000
  C   C542      1.0  0.11410  0.58382  0.73156  1.0000
  C   C543      1.0  0.10431  0.57227  0.74063  1.0000
  C   C544      1.0  0.09624  0.56787  0.77621  1.0000
  C   C545      1.0  0.09802  0.57498  0.80286  1.0000
  H   H447      1.0  0.12017  0.58740  0.70368  1.0000
  H   H448      1.0  0.10284  0.56689  0.71980  1.0000
  H   H449      1.0  0.08838  0.55911  0.78275  1.0000
  C   C546      1.0  0.05035  0.57451  0.93798  1.0000
  C   C547      1.0  0.23525  0.72293  0.91441  1.0000
  P   P18       1.0  0.12243  0.59235  0.52079  1.0000
  H   H450      1.0  0.13590  0.55111  0.90214  1.0000
  S   S90       1.0  0.03682  0.55823  0.80031  1.0000
  C   C548      1.0  0.20978  0.67194  0.88476  1.0000
  C   C549      1.0  0.25013  0.74130  0.92515  1.0000
  H   H451      1.0  0.09145  0.57162  0.82995  1.0000
  C   C550      1.0  0.32551  0.59989  0.72866  1.0000
  S   S91       1.0  0.04290  0.57518  0.87248  1.0000
  Fe  Fe45      1.0  0.03376  0.56975  0.74824  1.0000
  H   H452      1.0  0.26531  0.68475  0.98366  1.0000
  C   C551      1.0  0.20973  0.56267  0.66206  1.0000
  Fe  Fe46      1.0  0.24134  0.69511  0.78376  1.0000
  P   P19       1.0  0.21799  0.60209  0.65011  1.0000
  H   H453      1.0  0.26092  0.59262  0.64743  1.0000
  C   C552      1.0  0.01050  0.57940  0.54197  1.0000
  C   C553      1.0  0.29847  0.58482  0.82210  1.0000
  H   H454      1.0  0.02490  0.55727  0.66958  1.0000
  H   H455      1.0  0.24839  0.64191  0.69761  1.0000
  H   H456      1.0  0.08511  0.59509  0.80750  1.0000
  H   H457      1.0  0.07516  0.56166  0.53967  1.0000
  C   C554      1.0  0.20436  0.66597  0.83034  1.0000
  C   C555      1.0  0.25248  0.69483  0.52158  1.0000
  S   S92       1.0  0.23637  0.68661  0.92243  1.0000
  C   C556      1.0  0.23480  0.72506  0.97680  1.0000
  H   H458      1.0  0.06288  0.52880  0.65294  1.0000
  C   C557      1.0  0.19652  0.59463  0.71056  1.0000
  H   H459      1.0  0.17969  0.58866  0.75607  1.0000
  C   C558      1.0  0.11590  0.59095  0.75806  1.0000
  H   H460      1.0  0.21174  0.55446  0.67902  1.0000
  H   H461      1.0  0.01821  0.55349  0.87317  1.0000
  C   C559      1.0  0.21453  0.57520  0.66608  1.0000
  H   H462      1.0  0.04498  0.56441  0.94552  1.0000
  C   C560      1.0  0.10796  0.58654  0.79413  1.0000
  H   H463      1.0  0.06828  0.54671  0.60166  1.0000
  H   H464      1.0  0.07190  0.61090  0.80185  1.0000
  C   C561      1.0  0.20708  0.67537  0.85022  1.0000
  C   C562      1.0  0.18681  0.59685  0.73668  1.0000
  S   S93       1.0  0.31410  0.60900  0.82107  1.0000
  C   C563      1.0  0.31233  0.74103  0.82242  1.0000
  H   H465      1.0  0.31412  0.61514  0.94603  1.0000
  H   H466      1.0  0.04562  0.57138  0.64147  1.0000
  C   C564      1.0  0.28785  0.62575  0.91403  1.0000
  H   H467      1.0  0.12334  0.60001  0.74971  1.0000
  H   H468      1.0  0.11388  0.57079  0.86092  1.0000
  C   C565      1.0  0.20585  0.60507  0.68507  1.0000
  C   C566      1.0  0.12410  0.54385  0.84702  1.0000
  C   C567      1.0  0.03507  0.50099  0.87077  1.0000
  H   H469      1.0  0.20251  0.66872  0.80325  1.0000
  H   H470      1.0  0.02605  0.53054  0.59042  1.0000
  C   C568      1.0  0.08845  0.60435  0.81380  1.0000
  H   H471      1.0  0.09690  0.55235  0.52919  1.0000
  C   C569      1.0  0.12031  0.53300  0.87718  1.0000
  C   C570      1.0  0.23343  0.60349  0.66287  1.0000
  C   C571      1.0  0.27385  0.68404  0.51796  1.0000
  C   C572      1.0  0.11448  0.54893  0.83376  1.0000
  H   H472      1.0  0.20082  0.61532  0.61589  1.0000
  H   H473      1.0  0.08293  0.58764  0.61797  1.0000
  S   S94       1.0  0.01329  0.56484  0.73650  1.0000
  H   H474      1.0  0.10200  0.51061  0.58913  1.0000
  H   H475      1.0  0.20746  0.68540  0.83826  1.0000
  H   H476      1.0  0.10624  0.55639  0.92387  1.0000
  C   C573      1.0  0.20531  0.61781  0.68637  1.0000
  C   C574      1.0  0.18630  0.60955  0.73757  1.0000
  C   C575      1.0  0.08089  0.61330  0.81071  1.0000
  C   C576      1.0  0.10782  0.57363  0.88238  1.0000
  C   C577      1.0  0.23703  0.61167  0.68572  1.0000
  H   H477      1.0  0.17871  0.61130  0.75747  1.0000
  H   H478      1.0  0.23041  0.61686  0.69736  1.0000
  C   C578      1.0  0.12654  0.51976  0.52053  1.0000
  H   H479      1.0  0.21993  0.57644  0.68704  1.0000
  H   H480      1.0  0.30662  0.58088  0.82616  1.0000
  P   P20       1.0  0.11003  0.59592  0.82837  1.0000
  C   C579      1.0  0.10026  0.60748  0.82434  1.0000
  C   C580      1.0  0.00523  0.52367  0.61049  1.0000
  H   H481      1.0  0.21221  0.62606  0.66678  1.0000
  C   C581      1.0  0.19561  0.62002  0.71259  1.0000
  C   C582      1.0  0.10431  0.58542  0.87448  1.0000
  C   C583      1.0  0.10360  0.56553  0.91803  1.0000
  C   C584      1.0  0.22070  0.61380  0.60679  1.0000
  H   H482      1.0  0.32381  0.66019  0.93910  1.0000
  H   H483      1.0  0.19523  0.62988  0.71321  1.0000
  C   C585      1.0  0.10130  0.54348  0.85137  1.0000
  C   C586      1.0  0.05793  0.50401  0.63401  1.0000
  C   C587      1.0  0.21035  0.61845  0.59712  1.0000
  C   C588      1.0  0.31507  0.66981  0.85855  1.0000
  H   H484      1.0  0.12622  0.61934  0.77371  1.0000
  C   C589      1.0  0.12701  0.60450  0.81973  1.0000
  C   C590      1.0  0.24919  0.61304  0.69439  1.0000
  C   C591      1.0  0.25653  0.72288  0.64131  1.0000
  C   C592      1.0  0.09598  0.56922  0.94621  1.0000
  C   C593      1.0  0.08489  0.62530  0.81898  1.0000
  H   H485      1.0  0.10432  0.51900  0.91717  1.0000
  H   H486      1.0  0.30251  0.55411  0.88928  1.0000
  C   C594      1.0  0.09297  0.52750  0.69357  1.0000
  C   C595      1.0  0.05572  0.57998  0.96430  1.0000
  H   H487      1.0  0.16545  0.54113  0.95661  1.0000
  H   H488      1.0  0.13141  0.59158  0.86398  1.0000
  H   H489      1.0  0.07899  0.63220  0.81661  1.0000
  C   C596      1.0  0.09665  0.58905  0.90301  1.0000
  C   C597      1.0  0.00488  0.55338  0.96203  1.0000
  H   H490      1.0  0.25183  0.61916  0.71266  1.0000
  C   C598      1.0  0.13228  0.61565  0.79062  1.0000
  C   C599      1.0  0.09764  0.53285  0.88180  1.0000
  C   C600      1.0  0.23299  0.61809  0.58193  1.0000
  C   C601      1.0  0.25777  0.60614  0.68075  1.0000
  H   H491      1.0  0.11297  0.52698  0.49283  1.0000
  H   H492      1.0  0.24117  0.61468  0.58846  1.0000
  C   C602      1.0  0.10412  0.61948  0.83322  1.0000
  C   C603      1.0  0.09252  0.58098  0.93867  1.0000
  C   C604      1.0  0.13516  0.60005  0.84117  1.0000
  H   H493      1.0  0.09374  0.59807  0.89805  1.0000
  C   C605      1.0  0.23484  0.62685  0.54802  1.0000
  C   C606      1.0  0.29482  0.63543  0.84831  1.0000
  C   C607      1.0  0.25374  0.67359  0.65326  1.0000
  C   C608      1.0  0.08444  0.50073  0.83310  1.0000
  H   H494      1.0  0.29125  0.73618  0.97628  1.0000
  H   H495      1.0  0.23184  0.71740  0.89558  1.0000
  H   H496      1.0  0.20865  0.69985  0.50555  1.0000
  C   C609      1.0  0.25570  0.70454  0.93663  1.0000
  Fe  Fe47      1.0  0.24674  0.69254  0.86171  1.0000
  C   C610      1.0  0.09647  0.62837  0.83041  1.0000
  H   H497      1.0  0.24476  0.71126  0.69417  1.0000
  H   H498      1.0  0.08655  0.58383  0.96050  1.0000
  S   S95       1.0  0.22438  0.69410  0.75433  1.0000
  C   C611      1.0  0.32248  0.55365  0.88618  1.0000
  H   H499      1.0  0.31402  0.55778  0.69832  1.0000
  C   C612      1.0  0.14838  0.60654  0.83315  1.0000
  H   H500      1.0  0.15465  0.60306  0.84965  1.0000
  C   C613      1.0  0.14548  0.62206  0.78252  1.0000
  H   H501      1.0  0.14943  0.63052  0.75945  1.0000
  H   H502      1.0  0.22948  0.66982  0.73760  1.0000
  H   H503      1.0  0.02943  0.60532  0.56120  1.0000
  C   C614      1.0  0.26100  0.69636  0.48750  1.0000
  H   H504      1.0  0.02508  0.58407  0.63269  1.0000
  C   C615      1.0  0.15355  0.61753  0.80379  1.0000
  H   H505      1.0  0.11300  0.62199  0.84243  1.0000
  H   H506      1.0  0.10124  0.52699  0.70553  1.0000
  H   H507      1.0  0.08743  0.52854  0.89492  1.0000
  C   C616      1.0  0.08953  0.51925  0.67088  1.0000
  H   H508      1.0  0.03645  0.56791  0.55561  1.0000
  C   C617      1.0  0.01481  0.55680  0.67002  1.0000
  C   C618      1.0  0.21857  0.68995  0.61021  1.0000
  C   C619      1.0  0.07491  0.53677  0.68618  1.0000
  H   H509      1.0  0.23981  0.59059  0.63038  1.0000
  C   C620      1.0  0.04952  0.60993  0.66049  1.0000
  H   H510      1.0  0.09181  0.49755  0.81613  1.0000
  H   H511      1.0  0.28881  0.51762  0.79274  1.0000
  C   C621      1.0  0.26536  0.68250  0.55208  1.0000
  C   C622      1.0  0.06876  0.56386  0.56183  1.0000
  H   H512      1.0  0.30406  0.55513  0.82309  1.0000
  C   C623      1.0  0.14822  0.59712  0.52831  1.0000
  C   C624      1.0  0.28352  0.64625  0.88921  1.0000
  C   C625      1.0  0.25699  0.71225  0.59060  1.0000
  C   C626      1.0  0.01022  0.51595  0.67971  1.0000
  H   H513      1.0  0.22853  0.66025  0.97565  1.0000
  C   C627      1.0  0.15996  0.59381  0.52958  1.0000
  C   C628      1.0  0.06428  0.57506  0.55535  1.0000
  C   C629      1.0  0.26159  0.71122  0.95983  1.0000
  C   C630      1.0  0.06486  0.55539  0.59683  1.0000
  C   C631      1.0  0.24815  0.71156  0.66518  1.0000
  H   H514      1.0  0.07672  0.50528  0.54891  1.0000
  C   C632      1.0  0.13757  0.58809  0.52390  1.0000
  C   C633      1.0  0.05654  0.55815  0.62549  1.0000
  H   H515      1.0  0.02024  0.57775  0.94625  1.0000
  C   C634      1.0  0.13638  0.51322  0.51840  1.0000
  Fe  Fe48      1.0  0.26654  0.71246  0.79701  1.0000
  H   H516      1.0  0.05346  0.55157  0.65269  1.0000
  C   C635      1.0  0.27970  0.58805  0.96097  1.0000
  C   C636      1.0  0.05594  0.57791  0.58405  1.0000
  H   H517      1.0  0.16011  0.63193  0.51445  1.0000
  H   H518      1.0  0.30231  0.63878  0.95802  1.0000
  C   C637      1.0  0.05211  0.56940  0.61912  1.0000
  H   H519      1.0  0.03048  0.52355  0.65214  1.0000
  H   H520      1.0  0.06886  0.54911  0.96480  1.0000
  H   H521      1.0  0.19910  0.69250  0.61988  1.0000
  C   C638      1.0  0.10955  0.58353  0.56134  1.0000
  H   H522      1.0  0.30548  0.66894  0.96288  1.0000
  C   C639      1.0  0.22319  0.67632  0.56837  1.0000
  H   H523      1.0  0.20728  0.66837  0.54575  1.0000
  H   H524      1.0  0.12562  0.60836  0.57393  1.0000
  C   C640      1.0  0.26092  0.72324  0.60401  1.0000
  C   C641      1.0  0.17481  0.54780  0.50709  1.0000
  C   C642      1.0  0.29075  0.52958  0.73878  1.0000
  C   C643      1.0  0.02190  0.52044  0.85969  1.0000
  C   C644      1.0  0.28959  0.64583  0.85368  1.0000
  H   H525      1.0  0.26153  0.66381  0.69559  1.0000
  H   H526      1.0  0.28720  0.61783  0.93707  1.0000
  S   S96       1.0  0.24488  0.70931  0.81992  1.0000
  C   C645      1.0  0.24017  0.57131  0.97067  1.0000
  H   H527      1.0  0.26732  0.67726  0.57680  1.0000
  C   C646      1.0  0.03682  0.60480  0.68212  1.0000
  H   H528      1.0  0.27958  0.65443  0.89230  1.0000
  C   C647      1.0  0.01792  0.50889  0.84899  1.0000
  H   H529      1.0  0.06335  0.61006  0.61231  1.0000
  C   C648      1.0  0.02663  0.59581  0.55569  1.0000
  C   C649      1.0  0.08725  0.53438  0.56952  1.0000
  C   C650      1.0  0.21051  0.67451  0.56338  1.0000
  C   C651      1.0  0.24861  0.70079  0.61452  1.0000
  C   C652      1.0  0.02930  0.59200  0.97163  1.0000
  H   H530      1.0  0.29788  0.61727  0.87426  1.0000
  H   H531      1.0  0.22969  0.67151  0.55433  1.0000
  C   C653      1.0  0.18121  0.56081  0.49054  1.0000
  C   C654      1.0  0.31158  0.55397  0.87166  1.0000
  C   C655      1.0  0.02810  0.59550  0.67184  1.0000
  C   C656      1.0  0.32304  0.62286  0.93701  1.0000
  C   C657      1.0  0.03198  0.59148  0.63960  1.0000
  P   P21       1.0  0.32559  0.55681  0.76201  1.0000
  C   C658      1.0  0.31194  0.54614  0.75314  1.0000
  H   H532      1.0  0.06717  0.58140  0.52788  1.0000
  H   H533      1.0  0.18264  0.55870  0.96522  1.0000
  H   H534      1.0  0.27013  0.71919  0.94782  1.0000
  H   H535      1.0  0.25568  0.67370  0.93990  1.0000
  C   C659      1.0  0.12417  0.60953  0.51725  1.0000
  C   C660      1.0  0.24306  0.60640  0.97088  1.0000
  H   H536      1.0  0.16125  0.53079  0.50321  1.0000
  H   H537      1.0  0.17680  0.54289  0.53230  1.0000
  C   C661      1.0  0.01412  0.55301  0.93112  1.0000
  C   C662      1.0  0.24482  0.73648  0.96333  1.0000
  C   C663      1.0  0.30130  0.67452  0.90976  1.0000
  H   H538      1.0  0.26744  0.73203  0.58555  1.0000
  H   H539      1.0  0.03265  0.59948  0.94608  1.0000
  C   C664      1.0  0.29790  0.54088  0.71220  1.0000
  H   H540      1.0  0.13107  0.56873  0.51575  1.0000
  C   C665      1.0  0.09682  0.50079  0.60413  1.0000
  C   C666      1.0  0.12684  0.62788  0.54582  1.0000
  H   H541      1.0  0.22576  0.63794  0.51210  1.0000
  H   H542      1.0  0.25921  0.65249  0.93334  1.0000
  H   H543      1.0  0.20398  0.63022  0.55554  1.0000
  C   C667      1.0  0.22999  0.71831  0.95235  1.0000
  C   C668      1.0  0.02056  0.52200  0.64896  1.0000
  C   C669      1.0  0.30815  0.66916  0.93376  1.0000
  H   H544      1.0  0.29327  0.67840  0.92024  1.0000
  C   C670      1.0  0.21983  0.57500  0.95866  1.0000
  H   H545      1.0  0.14754  0.60668  0.53129  1.0000
  C   C671      1.0  0.30852  0.54909  0.71922  1.0000
  C   C672      1.0  0.09102  0.53675  0.50336  1.0000
  C   C673      1.0  0.30491  0.53462  0.77935  1.0000
  P   P22       1.0  0.04936  0.59181  0.57482  1.0000
  H   H546      1.0  0.26285  0.61302  0.94043  1.0000
  H   H547      1.0  0.01013  0.50757  0.83483  1.0000
  P   P23       1.0  0.27438  0.63616  0.96598  1.0000
  C   C674      1.0  0.27167  0.69095  0.48568  1.0000
  C   C675      1.0  0.31850  0.66417  0.92019  1.0000
  H   H548      1.0  0.09948  0.59883  0.56017  1.0000
  H   H549      1.0  0.05647  0.61674  0.66926  1.0000
  C   C676      1.0  0.01807  0.52582  0.61427  1.0000
  C   C677      1.0  0.05342  0.60602  0.62804  1.0000
  H   H550      1.0  0.05506  0.50869  0.57848  1.0000
  C   C678      1.0  0.26171  0.66934  0.95555  1.0000
  C   C679      1.0  0.20526  0.61985  0.97079  1.0000
  C   C680      1.0  0.15057  0.57232  0.52292  1.0000
  C   C681      1.0  0.32432  0.55472  0.81092  1.0000
  C   C682      1.0  0.29442  0.74118  0.79166  1.0000
  C   C683      1.0  0.05619  0.50147  0.97020  1.0000
  H   H551      1.0  0.28220  0.67996  0.51661  1.0000
  C   C684      1.0  0.05051  0.50450  0.60735  1.0000
  H   H552      1.0  0.09270  0.56299  0.97393  1.0000
  C   C685      1.0  0.05895  0.61147  0.50926  1.0000
  H   H553      1.0  0.24438  0.69927  0.52270  1.0000
  H   H554      1.0  0.31551  0.63517  0.89988  1.0000
  H   H555      1.0  0.27043  0.74000  0.96720  1.0000
  C   C686      1.0  0.99840  0.55403  0.89361  1.0000
  C   C687      1.0  0.32565  0.57357  0.74572  1.0000
  C   C688      1.0  0.12082  0.52230  0.49043  1.0000
  S   S97       1.0  0.10619  0.50250  0.73623  1.0000
  H   H556      1.0  0.09809  0.57924  0.50443  1.0000
  C   C689      1.0  0.01456  0.59187  0.54734  1.0000
  C   C690      1.0  0.04713  0.50369  0.94930  1.0000
  H   H557      1.0  0.31717  0.73563  0.83989  1.0000
  H   H558      1.0  0.01516  0.56114  0.54131  1.0000
  H   H559      1.0  0.18755  0.69035  0.49209  1.0000
  C   C691      1.0  0.24527  0.73435  0.90081  1.0000
  H   H560      1.0  0.22255  0.70921  0.96283  1.0000
  H   H561      1.0  0.32191  0.55363  0.91495  1.0000
  H   H562      1.0  0.09386  0.52752  0.97416  1.0000
  C   C692      1.0  0.02229  0.57957  0.97187  1.0000
  H   H563      1.0  0.05705  0.49825  0.69254  1.0000
  H   H564      1.0  0.03123  0.49990  0.59745  1.0000
  C   C693      1.0  0.16594  0.54096  0.49082  1.0000
  C   C694      1.0  0.99730  0.51398  0.67625  1.0000
  C   C695      1.0  0.32386  0.63415  0.91075  1.0000
  H   H565      1.0  0.09422  0.61947  0.52292  1.0000
  C   C696      1.0  0.03696  0.49956  0.61798  1.0000
  H   H566      1.0  0.02666  0.49859  0.94848  1.0000
  C   C697      1.0  0.08438  0.61719  0.51903  1.0000
  C   C698      1.0  0.02434  0.49911  0.85514  1.0000
  H   H567      1.0  0.99974  0.53516  0.78867  1.0000
  C   C699      1.0  0.29100  0.74271  0.95110  1.0000
  C   C700      1.0  0.15993  0.63748  0.48782  1.0000
  H   H568      1.0  0.24852  0.74138  0.98289  1.0000
  C   C701      1.0  0.08150  0.62397  0.48777  1.0000
  H   H569      1.0  0.08613  0.50408  0.97520  1.0000
  C   C702      1.0  0.27911  0.74481  0.94573  1.0000
  C   C703      1.0  0.03389  0.49733  0.96407  1.0000
  H   H570      1.0  0.08530  0.51913  0.48558  1.0000
  C   C704      1.0  0.14079  0.50975  0.48530  1.0000
  C   C705      1.0  0.28209  0.76285  0.01666  1.0000
  C   C706      1.0  0.31196  0.78574  0.05001  1.0000
  C   C707      1.0  0.30325  0.79162  0.06877  1.0000
  C   C708      1.0  0.27373  0.75413  0.09343  1.0000
  S   S98       1.0  0.32350  0.78279  0.18362  1.0000
  C   C709      1.0  0.26524  0.75084  0.07118  1.0000
  C   C710      1.0  0.31915  0.79935  0.10192  1.0000
  C   C711      1.0  0.28640  0.76178  0.07736  1.0000
  H   H571      1.0  0.30006  0.80273  0.10954  1.0000
  C   C712      1.0  0.29060  0.76640  0.03882  1.0000
  C   C713      1.0  0.31459  0.75326  0.03182  1.0000
  C   C714      1.0  0.32431  0.78679  0.05744  1.0000
  H   H572      1.0  0.30567  0.80374  0.99710  1.0000
  H   H573      1.0  0.29361  0.79080  0.06379  1.0000
  C   C715      1.0  0.26945  0.75514  0.03283  1.0000
  C   C716      1.0  0.30685  0.79840  0.09462  1.0000
  C   C717      1.0  0.32785  0.79354  0.08336  1.0000
  H   H574      1.0  0.32576  0.75112  0.10602  1.0000
  C   C718      1.0  0.31975  0.75394  0.12761  1.0000
  C   C719      1.0  0.31757  0.76595  0.00986  1.0000
  C   C720      1.0  0.31730  0.76888  0.16737  1.0000
  C   C721      1.0  0.30425  0.76170  0.18204  1.0000
  H   H575      1.0  0.32184  0.80433  0.12261  1.0000
  C   C722      1.0  0.32617  0.75763  0.25252  1.0000
  H   H576      1.0  0.29295  0.76388  0.09508  1.0000
  H   H577      1.0  0.29816  0.76470  0.20307  1.0000
  P   P24       1.0  0.30693  0.77640  0.01822  1.0000
  C   C723      1.0  0.32502  0.76487  0.14010  1.0000
  H   H578      1.0  0.26297  0.75228  0.01567  1.0000
  H   H579      1.0  0.27062  0.75050  0.12316  1.0000
  C   C724      1.0  0.29902  0.75060  0.16992  1.0000
  H   H580      1.0  0.31985  0.76269  0.26629  1.0000
  H   H581      1.0  0.25462  0.79242  0.99462  1.0000
  H   H582      1.0  0.23577  0.77654  0.98669  1.0000
  H   H583      1.0  0.30576  0.74943  0.05356  1.0000
  H   H584      1.0  0.28524  0.76583  0.98695  1.0000
  C   C725      1.0  0.26032  0.76776  0.93499  1.0000
  P   P25       1.0  0.26309  0.75616  0.90789  1.0000
  C   C726      1.0  0.25871  0.77890  0.81392  1.0000
  H   H585      1.0  0.27205  0.75764  0.77445  1.0000
  C   C727      1.0  0.30746  0.80313  0.90734  1.0000
  H   H586      1.0  0.25482  0.78721  0.80675  1.0000
  C   C728      1.0  0.27091  0.77704  0.93874  1.0000
  H   H587      1.0  0.31088  0.76264  0.87168  1.0000
  H   H588      1.0  0.30896  0.77254  0.94350  1.0000
  C   C729      1.0  0.25870  0.77391  0.85072  1.0000
  C   C730      1.0  0.26852  0.76233  0.79565  1.0000
  H   H589      1.0  0.27256  0.74902  0.83886  1.0000
  C   C731      1.0  0.30833  0.79038  0.90904  1.0000
  C   C732      1.0  0.24559  0.77664  0.97340  1.0000
  C   C733      1.0  0.26885  0.78585  0.96031  1.0000
  C   C734      1.0  0.26875  0.75744  0.83228  1.0000
  H   H590      1.0  0.31169  0.74739  0.92811  1.0000
  H   H591      1.0  0.25467  0.77844  0.87159  1.0000
  C   C735      1.0  0.24762  0.76780  0.95187  1.0000
  C   C736      1.0  0.30197  0.75748  0.89207  1.0000
  C   C737      1.0  0.31766  0.75451  0.80798  1.0000
  C   C738      1.0  0.31121  0.76130  0.78553  1.0000
  C   C739      1.0  0.29980  0.75466  0.77715  1.0000
  C   C740      1.0  0.30808  0.78231  0.94272  1.0000
  C   C741      1.0  0.26359  0.77309  0.78642  1.0000
  C   C742      1.0  0.30633  0.80781  0.93933  1.0000
  H   H592      1.0  0.29519  0.76003  0.75890  1.0000
  H   H593      1.0  0.23927  0.76101  0.94843  1.0000
  H   H594      1.0  0.30959  0.78689  0.88405  1.0000
  H   H595      1.0  0.30608  0.81782  0.93776  1.0000
  H   H596      1.0  0.27709  0.79285  0.96346  1.0000
  H   H597      1.0  0.28077  0.77745  0.92518  1.0000
  H   H598      1.0  0.30807  0.80951  0.88103  1.0000
  H   H599      1.0  0.26347  0.77684  0.75795  1.0000
  C   C743      1.0  0.30615  0.79977  0.97303  1.0000
  H   H600      1.0  0.31517  0.77162  0.77392  1.0000
  C   C744      1.0  0.26379  0.76317  0.86017  1.0000
  C   C745      1.0  0.30704  0.78693  0.97498  1.0000
  C   C746      1.0  0.25620  0.78561  0.97781  1.0000
  C   C747      1.0  0.27847  0.75296  0.91309  1.0000
  H   H601      1.0  0.29001  0.76612  0.86132  1.0000
  C   C748      1.0  0.29006  0.75944  0.88637  1.0000
  C   C749      1.0  0.30244  0.74898  0.92410  1.0000
  C   C750      1.0  0.32931  0.77072  0.98271  1.0000
  Fe  Fe49      1.0  0.47367  0.00764  0.17646  1.0000
  S   S99       1.0  0.48188  0.00475  0.12067  1.0000
  H   H602      1.0  0.52172  0.00979  0.27636  1.0000
  Fe  Fe50      1.0  0.48952  0.03646  0.15848  1.0000
  S   S100      1.0  0.49834  0.03559  0.10045  1.0000
  S   S101      1.0  0.49668  0.05629  0.17205  1.0000
  Fe  Fe51      1.0  0.47881  0.02425  0.09786  1.0000
  S   S102      1.0  0.47205  0.02926  0.04445  1.0000
  Fe  Fe52      1.0  0.50077  0.01630  0.12704  1.0000
  S   S103      1.0  0.51924  0.01044  0.11028  1.0000
  S   S104      1.0  0.46936  0.02674  0.15376  1.0000
  S   S105      1.0  0.49313  0.01760  0.18483  1.0000
  Fe  Fe53      1.0  0.58658  0.05350  0.07218  1.0000
  S   S106      1.0  0.56768  0.05895  0.07235  1.0000
  Fe  Fe54      1.0  0.61309  0.06379  0.08933  1.0000
  S   S107      1.0  0.62379  0.08292  0.10054  1.0000
  S   S108      1.0  0.60468  0.06839  0.03996  1.0000
  Fe  Fe55      1.0  0.52817  0.09796  0.31306  1.0000
  S   S109      1.0  0.54639  0.11185  0.27518  1.0000
  S   S110      1.0  0.51608  0.07926  0.30231  1.0000
  Fe  Fe56      1.0  0.53347  0.10958  0.38087  1.0000
  S   S111      1.0  0.55203  0.12378  0.34711  1.0000
  S   S112      1.0  0.52667  0.10536  0.44396  1.0000
  Fe  Fe57      1.0  0.54108  0.12726  0.30301  1.0000
  S   S113      1.0  0.54192  0.14784  0.27262  1.0000
  Fe  Fe58      1.0  0.55571  0.10732  0.32244  1.0000
  S   S114      1.0  0.57415  0.10093  0.31949  1.0000
  S   S115      1.0  0.52192  0.11376  0.33815  1.0000
  S   S116      1.0  0.53805  0.09283  0.35892  1.0000
  S   S117      1.0  0.64468  0.12617  0.28668  1.0000
  C   C751      1.0  0.65769  0.22546  0.29529  1.0000
  C   C752      1.0  0.61222  0.19215  0.09825  1.0000
  S   S118      1.0  0.62248  0.14983  0.26405  1.0000
  S   S119      1.0  0.59212  0.03706  0.05063  1.0000
  Fe  Fe59      1.0  0.59882  0.21576  0.17092  1.0000
  H   H603      1.0  0.63152  0.16847  0.44766  1.0000
  S   S120      1.0  0.59331  0.19383  0.19660  1.0000
  S   S121      1.0  0.61718  0.22041  0.12605  1.0000
  C   C753      1.0  0.55629  0.16074  0.25377  1.0000
  C   C754      1.0  0.56871  0.15871  0.25225  1.0000
  C   C755      1.0  0.57986  0.16897  0.23461  1.0000
  C   C756      1.0  0.57880  0.18146  0.21922  1.0000
  C   C757      1.0  0.56639  0.18356  0.22141  1.0000
  C   C758      1.0  0.55520  0.17322  0.23837  1.0000
  H   H604      1.0  0.56973  0.14916  0.26369  1.0000
  H   H605      1.0  0.58939  0.16716  0.23249  1.0000
  H   H606      1.0  0.56540  0.19309  0.20958  1.0000
  H   H607      1.0  0.54565  0.17490  0.23934  1.0000
  Fe  Fe60      1.0  0.65594  0.12508  0.23199  1.0000
  H   H608      1.0  0.59829  0.00141  0.05342  1.0000
  C   C759      1.0  0.50774  0.10934  0.25915  1.0000
  C   C760      1.0  0.54362  0.04421  0.27178  1.0000
  C   C761      1.0  0.65983  0.23435  0.01138  1.0000
  C   C762      1.0  0.53972  0.12732  0.46342  1.0000
  C   C763      1.0  0.61962  0.10663  0.45258  1.0000
  H   H609      1.0  0.49172  0.13024  0.29184  1.0000
  C   C764      1.0  0.60301  0.07248  0.30432  1.0000
  H   H610      1.0  0.54258  0.13202  0.43432  1.0000
  C   C765      1.0  0.58746  0.11454  0.30320  1.0000
  C   C766      1.0  0.58601  0.12654  0.28567  1.0000
  C   C767      1.0  0.59679  0.13740  0.27356  1.0000
  C   C768      1.0  0.60897  0.13627  0.27927  1.0000
  C   C769      1.0  0.61026  0.12429  0.29720  1.0000
  C   C770      1.0  0.59959  0.11343  0.30884  1.0000
  H   H611      1.0  0.57662  0.12744  0.28121  1.0000
  H   H612      1.0  0.59571  0.14663  0.25954  1.0000
  H   H613      1.0  0.61936  0.12338  0.30299  1.0000
  H   H614      1.0  0.60068  0.10428  0.32321  1.0000
  C   C771      1.0  0.63086  0.08864  0.13523  1.0000
  C   C772      1.0  0.63551  0.10214  0.13074  1.0000
  C   C773      1.0  0.64154  0.10722  0.15672  1.0000
  C   C774      1.0  0.64304  0.09885  0.18766  1.0000
  C   C775      1.0  0.63827  0.08535  0.19235  1.0000
  C   C776      1.0  0.63215  0.08027  0.16649  1.0000
  H   H615      1.0  0.63457  0.10873  0.10674  1.0000
  H   H616      1.0  0.53877  0.06529  0.34252  1.0000
  H   H617      1.0  0.63941  0.07877  0.21604  1.0000
  H   H618      1.0  0.62870  0.06989  0.17036  1.0000
  C   C777      1.0  0.50314  0.06194  0.20793  1.0000
  C   C778      1.0  0.50002  0.05443  0.24425  1.0000
  C   C779      1.0  0.50406  0.05990  0.27251  1.0000
  C   C780      1.0  0.51162  0.07282  0.26492  1.0000
  C   C781      1.0  0.51516  0.08017  0.22833  1.0000
  C   C782      1.0  0.51079  0.07482  0.20028  1.0000
  H   H619      1.0  0.49400  0.04459  0.25085  1.0000
  H   H620      1.0  0.50107  0.05412  0.30063  1.0000
  H   H621      1.0  0.52107  0.09005  0.22166  1.0000
  H   H622      1.0  0.51325  0.08078  0.17240  1.0000
  C   C783      1.0  0.53272  0.02389  0.10018  1.0000
  C   C784      1.0  0.54516  0.02271  0.08557  1.0000
  C   C785      1.0  0.55594  0.03346  0.07695  1.0000
  C   C786      1.0  0.55428  0.04550  0.08180  1.0000
  C   C787      1.0  0.54181  0.04675  0.09574  1.0000
  C   C788      1.0  0.53111  0.03587  0.10584  1.0000
  H   H623      1.0  0.54647  0.01346  0.08127  1.0000
  H   H624      1.0  0.56550  0.03241  0.06645  1.0000
  H   H625      1.0  0.54048  0.05600  0.10007  1.0000
  H   H626      1.0  0.52170  0.03678  0.11863  1.0000
  C   C789      1.0  0.59455  0.22212  0.02017  1.0000
  C   C790      1.0  0.47406  0.02113  0.00804  1.0000
  S   S122      1.0  0.65934  0.15714  0.26844  1.0000
  H   H627      1.0  0.58737  0.18671  0.36335  1.0000
  C   C791      1.0  0.64031  0.20205  0.16488  1.0000
  H   H628      1.0  0.48866  0.05822  0.02930  1.0000
  C   C792      1.0  0.66244  0.19189  0.38985  1.0000
  H   H629      1.0  0.60940  0.17197  0.25835  1.0000
  C   C793      1.0  0.57692  0.01195  0.24970  1.0000
  C   C794      1.0  0.63779  0.19255  0.22959  1.0000
  H   H630      1.0  0.59006  0.02852  0.48119  1.0000
  H   H631      1.0  0.60965  0.09163  0.37355  1.0000
  C   C795      1.0  0.49759  0.11349  0.27820  1.0000
  H   H632      1.0  0.49086  0.11308  0.42356  1.0000
  C   C796      1.0  0.49092  0.10590  0.40724  1.0000
  H   H633      1.0  0.64511  0.11759  0.15268  1.0000
  H   H634      1.0  0.57871  0.00542  0.09807  1.0000
  H   H635      1.0  0.46928  0.07466  0.34470  1.0000
  H   H636      1.0  0.50016  0.07793  0.40519  1.0000
  C   C797      1.0  0.59839  0.12752  0.38255  1.0000
  H   H637      1.0  0.53078  0.16079  0.39263  1.0000
  H   H638      1.0  0.63899  0.20958  0.14381  1.0000
  H   H639      1.0  0.46389  0.05497  0.32114  1.0000
  H   H640      1.0  0.62829  0.11101  0.35909  1.0000
  C   C798      1.0  0.55458  0.05171  0.27970  1.0000
  H   H641      1.0  0.46041  0.09825  0.36784  1.0000
  C   C799      1.0  0.46905  0.06419  0.30212  1.0000
  C   C800      1.0  0.47926  0.08726  0.29094  1.0000
  H   H642      1.0  0.43821  0.12110  0.31472  1.0000
  C   C801      1.0  0.48237  0.08797  0.25285  1.0000
  C   C802      1.0  0.47261  0.06491  0.26432  1.0000
  C   C803      1.0  0.44015  0.01389  0.13346  1.0000
  C   C804      1.0  0.45949  0.10470  0.34347  1.0000
  C   C805      1.0  0.45639  0.12075  0.28053  1.0000
  H   H643      1.0  0.56405  0.13337  0.40678  1.0000
  H   H644      1.0  0.63443  0.19260  0.25818  1.0000
  H   H645      1.0  0.60794  0.12583  0.37524  1.0000
  C   C806      1.0  0.58859  0.21599  0.99580  1.0000
  P   P26       1.0  0.64913  0.19111  0.10761  1.0000
  H   H646      1.0  0.58053  0.20744  0.00671  1.0000
  C   C807      1.0  0.64748  0.18261  0.18324  1.0000
  C   C808      1.0  0.65069  0.17498  0.10556  1.0000
  H   H647      1.0  0.63227  0.03339  0.01333  1.0000
  H   H648      1.0  0.54269  0.03995  0.99337  1.0000
  H   H649      1.0  0.61222  0.10192  0.06195  1.0000
  C   C809      1.0  0.59567  0.07968  0.28677  1.0000
  H   H650      1.0  0.60249  0.18877  0.11620  1.0000
  C   C810      1.0  0.64347  0.18283  0.22029  1.0000
  H   H651      1.0  0.60925  0.19508  0.25123  1.0000
  H   H652      1.0  0.54320  0.15373  0.34188  1.0000
  H   H653      1.0  0.60519  0.17843  0.39718  1.0000
  C   C811      1.0  0.64344  0.15326  0.36640  1.0000
  C   C812      1.0  0.62647  0.11217  0.41571  1.0000
  H   H654      1.0  0.57202  0.23941  0.02090  1.0000
  S   S123      1.0  0.65212  0.14323  0.20167  1.0000
  S   S124      1.0  0.62071  0.04793  0.06876  1.0000
  C   C813      1.0  0.63986  0.16511  0.10597  1.0000
  H   H655      1.0  0.44089  0.10673  0.37043  1.0000
  H   H656      1.0  0.49907  0.09393  0.44371  1.0000
  H   H657      1.0  0.55839  0.07014  0.13921  1.0000
  H   H658      1.0  0.59894  0.08154  0.13738  1.0000
  C   C814      1.0  0.52023  0.13163  0.23363  1.0000
  C   C815      1.0  0.62279  0.18946  0.11163  1.0000
  H   H659      1.0  0.47472  0.11847  0.25300  1.0000
  C   C816      1.0  0.57575  0.00875  0.00444  1.0000
  C   C817      1.0  0.49207  0.08782  0.36399  1.0000
  C   C818      1.0  0.48688  0.10771  0.37415  1.0000
  C   C819      1.0  0.47918  0.07681  0.23970  1.0000
  P   P27       1.0  0.48332  0.10170  0.30802  1.0000
  C   C820      1.0  0.58299  0.06009  0.27564  1.0000
  C   C821      1.0  0.56364  0.06300  0.18990  1.0000
  C   C822      1.0  0.51038  0.13585  0.25357  1.0000
  C   C823      1.0  0.55076  0.08883  0.19237  1.0000
  C   C824      1.0  0.54947  0.08457  0.23027  1.0000
  C   C825      1.0  0.55923  0.08985  0.24650  1.0000
  C   C826      1.0  0.57026  0.09941  0.22500  1.0000
  C   C827      1.0  0.57185  0.10348  0.18670  1.0000
  C   C828      1.0  0.56191  0.09822  0.17061  1.0000
  P   P28       1.0  0.58571  0.11651  0.15953  1.0000
  C   C829      1.0  0.58130  0.13178  0.15621  1.0000
  C   C830      1.0  0.59921  0.11681  0.18139  1.0000
  C   C831      1.0  0.60692  0.12861  0.18402  1.0000
  C   C832      1.0  0.61761  0.12873  0.19971  1.0000
  C   C833      1.0  0.62056  0.11712  0.21356  1.0000
  C   C834      1.0  0.61292  0.10534  0.21118  1.0000
  C   C835      1.0  0.60227  0.10516  0.19525  1.0000
  C   C836      1.0  0.58883  0.14281  0.12879  1.0000
  C   C837      1.0  0.58588  0.15483  0.12757  1.0000
  C   C838      1.0  0.57529  0.15585  0.15333  1.0000
  C   C839      1.0  0.56759  0.14485  0.18009  1.0000
  C   C840      1.0  0.57065  0.13290  0.18182  1.0000
  C   C841      1.0  0.59043  0.11396  0.11370  1.0000
  C   C842      1.0  0.60107  0.10873  0.10389  1.0000
  C   C843      1.0  0.60417  0.10621  0.06899  1.0000
  C   C844      1.0  0.52200  0.03517  0.01134  1.0000
  C   C845      1.0  0.58641  0.11449  0.05259  1.0000
  C   C846      1.0  0.58328  0.11703  0.08748  1.0000
  H   H660      1.0  0.54310  0.08482  0.17985  1.0000
  H   H661      1.0  0.54080  0.07737  0.24720  1.0000
  H   H662      1.0  0.55802  0.08693  0.27610  1.0000
  H   H663      1.0  0.57739  0.10380  0.23857  1.0000
  H   H664      1.0  0.56264  0.10135  0.14140  1.0000
  H   H665      1.0  0.60477  0.13775  0.17430  1.0000
  H   H666      1.0  0.62353  0.13787  0.20159  1.0000
  H   H667      1.0  0.62883  0.11724  0.22587  1.0000
  H   H668      1.0  0.61547  0.09638  0.22105  1.0000
  H   H669      1.0  0.59656  0.09597  0.19322  1.0000
  H   H670      1.0  0.59716  0.14219  0.10900  1.0000
  H   H671      1.0  0.59187  0.16339  0.10695  1.0000
  H   H672      1.0  0.57311  0.16519  0.15293  1.0000
  H   H673      1.0  0.55937  0.14564  0.20002  1.0000
  H   H674      1.0  0.56478  0.12463  0.20348  1.0000
  H   H675      1.0  0.60696  0.10638  0.12296  1.0000
  C   C847      1.0  0.46929  0.10825  0.31067  1.0000
  H   H676      1.0  0.57516  0.12124  0.09418  1.0000
  C   C848      1.0  0.54573  0.03300  0.17801  1.0000
  C   C849      1.0  0.55900  0.03402  0.16626  1.0000
  C   C850      1.0  0.56377  0.02307  0.17369  1.0000
  C   C851      1.0  0.55534  0.01114  0.19358  1.0000
  C   C852      1.0  0.54196  0.01001  0.20572  1.0000
  C   C853      1.0  0.53718  0.02100  0.19680  1.0000
  C   C854      1.0  0.49039  0.06093  0.99944  1.0000
  H   H677      1.0  0.63951  0.19537  0.45994  1.0000
  H   H678      1.0  0.60604  0.05347  0.32134  1.0000
  H   H679      1.0  0.64711  0.20563  0.03542  1.0000
  H   H680      1.0  0.53608  0.05055  0.44961  1.0000
  C   C855      1.0  0.63746  0.20175  0.05322  1.0000
  C   C856      1.0  0.58474  0.14248  0.38890  1.0000
  H   H681      1.0  0.59813  0.15607  0.31676  1.0000
  C   C857      1.0  0.63553  0.19434  0.08934  1.0000
  H   H682      1.0  0.56411  0.16708  0.43898  1.0000
  C   C858      1.0  0.60580  0.00780  0.03032  1.0000
  C   C859      1.0  0.58499  0.04412  0.44815  1.0000
  C   C860      1.0  0.65311  0.14967  0.10617  1.0000
  C   C861      1.0  0.56433  0.01278  0.00390  1.0000
  H   H683      1.0  0.59913  0.10682  0.01665  1.0000
  H   H684      1.0  0.44278  0.02680  0.08049  1.0000
  H   H685      1.0  0.62838  0.21067  0.01271  1.0000
  C   C862      1.0  0.47970  0.01063  0.01050  1.0000
  C   C863      1.0  0.59966  0.17252  0.42406  1.0000
  H   H686      1.0  0.54197  0.04140  0.17086  1.0000
  H   H687      1.0  0.56551  0.04318  0.15002  1.0000
  H   H688      1.0  0.57400  0.02375  0.16332  1.0000
  H   H689      1.0  0.62100  0.18382  0.13975  1.0000
  H   H690      1.0  0.52684  0.02031  0.20285  1.0000
  H   H691      1.0  0.64385  0.14399  0.38208  1.0000
  H   H692      1.0  0.48321  0.00748  0.03465  1.0000
  H   H693      1.0  0.61523  0.15386  0.42610  1.0000
  H   H694      1.0  0.62552  0.16649  0.31264  1.0000
  C   C864      1.0  0.59250  0.18344  0.34102  1.0000
  H   H695      1.0  0.45152  0.99763  0.99839  1.0000
  C   C865      1.0  0.60929  0.09543  0.46076  1.0000
  C   C866      1.0  0.60488  0.17520  0.28172  1.0000
  H   H696      1.0  0.63042  0.16703  0.10675  1.0000
  C   C867      1.0  0.57324  0.05673  0.48111  1.0000
  H   H697      1.0  0.49988  0.01255  0.30090  1.0000
  H   H698      1.0  0.61520  0.01802  0.06546  1.0000
  C   C868      1.0  0.61426  0.19975  0.06255  1.0000
  C   C869      1.0  0.57496  0.11932  0.40051  1.0000
  H   H699      1.0  0.56633  0.11129  0.40749  1.0000
  C   C870      1.0  0.62686  0.20455  0.04006  1.0000
  C   C871      1.0  0.56660  0.15951  0.38986  1.0000
  H   H700      1.0  0.65586  0.12942  0.43320  1.0000
  C   C872      1.0  0.44685  0.11748  0.31356  1.0000
  H   H701      1.0  0.60574  0.14814  0.37379  1.0000
  C   C873      1.0  0.57590  0.24494  0.99254  1.0000
  C   C874      1.0  0.54056  0.06924  0.46243  1.0000
  H   H702      1.0  0.58837  0.04244  0.29693  1.0000
  C   C875      1.0  0.65271  0.16454  0.36530  1.0000
  H   H703      1.0  0.56088  0.06511  0.31256  1.0000
  C   C876      1.0  0.63026  0.15808  0.45513  1.0000
  C   C877      1.0  0.63307  0.16594  0.32752  1.0000
  C   C878      1.0  0.62503  0.02583  0.00808  1.0000
  C   C879      1.0  0.63630  0.20220  0.20191  1.0000
  H   H704      1.0  0.57845  0.00247  0.24829  1.0000
  C   C880      1.0  0.65702  0.18978  0.46641  1.0000
  C   C881      1.0  0.51331  0.00425  0.26952  1.0000
  H   H705      1.0  0.55369  0.05798  0.20359  1.0000
  C   C882      1.0  0.47223  0.07535  0.31539  1.0000
  C   C883      1.0  0.62107  0.14983  0.44305  1.0000
  H   H706      1.0  0.58722  0.10570  0.46480  1.0000
  C   C884      1.0  0.44837  0.10941  0.34496  1.0000
  H   H707      1.0  0.56596  0.15300  0.33955  1.0000
  C   C885      1.0  0.57369  0.13193  0.39957  1.0000
  H   H708      1.0  0.44185  0.00959  0.04667  1.0000
  C   C886      1.0  0.51018  0.03444  0.00115  1.0000
  H   H709      1.0  0.58174  0.01204  0.02235  1.0000
  H   H710      1.0  0.52203  0.03212  0.04017  1.0000
  H   H711      1.0  0.61093  0.07734  0.31451  1.0000
  C   C887      1.0  0.52935  0.05186  0.31488  1.0000
  H   H712      1.0  0.45512  0.12685  0.25604  1.0000
  C   C888      1.0  0.50097  0.00583  0.28349  1.0000
  H   H713      1.0  0.64151  0.18642  0.31139  1.0000
  H   H714      1.0  0.64389  0.19668  0.39275  1.0000
  C   C889      1.0  0.65099  0.19441  0.40788  1.0000
  H   H715      1.0  0.65170  0.17486  0.17681  1.0000
  S   S125      1.0  0.59777  0.01457  0.13969  1.0000
  H   H716      1.0  0.55936  0.00433  0.29281  1.0000
  C   C890      1.0  0.48730  0.09859  0.35244  1.0000
  H   H717      1.0  0.55599  0.02588  0.29637  1.0000
  H   H718      1.0  0.61218  0.13014  0.44359  1.0000
  C   C891      1.0  0.54080  0.16056  0.39173  1.0000
  C   C892      1.0  0.49556  0.09510  0.41864  1.0000
  S   S126      1.0  0.60771  0.23007  0.20091  1.0000
  Fe  Fe61      1.0  0.61096  0.05181  0.02147  1.0000
  C   C893      1.0  0.54778  0.15652  0.36320  1.0000
  H   H719      1.0  0.48200  0.07729  0.21040  1.0000
  S   S127      1.0  0.59417  0.04993  0.12317  1.0000
  C   C894      1.0  0.49615  0.08607  0.39700  1.0000
  H   H720      1.0  0.58040  0.07935  0.25814  1.0000
  Fe  Fe62      1.0  0.60923  0.23566  0.09653  1.0000
  H   H721      1.0  0.52907  0.13864  0.21692  1.0000
  Fe  Fe63      1.0  0.64185  0.14476  0.25694  1.0000
  H   H722      1.0  0.63475  0.12057  0.40883  1.0000
  S   S128      1.0  0.61255  0.24175  0.03463  1.0000
  H   H723      1.0  0.43839  0.99889  0.18174  1.0000
  C   C895      1.0  0.54677  0.16436  0.41891  1.0000
  S   S129      1.0  0.59027  0.23039  0.13891  1.0000
  C   C896      1.0  0.44114  0.01682  0.09544  1.0000
  H   H724      1.0  0.58823  0.10743  0.39103  1.0000
  H   H725      1.0  0.59417  0.02230  0.20728  1.0000
  C   C897      1.0  0.59868  0.19238  0.30734  1.0000
  C   C898      1.0  0.61240  0.09578  0.39564  1.0000
  Fe  Fe64      1.0  0.60098  0.03427  0.09958  1.0000
  H   H726      1.0  0.59478  0.06869  0.20082  1.0000
  S   S130      1.0  0.65083  0.10468  0.22104  1.0000
  H   H727      1.0  0.52266  0.03891  0.28201  1.0000
  C   C899      1.0  0.56417  0.02528  0.27609  1.0000
  H   H728      1.0  0.59833  0.20245  0.30369  1.0000
  H   H729      1.0  0.58072  0.11666  0.03273  1.0000
  C   C900      1.0  0.57281  0.03655  0.25192  1.0000
  C   C901      1.0  0.58730  0.11714  0.39158  1.0000
  C   C902      1.0  0.60024  0.05904  0.30811  1.0000
  C   C903      1.0  0.53106  0.04435  0.28914  1.0000
  C   C904      1.0  0.64838  0.19351  0.44596  1.0000
  H   H730      1.0  0.64449  0.17525  0.24177  1.0000
  C   C905      1.0  0.58194  0.15469  0.46296  1.0000
  C   C906      1.0  0.58578  0.07355  0.27231  1.0000
  C   C907      1.0  0.44064  0.00698  0.07627  1.0000
  C   C908      1.0  0.65956  0.21534  0.32107  1.0000
  H   H731      1.0  0.65853  0.21600  0.34945  1.0000
  H   H732      1.0  0.60611  0.20215  0.05255  1.0000
  H   H733      1.0  0.59106  0.21833  0.04971  1.0000
  C   C909      1.0  0.58367  0.03536  0.22727  1.0000
  H   H734      1.0  0.56174  0.01923  0.02084  1.0000
  H   H735      1.0  0.47040  0.05624  0.25396  1.0000
  H   H736      1.0  0.49304  0.08096  0.34705  1.0000
  C   C910      1.0  0.59712  0.14014  0.38140  1.0000
  C   C911      1.0  0.57384  0.06233  0.20770  1.0000
  C   C912      1.0  0.64572  0.19213  0.15524  1.0000
  C   C913      1.0  0.63381  0.15391  0.34678  1.0000
  C   C914      1.0  0.46752  0.11605  0.27896  1.0000
  H   H737      1.0  0.50704  0.09911  0.26217  1.0000
  H   H738      1.0  0.51172  0.14612  0.25242  1.0000
  H   H739      1.0  0.58411  0.12624  0.47973  1.0000
  C   C915      1.0  0.55272  0.05914  0.30588  1.0000
  C   C916      1.0  0.59680  0.10899  0.04345  1.0000
  H   H740      1.0  0.65024  0.22876  0.06935  1.0000
  C   C917      1.0  0.62287  0.10675  0.38742  1.0000
  H   H741      1.0  0.59774  0.09009  0.28370  1.0000
  H   H742      1.0  0.59764  0.08149  0.43868  1.0000
  C   C918      1.0  0.57891  0.05427  0.44784  1.0000
  C   C919      1.0  0.64108  0.15250  0.10626  1.0000
  H   H743      1.0  0.53959  0.07452  0.43622  1.0000
  C   C920      1.0  0.56622  0.07006  0.15331  1.0000
  H   H744      1.0  0.54479  0.03847  0.25153  1.0000
  H   H745      1.0  0.48377  0.11638  0.36507  1.0000
  C   C921      1.0  0.57776  0.99772  0.12192  1.0000
  H   H746      1.0  0.65402  0.13986  0.10712  1.0000
  H   H747      1.0  0.62705  0.14510  0.34605  1.0000
  C   C922      1.0  0.57893  0.07682  0.13447  1.0000
  C   C923      1.0  0.51895  0.11837  0.23661  1.0000
  C   C924      1.0  0.49910  0.12682  0.27591  1.0000
  H   H748      1.0  0.52677  0.11508  0.22214  1.0000
  H   H749      1.0  0.58094  0.08206  0.10585  1.0000
  C   C925      1.0  0.58662  0.06915  0.18838  1.0000
  H   H750      1.0  0.56846  0.06455  0.48070  1.0000
  C   C926      1.0  0.58907  0.07648  0.15218  1.0000
  H   H751      1.0  0.48736  0.09710  0.23320  1.0000
  C   C927      1.0  0.60564  0.09010  0.43231  1.0000
  H   H752      1.0  0.59065  0.04386  0.20885  1.0000
  P   P29       1.0  0.57079  0.05253  0.25424  1.0000
  Fe  Fe65      1.0  0.62551  0.23527  0.15442  1.0000
  H   H753      1.0  0.51124  0.06554  0.99064  1.0000
  H   H754      1.0  0.51966  0.05223  0.32783  1.0000
  C   C928      1.0  0.59855  0.16619  0.31517  1.0000
  C   C929      1.0  0.54016  0.05922  0.32325  1.0000
  C   C930      1.0  0.58575  0.02312  0.22641  1.0000
  C   C931      1.0  0.59023  0.05283  0.29402  1.0000
  C   C932      1.0  0.65250  0.17655  0.34412  1.0000
  H   H755      1.0  0.63187  0.20973  0.20908  1.0000
  C   C933      1.0  0.55968  0.16398  0.41781  1.0000
  H   H756      1.0  0.57856  0.06021  0.42179  1.0000
  H   H757      1.0  0.54135  0.16751  0.44101  1.0000
  H   H758      1.0  0.58941  0.04220  0.42235  1.0000
  H   H759      1.0  0.50108  0.03088  0.02203  1.0000
  C   C934      1.0  0.59251  0.17029  0.34536  1.0000
  C   C935      1.0  0.56614  0.01302  0.27459  1.0000
  C   C936      1.0  0.66269  0.17200  0.10583  1.0000
  C   C937      1.0  0.56066  0.15606  0.36209  1.0000
  C   C938      1.0  0.60486  0.18825  0.27773  1.0000
  P   P30       1.0  0.58322  0.15879  0.38782  1.0000
  C   C939      1.0  0.64232  0.17724  0.32633  1.0000
  C   C940      1.0  0.58858  0.16247  0.42770  1.0000
  S   S131      1.0  0.64484  0.23597  0.16967  1.0000
  H   H760      1.0  0.47003  0.05619  0.99994  1.0000
  H   H761      1.0  0.55927  0.00276  0.19796  1.0000
  C   C941      1.0  0.60592  0.00673  0.99393  1.0000
  H   H762      1.0  0.64410  0.10274  0.44855  1.0000
  H   H763      1.0  0.63691  0.24460  0.06385  1.0000
  H   H764      1.0  0.63268  0.14485  0.10725  1.0000
  H   H765      1.0  0.57344  0.14679  0.46634  1.0000
  C   C942      1.0  0.61538  0.01725  0.03732  1.0000
  Fe  Fe66      1.0  0.60109  0.24522  0.16475  1.0000
  H   H766      1.0  0.44079  0.02157  0.14808  1.0000
  H   H767      1.0  0.54027  0.00128  0.14571  1.0000
  C   C943      1.0  0.61946  0.13639  0.45280  1.0000
  C   C944      1.0  0.53852  0.05575  0.47009  1.0000
  C   C945      1.0  0.60488  0.23328  0.00608  1.0000
  C   C946      1.0  0.65123  0.23516  0.04274  1.0000
  C   C947      1.0  0.65934  0.24502  0.13741  1.0000
  C   C948      1.0  0.62702  0.13110  0.47490  1.0000
  C   C949      1.0  0.66284  0.21451  0.24669  1.0000
  Fe  Fe67      1.0  0.66294  0.13825  0.29509  1.0000
  C   C950      1.0  0.58557  0.99982  0.14682  1.0000
  C   C951      1.0  0.53186  0.11459  0.47523  1.0000
  C   C952      1.0  0.65923  0.22500  0.25818  1.0000
  C   C953      1.0  0.58533  0.03635  0.48172  1.0000
  C   C954      1.0  0.66279  0.20458  0.30986  1.0000
  C   C955      1.0  0.43876  0.00112  0.15241  1.0000
  H   H768      1.0  0.48053  0.00051  0.28391  1.0000
  C   C956      1.0  0.60383  0.17492  0.45541  1.0000
  C   C957      1.0  0.64384  0.24423  0.03982  1.0000
  H   H769      1.0  0.66015  0.16389  0.38058  1.0000
  H   H770      1.0  0.61233  0.18271  0.45264  1.0000
  H   H771      1.0  0.65502  0.23368  0.30401  1.0000
  H   H772      1.0  0.54468  0.08641  0.48292  1.0000
  C   C958      1.0  0.63776  0.15290  0.47722  1.0000
  H   H773      1.0  0.58022  0.04393  0.98876  1.0000
  H   H774      1.0  0.65768  0.23276  0.23818  1.0000
  H   H775      1.0  0.54944  0.14401  0.48020  1.0000
  C   C959      1.0  0.49007  0.99904  0.27409  1.0000
  C   C960      1.0  0.65766  0.10066  0.48215  1.0000
  C   C961      1.0  0.64658  0.10412  0.47405  1.0000
  H   H776      1.0  0.60924  0.10381  0.82111  1.0000
  H   H777      1.0  0.64144  0.22241  0.72717  1.0000
  S   S132      1.0  0.46013  0.00741  0.82720  1.0000
  H   H778      1.0  0.61592  0.01511  0.93634  1.0000
  H   H779      1.0  0.64904  0.17844  0.68573  1.0000
  S   S133      1.0  0.47950  0.00599  0.75027  1.0000
  C   C962      1.0  0.64970  0.14937  0.73611  1.0000
  Fe  Fe68      1.0  0.47758  0.02086  0.78400  1.0000
  S   S134      1.0  0.47823  0.04191  0.75873  1.0000
  H   H780      1.0  0.53198  0.02066  0.59928  1.0000
  C   C963      1.0  0.63315  0.16604  0.73067  1.0000
  S   S135      1.0  0.49190  0.01615  0.81667  1.0000
  C   C964      1.0  0.60785  0.05634  0.58029  1.0000
  Fe  Fe69      1.0  0.60580  0.05401  0.70432  1.0000
  S   S136      1.0  0.59317  0.05405  0.75872  1.0000
  S   S137      1.0  0.61539  0.07257  0.65895  1.0000
  Fe  Fe70      1.0  0.57751  0.04061  0.74313  1.0000
  S   S138      1.0  0.55771  0.04446  0.74948  1.0000
  S   S139      1.0  0.58945  0.04176  0.68725  1.0000
  Fe  Fe71      1.0  0.53865  0.10886  0.68965  1.0000
  S   S140      1.0  0.55200  0.11187  0.63405  1.0000
  S   S141      1.0  0.52984  0.08795  0.72356  1.0000
  Fe  Fe72      1.0  0.54916  0.13773  0.69279  1.0000
  S   S142      1.0  0.56280  0.14251  0.63664  1.0000
  S   S143      1.0  0.54893  0.14980  0.73687  1.0000
  Fe  Fe73      1.0  0.54630  0.13050  0.61875  1.0000
  Fe  Fe74      1.0  0.56722  0.12342  0.65546  1.0000
  S   S144      1.0  0.58667  0.11889  0.65050  1.0000
  S   S145      1.0  0.53194  0.12711  0.67401  1.0000
  S   S146      1.0  0.55455  0.11916  0.71209  1.0000
  S   S147      1.0  0.59933  0.02889  0.84191  1.0000
  S   S148      1.0  0.58734  0.20206  0.74954  1.0000
  S   S149      1.0  0.60087  0.20265  0.84167  1.0000
  H   H781      1.0  0.61117  0.06682  0.57391  1.0000
  C   C965      1.0  0.53152  0.11574  0.53944  1.0000
  C   C966      1.0  0.56027  0.16395  0.74019  1.0000
  C   C967      1.0  0.56873  0.17287  0.70905  1.0000
  C   C968      1.0  0.57675  0.18446  0.71268  1.0000
  C   C969      1.0  0.57682  0.18718  0.74744  1.0000
  C   C970      1.0  0.56846  0.17819  0.77870  1.0000
  C   C971      1.0  0.56017  0.16674  0.77502  1.0000
  H   H782      1.0  0.56878  0.17106  0.68200  1.0000
  H   H783      1.0  0.58288  0.19149  0.68826  1.0000
  H   H784      1.0  0.56821  0.18014  0.80564  1.0000
  H   H785      1.0  0.55355  0.16004  0.79933  1.0000
  C   C972      1.0  0.60001  0.13094  0.62153  1.0000
  C   C973      1.0  0.59826  0.14215  0.60019  1.0000
  C   C974      1.0  0.60908  0.15249  0.58135  1.0000
  C   C975      1.0  0.62163  0.15151  0.58326  1.0000
  C   C976      1.0  0.62342  0.13999  0.60281  1.0000
  C   C977      1.0  0.61260  0.12968  0.62184  1.0000
  H   H786      1.0  0.58858  0.14305  0.59926  1.0000
  H   H787      1.0  0.60772  0.16143  0.56648  1.0000
  H   H788      1.0  0.63309  0.13915  0.60425  1.0000
  H   H789      1.0  0.61396  0.12090  0.63786  1.0000
  C   C978      1.0  0.62854  0.08582  0.65692  1.0000
  C   C979      1.0  0.63892  0.08414  0.67280  1.0000
  C   C980      1.0  0.61959  0.05453  0.88937  1.0000
  C   C981      1.0  0.59295  0.22100  0.95737  1.0000
  C   C982      1.0  0.63996  0.10872  0.63045  1.0000
  C   C983      1.0  0.62910  0.09818  0.63592  1.0000
  H   H790      1.0  0.63866  0.07466  0.68876  1.0000
  H   H791      1.0  0.64020  0.11818  0.61449  1.0000
  H   H792      1.0  0.62109  0.09964  0.62385  1.0000
  H   H793      1.0  0.61990  0.05235  0.83373  1.0000
  H   H794      1.0  0.62821  0.06258  0.88088  1.0000
  C   C984      1.0  0.49271  0.05469  0.74735  1.0000
  C   C985      1.0  0.50456  0.05229  0.75203  1.0000
  C   C986      1.0  0.51581  0.06264  0.74336  1.0000
  C   C987      1.0  0.51542  0.07549  0.73015  1.0000
  C   C988      1.0  0.50359  0.07796  0.72528  1.0000
  C   C989      1.0  0.49229  0.06758  0.73378  1.0000
  H   H795      1.0  0.50506  0.04248  0.76252  1.0000
  H   H796      1.0  0.52493  0.06075  0.74716  1.0000
  H   H797      1.0  0.50306  0.08784  0.71575  1.0000
  H   H798      1.0  0.48315  0.06956  0.73026  1.0000
  C   C990      1.0  0.52443  0.00913  0.76066  1.0000
  C   C991      1.0  0.52241  0.02158  0.75487  1.0000
  C   C992      1.0  0.53269  0.03237  0.75154  1.0000
  C   C993      1.0  0.54503  0.03077  0.75378  1.0000
  C   C994      1.0  0.54713  0.01835  0.75875  1.0000
  C   C995      1.0  0.53685  0.00757  0.76190  1.0000
  H   H799      1.0  0.51297  0.02293  0.75242  1.0000
  H   H800      1.0  0.53111  0.04196  0.74674  1.0000
  H   H801      1.0  0.55665  0.01702  0.75980  1.0000
  P   P31       1.0  0.62447  0.11368  0.48888  1.0000
  C   C996      1.0  0.47589  0.00773  0.95058  1.0000
  C   C997      1.0  0.61485  0.04881  0.86254  1.0000
  C   C998      1.0  0.47987  0.05983  0.98280  1.0000
  C   C999      1.0  0.47072  0.01858  0.94732  1.0000
  C   C1000     1.0  0.60688  0.18055  0.67736  1.0000
  C   C1001     1.0  0.53934  0.04896  0.50444  1.0000
  H   H802      1.0  0.46701  0.02155  0.92343  1.0000
  H   H803      1.0  0.54841  0.23155  0.83959  1.0000
  C   C1002     1.0  0.59904  0.02927  0.59896  1.0000
  S   S150      1.0  0.47527  0.99753  0.91901  1.0000
  C   C1003     1.0  0.59895  0.17024  0.84720  1.0000
  H   H804      1.0  0.44479  0.00268  0.93995  1.0000
  H   H805      1.0  0.59789  0.03518  0.96673  1.0000
  H   H806      1.0  0.53195  0.00947  0.86688  1.0000
  H   H807      1.0  0.63773  0.16976  0.93489  1.0000
  C   C1004     1.0  0.59323  0.03665  0.57562  1.0000
  C   C1005     1.0  0.59238  0.16853  0.81945  1.0000
  H   H808      1.0  0.58256  0.06430  0.61227  1.0000
  C   C1006     1.0  0.59774  0.03346  0.91102  1.0000
  P   P32       1.0  0.57987  0.02861  0.55885  1.0000
  H   H809      1.0  0.63243  0.03186  0.94917  1.0000
  H   H810      1.0  0.61362  0.02962  0.63062  1.0000
  S   S151      1.0  0.63495  0.16489  0.56238  1.0000
  H   H811      1.0  0.57396  0.14018  0.74090  1.0000
  C   C1007     1.0  0.57735  0.13403  0.76104  1.0000
  C   C1008     1.0  0.52766  0.10896  0.51338  1.0000
  H   H812      1.0  0.60665  0.12843  0.70910  1.0000
  C   C1009     1.0  0.56592  0.08805  0.71575  1.0000
  C   C1010     1.0  0.57629  0.13599  0.79661  1.0000
  C   C1011     1.0  0.56759  0.07022  0.58776  1.0000
  S   S152      1.0  0.61613  0.23163  0.84807  1.0000
  H   H813      1.0  0.64562  0.23517  0.77309  1.0000
  C   C1012     1.0  0.55284  0.02254  0.65580  1.0000
  C   C1013     1.0  0.55152  0.06905  0.80685  1.0000
  C   C1014     1.0  0.54642  0.07943  0.81335  1.0000
  C   C1015     1.0  0.54206  0.08036  0.84956  1.0000
  C   C1016     1.0  0.54262  0.07081  0.87928  1.0000
  C   C1017     1.0  0.54768  0.06031  0.87293  1.0000
  C   C1018     1.0  0.55228  0.05960  0.83642  1.0000
  P   P33       1.0  0.54874  0.04819  0.91136  1.0000
  C   C1019     1.0  0.53374  0.04358  0.94694  1.0000
  C   C1020     1.0  0.55023  0.03383  0.89490  1.0000
  C   C1021     1.0  0.56242  0.03120  0.88497  1.0000
  C   C1022     1.0  0.57955  0.03868  0.51534  1.0000
  C   C1023     1.0  0.66123  0.10238  0.51471  1.0000
  H   H814      1.0  0.63012  0.17926  0.79579  1.0000
  C   C1024     1.0  0.53924  0.02579  0.88861  1.0000
  H   H815      1.0  0.65988  0.19896  0.69841  1.0000
  C   C1025     1.0  0.65389  0.16126  0.71004  1.0000
  H   H816      1.0  0.57171  0.08480  0.49885  1.0000
  H   H817      1.0  0.53752  0.03848  0.51058  1.0000
  C   C1026     1.0  0.52179  0.04309  0.93712  1.0000
  C   C1027     1.0  0.56226  0.05447  0.93027  1.0000
  S   S153      1.0  0.65870  0.15494  0.62619  1.0000
  C   C1028     1.0  0.61154  0.10764  0.53040  1.0000
  H   H818      1.0  0.63401  0.13650  0.77964  1.0000
  H   H819      1.0  0.55470  0.06813  0.77886  1.0000
  H   H820      1.0  0.54556  0.08659  0.79032  1.0000
  H   H821      1.0  0.53815  0.08844  0.85444  1.0000
  H   H822      1.0  0.53921  0.07163  0.90722  1.0000
  H   H823      1.0  0.55632  0.05169  0.83036  1.0000
  H   H824      1.0  0.57119  0.03739  0.88825  1.0000
  H   H825      1.0  0.52839  0.21548  0.81839  1.0000
  H   H826      1.0  0.52978  0.02768  0.89511  1.0000
  H   H827      1.0  0.65358  0.18988  0.82149  1.0000
  C   C1029     1.0  0.57740  0.11706  0.49513  1.0000
  S   S154      1.0  0.65953  0.14381  0.55096  1.0000
  H   H828      1.0  0.56155  0.00279  0.57170  1.0000
  H   H829      1.0  0.55350  0.00490  0.85005  1.0000
  Fe  Fe75      1.0  0.47490  0.00189  0.85773  1.0000
  H   H830      1.0  0.52154  0.04612  0.90852  1.0000
  C   C1030     1.0  0.65768  0.21570  0.95065  1.0000
  H   H831      1.0  0.61031  0.08655  0.87272  1.0000
  C   C1031     1.0  0.59769  0.05027  0.56649  1.0000
  C   C1032     1.0  0.64006  0.21535  0.71061  1.0000
  H   H832      1.0  0.55584  0.08793  0.71679  1.0000
  C   C1033     1.0  0.64261  0.11099  0.53132  1.0000
  H   H833      1.0  0.59647  0.06422  0.88420  1.0000
  H   H834      1.0  0.60629  0.23650  0.91445  1.0000
  H   H835      1.0  0.58145  0.05905  0.84417  1.0000
  C   C1034     1.0  0.64992  0.09465  0.66667  1.0000
  C   C1035     1.0  0.61159  0.17143  0.69895  1.0000
  C   C1036     1.0  0.56349  0.02064  0.86952  1.0000
  H   H836      1.0  0.63684  0.11487  0.55089  1.0000
  C   C1037     1.0  0.63684  0.19703  0.66820  1.0000
  C   C1038     1.0  0.57355  0.04899  0.51477  1.0000
  H   H837      1.0  0.52115  0.07344  0.54496  1.0000
  S   S155      1.0  0.58905  0.22791  0.81800  1.0000
  S   S156      1.0  0.61260  0.03656  0.72810  1.0000
  H   H838      1.0  0.57210  0.14367  0.80387  1.0000
  H   H839      1.0  0.54337  0.04662  0.67497  1.0000
  C   C1039     1.0  0.54543  0.05995  0.62303  1.0000
  C   C1040     1.0  0.57278  0.09518  0.73610  1.0000
  Fe  Fe76      1.0  0.59519  0.02436  0.71454  1.0000
  H   H840      1.0  0.57288  0.01866  0.86174  1.0000
  P   P34       1.0  0.54786  0.07804  0.55768  1.0000
  H   H841      1.0  0.58933  0.02521  0.91973  1.0000
  H   H842      1.0  0.51033  0.09221  0.90028  1.0000
  C   C1041     1.0  0.56346  0.05461  0.64619  1.0000
  C   C1042     1.0  0.58267  0.12412  0.75143  1.0000
  C   C1043     1.0  0.60406  0.03806  0.87335  1.0000
  C   C1044     1.0  0.54041  0.01538  0.87260  1.0000
  H   H843      1.0  0.59555  0.01878  0.60744  1.0000
  C   C1045     1.0  0.59630  0.99970  0.53321  1.0000
  S   S157      1.0  0.58204  0.02238  0.76966  1.0000
  Fe  Fe77      1.0  0.59589  0.21869  0.86690  1.0000
  Fe  Fe78      1.0  0.62065  0.21650  0.81912  1.0000
  H   H844      1.0  0.55016  0.10512  0.56443  1.0000
  H   H845      1.0  0.57966  0.12950  0.85031  1.0000
  H   H846      1.0  0.56406  0.07483  0.90688  1.0000
  H   H847      1.0  0.65082  0.22900  0.65964  1.0000
  H   H848      1.0  0.60589  0.00209  0.84922  1.0000
  H   H849      1.0  0.64182  0.13572  0.50498  1.0000
  C   C1046     1.0  0.55414  0.06872  0.59169  1.0000
  H   H850      1.0  0.60207  0.08825  0.71133  1.0000
  C   C1047     1.0  0.55716  0.20714  0.68158  1.0000
  C   C1048     1.0  0.55014  0.19427  0.69775  1.0000
  C   C1049     1.0  0.54448  0.19045  0.73561  1.0000
  C   C1050     1.0  0.54593  0.19944  0.75742  1.0000
  C   C1051     1.0  0.55336  0.21229  0.74163  1.0000
  C   C1052     1.0  0.55863  0.21616  0.70333  1.0000
  P   P35       1.0  0.55459  0.22405  0.76955  1.0000
  C   C1053     1.0  0.63302  0.20253  0.72755  1.0000
  C   C1054     1.0  0.55539  0.21694  0.81580  1.0000
  C   C1055     1.0  0.55188  0.22287  0.84465  1.0000
  C   C1056     1.0  0.55318  0.21782  0.88012  1.0000
  C   C1057     1.0  0.55810  0.20691  0.88692  1.0000
  C   C1058     1.0  0.56183  0.20111  0.85821  1.0000
  C   C1059     1.0  0.56057  0.20616  0.82274  1.0000
  C   C1060     1.0  0.54110  0.02103  0.64487  1.0000
  H   H851      1.0  0.59405  0.16958  0.76177  1.0000
  H   H852      1.0  0.64922  0.21919  0.95947  1.0000
  H   H853      1.0  0.56968  0.00672  0.69011  1.0000
  H   H854      1.0  0.62887  0.20009  0.75696  1.0000
  H   H855      1.0  0.65596  0.14282  0.73757  1.0000
  C   C1061     1.0  0.64465  0.18044  0.87810  1.0000
  H   H856      1.0  0.64800  0.21271  0.62188  1.0000
  C   C1062     1.0  0.65054  0.10695  0.64522  1.0000
  H   H857      1.0  0.63569  0.19005  0.65129  1.0000
  C   C1063     1.0  0.54034  0.24056  0.74177  1.0000
  H   H858      1.0  0.56154  0.21008  0.65221  1.0000
  H   H859      1.0  0.54918  0.18720  0.68109  1.0000
  H   H860      1.0  0.53914  0.18042  0.74809  1.0000
  H   H861      1.0  0.54134  0.19632  0.78663  1.0000
  H   H862      1.0  0.56393  0.22612  0.69021  1.0000
  C   C1064     1.0  0.64559  0.16947  0.70682  1.0000
  H   H863      1.0  0.50083  0.03772  0.95646  1.0000
  H   H864      1.0  0.55940  0.20318  0.91420  1.0000
  H   H865      1.0  0.56613  0.19297  0.86318  1.0000
  H   H866      1.0  0.56405  0.20191  0.80053  1.0000
  C   C1065     1.0  0.60095  0.09140  0.58774  1.0000
  C   C1066     1.0  0.50939  0.08389  0.62000  1.0000
  C   C1067     1.0  0.58205  0.01303  0.55244  1.0000
  H   H867      1.0  0.57354  0.02620  0.63901  1.0000
  S   S158      1.0  0.59696  0.00729  0.68803  1.0000
  H   H868      1.0  0.58098  0.22554  0.72841  1.0000
  C   C1068     1.0  0.59475  0.16351  0.65501  1.0000
  Fe  Fe79      1.0  0.65331  0.15997  0.57212  1.0000
  H   H869      1.0  0.55067  0.22252  0.90222  1.0000
  C   C1069     1.0  0.57677  0.05061  0.97046  1.0000
  C   C1070     1.0  0.58698  0.11600  0.77731  1.0000
  H   H870      1.0  0.60218  0.12333  0.51942  1.0000
  C   C1071     1.0  0.63731  0.14580  0.75973  1.0000
  H   H871      1.0  0.56773  0.10026  0.75342  1.0000
  S   S159      1.0  0.61594  0.22557  0.76703  1.0000
  H   H872      1.0  0.55284  0.02164  0.68464  1.0000
  Fe  Fe80      1.0  0.59559  0.21256  0.79112  1.0000
  C   C1072     1.0  0.65409  0.18284  0.84522  1.0000
  H   H873      1.0  0.58896  0.11193  0.83384  1.0000
  H   H874      1.0  0.56698  0.04934  0.66774  1.0000
  H   H875      1.0  0.59577  0.14415  0.67769  1.0000
  C   C1073     1.0  0.65513  0.16532  0.90826  1.0000
  C   C1074     1.0  0.59133  0.09801  0.59457  1.0000
  S   S160      1.0  0.54475  0.13757  0.55907  1.0000
  H   H876      1.0  0.58338  0.12276  0.72368  1.0000
  C   C1075     1.0  0.59176  0.10938  0.56946  1.0000
  C   C1076     1.0  0.58077  0.23498  0.73342  1.0000
  C   C1077     1.0  0.58582  0.11800  0.81315  1.0000
  H   H877      1.0  0.52811  0.11124  0.56865  1.0000
  H   H878      1.0  0.56687  0.22960  0.96977  1.0000
  Fe  Fe81      1.0  0.59877  0.03589  0.78175  1.0000
  H   H879      1.0  0.57456  0.07698  0.56427  1.0000
  C   C1078     1.0  0.58052  0.12798  0.82267  1.0000
  H   H880      1.0  0.66236  0.18104  0.74523  1.0000
  S   S161      1.0  0.58496  0.21362  0.92713  1.0000
  C   C1079     1.0  0.56475  0.02628  0.59220  1.0000
  H   H881      1.0  0.56639  0.07497  0.68006  1.0000
  C   C1080     1.0  0.50296  0.03364  0.87358  1.0000
  C   C1081     1.0  0.51427  0.03595  0.84591  1.0000
  C   C1082     1.0  0.52065  0.04862  0.82601  1.0000
  C   C1083     1.0  0.51572  0.05903  0.83344  1.0000
  C   C1084     1.0  0.50445  0.05681  0.86142  1.0000
  C   C1085     1.0  0.49802  0.04401  0.88114  1.0000
  P   P36       1.0  0.49781  0.06994  0.87249  1.0000
  C   C1086     1.0  0.49477  0.06707  0.92215  1.0000
  C   C1087     1.0  0.50848  0.08592  0.85006  1.0000
  C   C1088     1.0  0.51300  0.09473  0.87049  1.0000
  H   H882      1.0  0.52435  0.11392  0.86820  1.0000
  C   C1089     1.0  0.52402  0.11106  0.81387  1.0000
  C   C1090     1.0  0.51917  0.10255  0.79349  1.0000
  C   C1091     1.0  0.51140  0.09008  0.81145  1.0000
  C   C1092     1.0  0.48201  0.06284  0.94431  1.0000
  C   C1093     1.0  0.54231  0.05567  0.53107  1.0000
  C   C1094     1.0  0.58611  0.15713  0.49422  1.0000
  H   H883      1.0  0.65643  0.10876  0.56465  1.0000
  C   C1095     1.0  0.50529  0.06792  0.93911  1.0000
  C   C1096     1.0  0.48304  0.06961  0.85678  1.0000
  C   C1097     1.0  0.47871  0.06075  0.83638  1.0000
  C   C1098     1.0  0.46740  0.06091  0.82376  1.0000
  C   C1099     1.0  0.46040  0.06995  0.83105  1.0000
  C   C1100     1.0  0.46472  0.07889  0.85098  1.0000
  C   C1101     1.0  0.47603  0.07876  0.86369  1.0000
  H   H884      1.0  0.49786  0.02377  0.88867  1.0000
  H   H885      1.0  0.51794  0.02790  0.83924  1.0000
  H   H886      1.0  0.52929  0.05031  0.80416  1.0000
  H   H887      1.0  0.52063  0.06868  0.81683  1.0000
  H   H888      1.0  0.48913  0.04204  0.90229  1.0000
  C   C1102     1.0  0.52086  0.10718  0.85239  1.0000
  H   H889      1.0  0.60128  0.24304  0.70878  1.0000
  H   H890      1.0  0.53006  0.12074  0.79970  1.0000
  H   H891      1.0  0.52138  0.10567  0.76363  1.0000
  H   H892      1.0  0.50758  0.08368  0.79516  1.0000
  H   H893      1.0  0.47370  0.06146  0.93214  1.0000
  H   H894      1.0  0.56568  0.12576  0.53042  1.0000
  Fe  Fe82      1.0  0.49255  0.00038  0.78656  1.0000
  C   C1103     1.0  0.54029  0.23008  0.76994  1.0000
  H   H895      1.0  0.51518  0.07061  0.92253  1.0000
  H   H896      1.0  0.48408  0.05381  0.82951  1.0000
  H   H897      1.0  0.46416  0.05409  0.80784  1.0000
  H   H898      1.0  0.45170  0.07008  0.82089  1.0000
  H   H899      1.0  0.45937  0.08599  0.85629  1.0000
  H   H900      1.0  0.47937  0.08584  0.87876  1.0000
  H   H901      1.0  0.59710  0.00731  0.90736  1.0000
  C   C1104     1.0  0.60322  0.23219  0.94364  1.0000
  C   C1105     1.0  0.57220  0.06309  0.61489  1.0000
  H   H902      1.0  0.58378  0.09462  0.61992  1.0000
  Fe  Fe83      1.0  0.60985  0.23997  0.79779  1.0000
  C   C1106     1.0  0.55010  0.05308  0.65032  1.0000
  H   H903      1.0  0.61055  0.15096  0.71645  1.0000
  H   H904      1.0  0.57996  0.07598  0.79339  1.0000
  H   H905      1.0  0.58953  0.07511  0.67739  1.0000
  H   H906      1.0  0.65802  0.09320  0.67843  1.0000
  C   C1107     1.0  0.63393  0.11143  0.72387  1.0000
  C   C1108     1.0  0.63696  0.12394  0.70127  1.0000
  C   C1109     1.0  0.62707  0.13002  0.69623  1.0000
  C   C1110     1.0  0.61416  0.12371  0.71447  1.0000
  C   C1111     1.0  0.61105  0.11135  0.73851  1.0000
  C   C1112     1.0  0.62101  0.10505  0.74196  1.0000
  P   P37       1.0  0.59441  0.10356  0.76371  1.0000
  C   C1113     1.0  0.59438  0.09131  0.80358  1.0000
  C   C1114     1.0  0.58649  0.07860  0.81068  1.0000
  C   C1115     1.0  0.58727  0.06890  0.83961  1.0000
  C   C1116     1.0  0.59582  0.07179  0.86196  1.0000
  C   C1117     1.0  0.60358  0.08442  0.85551  1.0000
  C   C1118     1.0  0.60290  0.09415  0.82641  1.0000
  C   C1119     1.0  0.58593  0.09553  0.73438  1.0000
  C   C1120     1.0  0.59200  0.08836  0.71266  1.0000
  C   C1121     1.0  0.58494  0.08089  0.69330  1.0000
  C   C1122     1.0  0.57191  0.08076  0.69482  1.0000
  H   H907      1.0  0.64159  0.10654  0.72656  1.0000
  H   H908      1.0  0.64695  0.12878  0.68682  1.0000
  H   H909      1.0  0.62939  0.13956  0.67768  1.0000
  H   H910      1.0  0.61885  0.09519  0.75830  1.0000
  C   C1123     1.0  0.55254  0.01281  0.86304  1.0000
  H   H911      1.0  0.58449  0.11468  0.57556  1.0000
  C   C1124     1.0  0.60188  0.11427  0.53770  1.0000
  C   C1125     1.0  0.61254  0.17414  0.83848  1.0000
  H   H912      1.0  0.53500  0.05853  0.62693  1.0000
  C   C1126     1.0  0.61303  0.17467  0.77396  1.0000
  H   H913      1.0  0.55273  0.02494  0.55278  1.0000
  H   H914      1.0  0.52068  0.09105  0.65624  1.0000
  H   H915      1.0  0.52121  0.09933  0.52276  1.0000
  C   C1127     1.0  0.63899  0.10939  0.49851  1.0000
  C   C1128     1.0  0.61096  0.09612  0.55564  1.0000
  C   C1129     1.0  0.59899  0.15431  0.67745  1.0000
  C   C1130     1.0  0.54112  0.02205  0.60762  1.0000
  C   C1131     1.0  0.53957  0.12839  0.52763  1.0000
  C   C1132     1.0  0.61354  0.04965  0.92713  1.0000
  C   C1133     1.0  0.57211  0.99931  0.67677  1.0000
  C   C1134     1.0  0.62908  0.15412  0.75719  1.0000
  C   C1135     1.0  0.50960  0.07886  0.58872  1.0000
  C   C1136     1.0  0.58469  0.99759  0.67220  1.0000
  C   C1137     1.0  0.64379  0.20988  0.65136  1.0000
  C   C1138     1.0  0.55289  0.02457  0.58136  1.0000
  H   H916      1.0  0.53849  0.99803  0.76561  1.0000
  C   C1139     1.0  0.55972  0.09330  0.53444  1.0000
  C   C1140     1.0  0.60246  0.03920  0.93777  1.0000
  H   H917      1.0  0.60091  0.08289  0.60802  1.0000
  H   H918      1.0  0.61841  0.09093  0.55107  1.0000
  C   C1141     1.0  0.59232  0.24489  0.72223  1.0000
  C   C1142     1.0  0.51007  0.03834  0.96407  1.0000
  H   H919      1.0  0.60302  0.01984  0.53236  1.0000
  C   C1143     1.0  0.56461  0.02518  0.62966  1.0000
  P   P38       1.0  0.62227  0.17656  0.72759  1.0000
  C   C1144     1.0  0.65602  0.20249  0.95148  1.0000
  H   H920      1.0  0.56321  0.03555  0.95811  1.0000
  H   H921      1.0  0.59534  0.18371  0.63768  1.0000
  H   H922      1.0  0.58828  0.16046  0.63800  1.0000
  C   C1145     1.0  0.56703  0.11680  0.52358  1.0000
  C   C1146     1.0  0.60740  0.15824  0.69931  1.0000
  H   H923      1.0  0.63714  0.18569  0.87920  1.0000
  C   C1147     1.0  0.53275  0.08043  0.58146  1.0000
  C   C1148     1.0  0.52078  0.08705  0.63223  1.0000
  C   C1149     1.0  0.60919  0.23824  0.96782  1.0000
  H   H924      1.0  0.58185  0.16566  0.82617  1.0000
  H   H925      1.0  0.61763  0.17580  0.85978  1.0000
  H   H926      1.0  0.53201  0.01898  0.66544  1.0000
  H   H927      1.0  0.61946  0.15114  0.77555  1.0000
  C   C1150     1.0  0.58189  0.06395  0.96463  1.0000
  S   S162      1.0  0.63876  0.20988  0.82420  1.0000
  C   C1151     1.0  0.59878  0.17662  0.65474  1.0000
  H   H928      1.0  0.65087  0.23347  0.90080  1.0000
  H   H929      1.0  0.60938  0.19070  0.67807  1.0000
  C   C1152     1.0  0.55823  0.10499  0.54312  1.0000
  H   H930      1.0  0.65559  0.15859  0.93276  1.0000
  C   C1153     1.0  0.59936  0.17080  0.78289  1.0000
  H   H931      1.0  0.59328  0.05624  0.54918  1.0000
  C   C1154     1.0  0.63143  0.19321  0.70651  1.0000
  H   H932      1.0  0.54090  0.08703  0.62442  1.0000
  C   C1155     1.0  0.59457  0.01167  0.53869  1.0000
  H   H933      1.0  0.62139  0.05363  0.61428  1.0000
  C   C1156     1.0  0.65370  0.10752  0.53927  1.0000
  C   C1157     1.0  0.65667  0.24303  0.88555  1.0000
  C   C1158     1.0  0.60929  0.03538  0.61228  1.0000
  H   H934      1.0  0.58125  0.08297  0.93711  1.0000
  C   C1159     1.0  0.57726  0.07261  0.94158  1.0000
  C   C1160     1.0  0.56747  0.06791  0.92446  1.0000
  S   S163      1.0  0.62054  0.05642  0.96004  1.0000
  C   C1161     1.0  0.56923  0.23715  0.75203  1.0000
  C   C1162     1.0  0.54468  0.06926  0.52318  1.0000
  H   H935      1.0  0.59351  0.16884  0.87531  1.0000
  C   C1163     1.0  0.61957  0.17624  0.80209  1.0000
  C   C1164     1.0  0.56711  0.04589  0.95310  1.0000
  H   H936      1.0  0.54901  0.24521  0.71983  1.0000
  C   C1165     1.0  0.64509  0.17160  0.90950  1.0000
  H   H937      1.0  0.50077  0.07643  0.57920  1.0000
  H   H938      1.0  0.56910  0.05101  0.54036  1.0000
  C   C1166     1.0  0.61367  0.04890  0.60306  1.0000
  C   C1167     1.0  0.52124  0.07716  0.56940  1.0000
  C   C1168     1.0  0.64539  0.21905  0.67257  1.0000
  C   C1169     1.0  0.51779  0.23902  0.76924  1.0000
  C   C1170     1.0  0.61569  0.01539  0.96473  1.0000
  C   C1171     1.0  0.57131  0.00222  0.56034  1.0000
  H   H939      1.0  0.54266  0.05024  0.55775  1.0000
  C   C1172     1.0  0.57033  0.09365  0.50614  1.0000
  C   C1173     1.0  0.52877  0.22387  0.79715  1.0000
  H   H940      1.0  0.60023  0.16919  0.51467  1.0000
  C   C1174     1.0  0.65393  0.23402  0.78415  1.0000
  H   H941      1.0  0.58078  0.15124  0.52146  1.0000
  C   C1175     1.0  0.53231  0.08503  0.61362  1.0000
  H   H942      1.0  0.50042  0.08530  0.63489  1.0000
  C   C1176     1.0  0.65306  0.22269  0.81032  1.0000
  C   C1177     1.0  0.59704  0.16726  0.49043  1.0000
  C   C1178     1.0  0.57292  0.23944  0.96377  1.0000
  H   H943      1.0  0.66311  0.21287  0.84599  1.0000
  H   H944      1.0  0.64636  0.19595  0.96068  1.0000
  H   H945      1.0  0.50873  0.22359  0.81805  1.0000
  H   H946      1.0  0.65482  0.18872  0.49610  1.0000
  C   C1179     1.0  0.66112  0.24268  0.97697  1.0000
  C   C1180     1.0  0.51759  0.22839  0.79691  1.0000
  C   C1181     1.0  0.55973  0.00035  0.95925  1.0000
  H   H947      1.0  0.57606  0.24203  0.90488  1.0000
  H   H948      1.0  0.46541  0.03332  0.97371  1.0000
  H   H949      1.0  0.50911  0.24250  0.76902  1.0000
  H   H950      1.0  0.60400  0.09082  0.48898  1.0000
  C   C1182     1.0  0.46977  0.02519  0.97601  1.0000
  C   C1183     1.0  0.54351  0.13415  0.48949  1.0000
  H   H951      1.0  0.64445  0.24433  0.84702  1.0000
  C   C1184     1.0  0.52915  0.24507  0.74161  1.0000
  C   C1185     1.0  0.54355  0.07598  0.48893  1.0000
  H   H952      1.0  0.58940  0.06755  0.97817  1.0000
  C   C1186     1.0  0.60030  0.99849  0.90842  1.0000
  C   C1187     1.0  0.57814  0.24644  0.92716  1.0000
  C   C1188     1.0  0.50311  0.06504  0.97761  1.0000
  H   H953      1.0  0.64476  0.15928  0.48714  1.0000
  C   C1189     1.0  0.63609  0.13947  0.48729  1.0000
  H   H954      1.0  0.60599  0.99864  0.52320  1.0000
  C   C1190     1.0  0.62518  0.02490  0.97186  1.0000
  C   C1191     1.0  0.57913  0.10547  0.48670  1.0000
  H   H955      1.0  0.61711  0.24692  0.95679  1.0000
  C   C1192     1.0  0.48062  0.00402  0.98194  1.0000
  C   C1193     1.0  0.57926  0.00045  0.98235  1.0000
  H   H956      1.0  0.54745  0.01173  0.98108  1.0000
  C   C1194     1.0  0.55630  0.00857  0.98141  1.0000
  H   H957      1.0  0.55354  0.99715  0.94164  1.0000
  C   C1195     1.0  0.53374  0.03967  0.98445  1.0000
  Fe  Fe84      1.0  0.48629  0.48225  0.17603  1.0000
  H   H958      1.0  0.61772  0.42345  0.30588  1.0000
  Fe  Fe85      1.0  0.49909  0.46137  0.20812  1.0000
  S   S164      1.0  0.51738  0.46945  0.16351  1.0000
  S   S165      1.0  0.49694  0.44443  0.25633  1.0000
  H   H959      1.0  0.51506  0.29686  0.16559  1.0000
  Fe  Fe86      1.0  0.50436  0.47169  0.12445  1.0000
  H   H960      1.0  0.56532  0.45536  0.46961  1.0000
  S   S166      1.0  0.49766  0.48069  0.21974  1.0000
  S   S167      1.0  0.48605  0.46212  0.16837  1.0000
  Fe  Fe87      1.0  0.57586  0.42283  0.35452  1.0000
  S   S168      1.0  0.57050  0.40441  0.39821  1.0000
  S   S169      1.0  0.59576  0.43591  0.34493  1.0000
  Fe  Fe88      1.0  0.55227  0.41483  0.32339  1.0000
  S   S170      1.0  0.54519  0.39532  0.36452  1.0000
  S   S171      1.0  0.54608  0.42186  0.27071  1.0000
  Fe  Fe89      1.0  0.55028  0.40695  0.40581  1.0000
  H   H961      1.0  0.65582  0.29179  0.00836  1.0000
  Fe  Fe90      1.0  0.56619  0.39456  0.35358  1.0000
  S   S172      1.0  0.57662  0.37871  0.34918  1.0000
  S   S173      1.0  0.55599  0.42650  0.36525  1.0000
  S   S174      1.0  0.57281  0.41291  0.30952  1.0000
  H   H962      1.0  0.64529  0.48450  0.44629  1.0000
  C   C1196     1.0  0.60644  0.39449  0.36888  1.0000
  C   C1197     1.0  0.63536  0.42061  0.21418  1.0000
  H   H963      1.0  0.62520  0.49344  0.47105  1.0000
  H   H964      1.0  0.40819  0.39439  0.26458  1.0000
  H   H965      1.0  0.62957  0.45482  0.21220  1.0000
  C   C1198     1.0  0.64018  0.45874  0.33220  1.0000
  Fe  Fe91      1.0  0.61627  0.36252  0.09533  1.0000
  S   S175      1.0  0.60225  0.34413  0.13055  1.0000
  C   C1199     1.0  0.52507  0.46044  0.30111  1.0000
  Fe  Fe92      1.0  0.63008  0.36734  0.15647  1.0000
  S   S176      1.0  0.61738  0.34895  0.19682  1.0000
  S   S177      1.0  0.64274  0.38366  0.17328  1.0000
  Fe  Fe93      1.0  0.61976  0.33953  0.14836  1.0000
  S   S178      1.0  0.62566  0.32078  0.14323  1.0000
  Fe  Fe94      1.0  0.60091  0.35491  0.17566  1.0000
  S   S179      1.0  0.58135  0.35621  0.20625  1.0000
  S   S180      1.0  0.63403  0.35760  0.10994  1.0000
  S   S181      1.0  0.61339  0.37366  0.13853  1.0000
  H   H966      1.0  0.63679  0.41103  0.21423  1.0000
  C   C1200     1.0  0.64055  0.47534  0.46620  1.0000
  C   C1201     1.0  0.45379  0.44862  0.22643  1.0000
  H   H967      1.0  0.61049  0.25914  0.25011  1.0000
  H   H968      1.0  0.51888  0.32015  0.13519  1.0000
  C   C1202     1.0  0.46533  0.45560  0.27130  1.0000
  H   H969      1.0  0.48369  0.41372  0.21202  1.0000
  C   C1203     1.0  0.58113  0.40649  0.48113  1.0000
  H   H970      1.0  0.61070  0.34388  0.05397  1.0000
  C   C1204     1.0  0.60194  0.27798  0.17123  1.0000
  C   C1205     1.0  0.61402  0.28235  0.14571  1.0000
  C   C1206     1.0  0.62098  0.29550  0.13701  1.0000
  C   C1207     1.0  0.61597  0.30452  0.15353  1.0000
  C   C1208     1.0  0.60373  0.30028  0.17829  1.0000
  C   C1209     1.0  0.59676  0.28708  0.18704  1.0000
  H   H971      1.0  0.61814  0.27557  0.13319  1.0000
  H   H972      1.0  0.63039  0.29865  0.11768  1.0000
  H   H973      1.0  0.59972  0.30711  0.19120  1.0000
  P   P39       1.0  0.64339  0.41868  0.28060  1.0000
  C   C1210     1.0  0.57816  0.37287  0.30880  1.0000
  C   C1211     1.0  0.56963  0.37425  0.28576  1.0000
  C   C1212     1.0  0.57058  0.36883  0.25491  1.0000
  C   C1213     1.0  0.58038  0.36254  0.24587  1.0000
  C   C1214     1.0  0.58901  0.36127  0.26870  1.0000
  C   C1215     1.0  0.58778  0.36629  0.30038  1.0000
  H   H974      1.0  0.56209  0.37917  0.29228  1.0000
  H   H975      1.0  0.56368  0.36947  0.23806  1.0000
  H   H976      1.0  0.59649  0.35628  0.26223  1.0000
  H   H977      1.0  0.59434  0.36511  0.31831  1.0000
  H   H978      1.0  0.46344  0.42013  0.23196  1.0000
  C   C1216     1.0  0.63466  0.28626  0.20468  1.0000
  H   H979      1.0  0.58431  0.42551  0.44575  1.0000
  C   C1217     1.0  0.59688  0.45204  0.32432  1.0000
  C   C1218     1.0  0.60882  0.45973  0.30207  1.0000
  C   C1219     1.0  0.61052  0.47304  0.28911  1.0000
  C   C1220     1.0  0.60040  0.47878  0.29900  1.0000
  C   C1221     1.0  0.58817  0.47098  0.31946  1.0000
  C   C1222     1.0  0.58636  0.45752  0.33173  1.0000
  H   H980      1.0  0.61682  0.45544  0.29497  1.0000
  H   H981      1.0  0.61972  0.47882  0.27154  1.0000
  H   H982      1.0  0.58025  0.47536  0.32670  1.0000
  H   H983      1.0  0.57704  0.45150  0.34836  1.0000
  C   C1223     1.0  0.51058  0.43807  0.26032  1.0000
  C   C1224     1.0  0.52070  0.43973  0.22953  1.0000
  C   C1225     1.0  0.53144  0.43464  0.23331  1.0000
  C   C1226     1.0  0.53232  0.42806  0.26798  1.0000
  C   C1227     1.0  0.52219  0.42634  0.29886  1.0000
  C   C1228     1.0  0.51127  0.43117  0.29490  1.0000
  H   H984      1.0  0.52013  0.44471  0.20267  1.0000
  H   H985      1.0  0.53912  0.43579  0.20923  1.0000
  H   H986      1.0  0.52269  0.42116  0.32565  1.0000
  H   H987      1.0  0.50343  0.42973  0.31883  1.0000
  C   C1229     1.0  0.64395  0.28043  0.18849  1.0000
  H   H988      1.0  0.55668  0.45933  0.28758  1.0000
  C   C1230     1.0  0.48603  0.46638  0.05360  1.0000
  C   C1231     1.0  0.49944  0.46891  0.03926  1.0000
  H   H989      1.0  0.46718  0.46415  0.04079  1.0000
  C   C1232     1.0  0.58192  0.36197  0.05816  1.0000
  H   H990      1.0  0.50213  0.49532  0.29696  1.0000
  H   H991      1.0  0.48217  0.46412  0.08311  1.0000
  C   C1233     1.0  0.62829  0.45124  0.35543  1.0000
  C   C1234     1.0  0.56878  0.33963  0.07552  1.0000
  C   C1235     1.0  0.56551  0.34067  0.11226  1.0000
  C   C1236     1.0  0.57033  0.35228  0.12170  1.0000
  C   C1237     1.0  0.57863  0.36290  0.09475  1.0000
  H   H992      1.0  0.60644  0.42597  0.41226  1.0000
  H   H993      1.0  0.61042  0.26497  0.99120  1.0000
  C   C1238     1.0  0.54877  0.46639  0.12599  1.0000
  H   H994      1.0  0.43898  0.45860  0.21599  1.0000
  P   P40       1.0  0.56358  0.47596  0.21178  1.0000
  H   H995      1.0  0.55960  0.33239  0.13399  1.0000
  H   H996      1.0  0.56798  0.35290  0.15022  1.0000
  H   H997      1.0  0.58280  0.37168  0.10250  1.0000
  C   C1239     1.0  0.64119  0.26682  0.19584  1.0000
  C   C1240     1.0  0.59876  0.39609  0.47109  1.0000
  H   H998      1.0  0.61989  0.26973  0.04271  1.0000
  C   C1241     1.0  0.65917  0.25392  0.10578  1.0000
  H   H999      1.0  0.64784  0.37730  0.24944  1.0000
  C   C1242     1.0  0.45393  0.46114  0.14125  1.0000
  C   C1243     1.0  0.65780  0.29080  0.11016  1.0000
  H   H1000     1.0  0.61568  0.40716  0.42819  1.0000
  P   P41       1.0  0.65910  0.29011  0.15728  1.0000
  H   H1001     1.0  0.57551  0.49016  0.07554  1.0000
  C   C1244     1.0  0.62808  0.46769  0.39078  1.0000
  C   C1245     1.0  0.62224  0.45569  0.38465  1.0000
  S   S182      1.0  0.50378  0.49183  0.12892  1.0000
  C   C1246     1.0  0.61615  0.29968  0.00784  1.0000
  H   H1002     1.0  0.64092  0.27405  0.05930  1.0000
  C   C1247     1.0  0.64031  0.47486  0.36839  1.0000
  C   C1248     1.0  0.62833  0.46802  0.46506  1.0000
  C   C1249     1.0  0.65365  0.43078  0.29657  1.0000
  C   C1250     1.0  0.43634  0.41301  0.20450  1.0000
  C   C1251     1.0  0.54805  0.46184  0.28123  1.0000
  H   H1003     1.0  0.63731  0.34225  0.00300  1.0000
  H   H1004     1.0  0.54031  0.45972  0.12263  1.0000
  C   C1252     1.0  0.64630  0.47042  0.33909  1.0000
  C   C1253     1.0  0.62923  0.39784  0.33996  1.0000
  H   H1005     1.0  0.64920  0.41405  0.12316  1.0000
  P   P42       1.0  0.56343  0.32422  0.06422  1.0000
  H   H1006     1.0  0.48933  0.43698  0.10235  1.0000
  H   H1007     1.0  0.45975  0.47094  0.29394  1.0000
  C   C1254     1.0  0.60314  0.46732  0.44193  1.0000
  C   C1255     1.0  0.43861  0.44213  0.13604  1.0000
  S   S183      1.0  0.61948  0.25115  0.12056  1.0000
  C   C1256     1.0  0.62273  0.27857  0.22733  1.0000
  H   H1008     1.0  0.59988  0.29436  0.08741  1.0000
  C   C1257     1.0  0.59610  0.46570  0.41489  1.0000
  C   C1258     1.0  0.65790  0.39456  0.02284  1.0000
  H   H1009     1.0  0.64463  0.45560  0.30866  1.0000
  H   H1010     1.0  0.61293  0.44984  0.40197  1.0000
  P   P43       1.0  0.62063  0.47345  0.42890  1.0000
  C   C1259     1.0  0.65635  0.29157  0.03668  1.0000
  H   H1011     1.0  0.64812  0.26210  0.18325  1.0000
  H   H1012     1.0  0.57710  0.45996  0.40415  1.0000
  H   H1013     1.0  0.54348  0.46003  0.18503  1.0000
  H   H1014     1.0  0.64396  0.40205  0.05486  1.0000
  H   H1015     1.0  0.63925  0.25955  0.00368  1.0000
  C   C1260     1.0  0.46498  0.43263  0.17870  1.0000
  H   H1016     1.0  0.51590  0.45653  0.32156  1.0000
  C   C1261     1.0  0.62857  0.43907  0.18475  1.0000
  H   H1017     1.0  0.53232  0.28542  0.15188  1.0000
  Fe  Fe95      1.0  0.51505  0.48870  0.17208  1.0000
  C   C1262     1.0  0.48355  0.43313  0.13052  1.0000
  H   H1018     1.0  0.62504  0.44386  0.16246  1.0000
  C   C1263     1.0  0.63056  0.42671  0.18575  1.0000
  S   S184      1.0  0.60345  0.49571  0.28726  1.0000
  H   H1019     1.0  0.64194  0.27340  0.12350  1.0000
  C   C1264     1.0  0.61997  0.26504  0.23391  1.0000
  S   S185      1.0  0.61601  0.37197  0.03739  1.0000
  H   H1020     1.0  0.58228  0.32939  0.99392  1.0000
  S   S186      1.0  0.53773  0.40208  0.46413  1.0000
  H   H1021     1.0  0.53737  0.47927  0.21395  1.0000
  H   H1022     1.0  0.63155  0.47387  0.15666  1.0000
  H   H1023     1.0  0.58029  0.34975  0.02032  1.0000
  C   C1265     1.0  0.44735  0.44793  0.15482  1.0000
  C   C1266     1.0  0.61175  0.27462  0.99611  1.0000
  H   H1024     1.0  0.42514  0.39335  0.21200  1.0000
  S   S187      1.0  0.51020  0.46745  0.06853  1.0000
  C   C1267     1.0  0.58434  0.29686  0.06067  1.0000
  C   C1268     1.0  0.54986  0.32765  0.00845  1.0000
  H   H1025     1.0  0.54816  0.36277  0.41876  1.0000
  H   H1026     1.0  0.59744  0.38844  0.38771  1.0000
  H   H1027     1.0  0.64999  0.25513  0.10057  1.0000
  H   H1028     1.0  0.64548  0.42191  0.35481  1.0000
  C   C1269     1.0  0.61067  0.34738  0.02543  1.0000
  H   H1029     1.0  0.46929  0.44099  0.24390  1.0000
  H   H1030     1.0  0.60291  0.39510  0.02967  1.0000
  H   H1031     1.0  0.61792  0.30944  0.01213  1.0000
  H   H1032     1.0  0.65051  0.46647  0.13068  1.0000
  H   H1033     1.0  0.66136  0.37721  0.11754  1.0000
  C   C1270     1.0  0.56117  0.47558  0.16618  1.0000
  H   H1034     1.0  0.62354  0.44218  0.35008  1.0000
  C   C1271     1.0  0.63806  0.42680  0.24221  1.0000
  H   H1035     1.0  0.54113  0.32573  0.02998  1.0000
  C   C1272     1.0  0.44841  0.46550  0.25587  1.0000
  C   C1273     1.0  0.62824  0.48162  0.10359  1.0000
  C   C1274     1.0  0.56188  0.32724  0.01695  1.0000
  H   H1036     1.0  0.55319  0.29700  0.10827  1.0000
  C   C1275     1.0  0.62924  0.40968  0.31713  1.0000
  C   C1276     1.0  0.61795  0.41420  0.32219  1.0000
  H   H1037     1.0  0.62203  0.49181  0.36023  1.0000
  H   H1038     1.0  0.62831  0.42174  0.16468  1.0000
  C   C1277     1.0  0.57197  0.36756  0.46565  1.0000
  C   C1278     1.0  0.63573  0.43911  0.24141  1.0000
  C   C1279     1.0  0.61312  0.36071  0.01027  1.0000
  C   C1280     1.0  0.46321  0.44760  0.24703  1.0000
  C   C1281     1.0  0.47214  0.43691  0.14174  1.0000
  C   C1282     1.0  0.62927  0.25918  0.21849  1.0000
  C   C1283     1.0  0.54979  0.37885  0.19144  1.0000
  C   C1284     1.0  0.54220  0.38206  0.22067  1.0000
  C   C1285     1.0  0.54727  0.39291  0.23323  1.0000
  C   C1286     1.0  0.55984  0.40065  0.21627  1.0000
  C   C1287     1.0  0.56738  0.39776  0.18608  1.0000
  C   C1288     1.0  0.56243  0.38652  0.17461  1.0000
  P   P44       1.0  0.58367  0.40783  0.16491  1.0000
  C   C1289     1.0  0.58382  0.42484  0.15491  1.0000
  C   C1290     1.0  0.59308  0.40454  0.19845  1.0000
  C   C1291     1.0  0.59441  0.41226  0.22394  1.0000
  C   C1292     1.0  0.60114  0.40937  0.25113  1.0000
  C   C1293     1.0  0.60669  0.39881  0.25290  1.0000
  C   C1294     1.0  0.60549  0.39115  0.22747  1.0000
  C   C1295     1.0  0.59830  0.39370  0.20122  1.0000
  C   C1296     1.0  0.59570  0.43428  0.14707  1.0000
  C   C1297     1.0  0.59599  0.44749  0.14008  1.0000
  C   C1298     1.0  0.58444  0.45136  0.14056  1.0000
  C   C1299     1.0  0.57261  0.44203  0.14770  1.0000
  C   C1300     1.0  0.57229  0.42882  0.15459  1.0000
  C   C1301     1.0  0.59017  0.40456  0.12110  1.0000
  C   C1302     1.0  0.58239  0.40342  0.09555  1.0000
  C   C1303     1.0  0.58699  0.40011  0.06254  1.0000
  C   C1304     1.0  0.59947  0.39813  0.05456  1.0000
  C   C1305     1.0  0.60748  0.39983  0.07902  1.0000
  C   C1306     1.0  0.60296  0.40326  0.11185  1.0000
  H   H1039     1.0  0.54607  0.37013  0.18275  1.0000
  H   H1040     1.0  0.53251  0.37599  0.23424  1.0000
  H   H1041     1.0  0.54151  0.39528  0.25642  1.0000
  H   H1042     1.0  0.56365  0.40890  0.22685  1.0000
  H   H1043     1.0  0.56838  0.38340  0.15357  1.0000
  H   H1044     1.0  0.58987  0.42024  0.22377  1.0000
  H   H1045     1.0  0.60171  0.41511  0.27142  1.0000
  H   H1046     1.0  0.61157  0.39631  0.27461  1.0000
  H   H1047     1.0  0.60962  0.38283  0.22910  1.0000
  H   H1048     1.0  0.59659  0.38702  0.18375  1.0000
  H   H1049     1.0  0.60468  0.43137  0.14679  1.0000
  H   H1050     1.0  0.60514  0.45473  0.13472  1.0000
  H   H1051     1.0  0.58459  0.46157  0.13585  1.0000
  H   H1052     1.0  0.56363  0.44502  0.14844  1.0000
  H   H1053     1.0  0.56300  0.42180  0.15994  1.0000
  H   H1054     1.0  0.57264  0.40477  0.10159  1.0000
  H   H1055     1.0  0.58080  0.39882  0.04350  1.0000
  C   C1307     1.0  0.43645  0.44948  0.10432  1.0000
  H   H1056     1.0  0.47289  0.45496  0.28619  1.0000
  H   H1057     1.0  0.60942  0.40459  0.13014  1.0000
  H   H1058     1.0  0.63632  0.29672  0.19897  1.0000
  C   C1308     1.0  0.53633  0.45718  0.30819  1.0000
  C   C1309     1.0  0.57711  0.35037  0.04854  1.0000
  H   H1059     1.0  0.43357  0.43195  0.14548  1.0000
  H   H1060     1.0  0.47227  0.49401  0.02610  1.0000
  C   C1310     1.0  0.57558  0.30439  0.05414  1.0000
  H   H1061     1.0  0.46087  0.46581  0.15485  1.0000
  C   C1311     1.0  0.45170  0.46846  0.10973  1.0000
  H   H1062     1.0  0.58503  0.32705  0.10139  1.0000
  C   C1312     1.0  0.41722  0.41419  0.26367  1.0000
  C   C1313     1.0  0.60657  0.40653  0.34764  1.0000
  H   H1063     1.0  0.62387  0.29205  0.05329  1.0000
  H   H1064     1.0  0.42819  0.43376  0.25664  1.0000
  H   H1065     1.0  0.51672  0.47074  0.26144  1.0000
  H   H1066     1.0  0.60261  0.38766  0.47623  1.0000
  H   H1067     1.0  0.60069  0.31424  0.11094  1.0000
  C   C1314     1.0  0.64693  0.39943  0.02903  1.0000
  H   H1068     1.0  0.61706  0.39806  0.07305  1.0000
  H   H1069     1.0  0.58863  0.37007  0.03740  1.0000
  C   C1315     1.0  0.59362  0.31138  0.09537  1.0000
  C   C1316     1.0  0.57511  0.46650  0.21934  1.0000
  H   H1070     1.0  0.53593  0.45082  0.33433  1.0000
  C   C1317     1.0  0.46895  0.42381  0.20353  1.0000
  C   C1318     1.0  0.64358  0.47992  0.05031  1.0000
  C   C1319     1.0  0.52422  0.30201  0.14607  1.0000
  C   C1320     1.0  0.57086  0.45290  0.22914  1.0000
  C   C1321     1.0  0.57956  0.44541  0.23599  1.0000
  C   C1322     1.0  0.59267  0.45142  0.23218  1.0000
  C   C1323     1.0  0.59710  0.46495  0.22078  1.0000
  C   C1324     1.0  0.58837  0.47250  0.21435  1.0000
  C   C1325     1.0  0.65928  0.39091  0.15103  1.0000
  C   C1326     1.0  0.64858  0.28125  0.10192  1.0000
  H   H1071     1.0  0.49674  0.42214  0.14737  1.0000
  C   C1327     1.0  0.59327  0.30030  0.08161  1.0000
  C   C1328     1.0  0.48773  0.42481  0.15585  1.0000
  C   C1329     1.0  0.42586  0.40219  0.22166  1.0000
  C   C1330     1.0  0.45795  0.46456  0.27567  1.0000
  H   H1072     1.0  0.61988  0.48484  0.11517  1.0000
  C   C1331     1.0  0.65031  0.47383  0.07362  1.0000
  H   H1073     1.0  0.62715  0.24870  0.22328  1.0000
  H   H1074     1.0  0.56074  0.44808  0.23218  1.0000
  H   H1075     1.0  0.57601  0.43493  0.24474  1.0000
  H   H1076     1.0  0.59932  0.44560  0.23860  1.0000
  H   H1077     1.0  0.60724  0.46965  0.21810  1.0000
  H   H1078     1.0  0.59197  0.48297  0.20613  1.0000
  H   H1079     1.0  0.61537  0.28312  0.23849  1.0000
  H   H1080     1.0  0.44362  0.41241  0.18147  1.0000
  C   C1332     1.0  0.55054  0.46665  0.16141  1.0000
  C   C1333     1.0  0.53823  0.32179  0.10397  1.0000
  H   H1081     1.0  0.63090  0.40391  0.00761  1.0000
  H   H1082     1.0  0.64665  0.48156  0.02066  1.0000
  C   C1334     1.0  0.44298  0.46263  0.09119  1.0000
  C   C1335     1.0  0.53719  0.47305  0.24007  1.0000
  H   H1083     1.0  0.44142  0.46827  0.06637  1.0000
  H   H1084     1.0  0.58416  0.28828  0.04995  1.0000
  C   C1336     1.0  0.65644  0.31545  0.14708  1.0000
  C   C1337     1.0  0.41631  0.40278  0.25126  1.0000
  H   H1085     1.0  0.63549  0.39260  0.26769  1.0000
  C   C1338     1.0  0.57585  0.45885  0.46186  1.0000
  C   C1339     1.0  0.48037  0.42005  0.19225  1.0000
  P   P45       1.0  0.45089  0.43844  0.19448  1.0000
  C   C1340     1.0  0.44630  0.45756  0.23145  1.0000
  H   H1086     1.0  0.58741  0.28386  0.20667  1.0000
  C   C1341     1.0  0.66064  0.43927  0.34640  1.0000
  C   C1342     1.0  0.54802  0.31536  0.09581  1.0000
  C   C1343     1.0  0.52637  0.31512  0.12892  1.0000
  C   C1344     1.0  0.53393  0.29556  0.13829  1.0000
  C   C1345     1.0  0.65297  0.38660  0.25267  1.0000
  H   H1087     1.0  0.42980  0.44496  0.08965  1.0000
  H   H1088     1.0  0.63716  0.42326  0.07969  1.0000
  H   H1089     1.0  0.40982  0.41465  0.28662  1.0000
  H   H1090     1.0  0.52209  0.44904  0.01819  1.0000
  C   C1346     1.0  0.42769  0.42503  0.24656  1.0000
  C   C1347     1.0  0.63261  0.48383  0.06531  1.0000
  C   C1348     1.0  0.63963  0.40053  0.00239  1.0000
  S   S188      1.0  0.59322  0.26127  0.18487  1.0000
  C   C1349     1.0  0.57563  0.31531  0.06897  1.0000
  H   H1091     1.0  0.63745  0.44403  0.26296  1.0000
  C   C1350     1.0  0.54849  0.46958  0.24661  1.0000
  H   H1092     1.0  0.59769  0.40975  0.35031  1.0000
  C   C1351     1.0  0.61782  0.39023  0.36549  1.0000
  C   C1352     1.0  0.61736  0.27739  0.02492  1.0000
  C   C1353     1.0  0.58474  0.31874  0.08955  1.0000
  H   H1093     1.0  0.45687  0.47863  0.09957  1.0000
  C   C1354     1.0  0.64790  0.28162  0.06535  1.0000
  C   C1355     1.0  0.63112  0.44525  0.21266  1.0000
  H   H1094     1.0  0.44290  0.47268  0.25867  1.0000
  H   H1095     1.0  0.46927  0.44352  0.12166  1.0000
  H   H1096     1.0  0.66039  0.40603  0.18059  1.0000
  C   C1356     1.0  0.54579  0.30219  0.11332  1.0000
  H   H1097     1.0  0.60107  0.46783  0.38599  1.0000
  C   C1357     1.0  0.62374  0.49089  0.41656  1.0000
  C   C1358     1.0  0.43736  0.42451  0.21691  1.0000
  H   H1098     1.0  0.51470  0.47427  0.98959  1.0000
  C   C1359     1.0  0.61956  0.28991  0.03084  1.0000
  H   H1099     1.0  0.61769  0.38086  0.38198  1.0000
  H   H1100     1.0  0.64733  0.36561  0.99127  1.0000
  C   C1360     1.0  0.52551  0.46841  0.26713  1.0000
  H   H1101     1.0  0.56859  0.30153  0.03834  1.0000
  C   C1361     1.0  0.47756  0.46645  0.02963  1.0000
  C   C1362     1.0  0.57294  0.32972  0.98804  1.0000
  C   C1363     1.0  0.60829  0.33851  0.00348  1.0000
  H   H1102     1.0  0.53981  0.33199  0.09121  1.0000
  H   H1103     1.0  0.56968  0.35863  0.42032  1.0000
  H   H1104     1.0  0.55616  0.47488  0.06770  1.0000
  C   C1364     1.0  0.58852  0.41747  0.45367  1.0000
  H   H1105     1.0  0.63790  0.39429  0.33749  1.0000
  C   C1365     1.0  0.58251  0.46136  0.42496  1.0000
  H   H1106     1.0  0.64990  0.31275  0.12984  1.0000
  C   C1366     1.0  0.66154  0.39073  0.99009  1.0000
  H   H1107     1.0  0.55898  0.42422  0.46043  1.0000
  H   H1108     1.0  0.64514  0.48397  0.37328  1.0000
  H   H1109     1.0  0.60640  0.32822  0.01535  1.0000
  C   C1367     1.0  0.55772  0.47490  0.09505  1.0000
  H   H1110     1.0  0.52244  0.49388  0.02731  1.0000
  H   H1111     1.0  0.53743  0.46977  0.01562  1.0000
  C   C1368     1.0  0.64601  0.39538  0.26272  1.0000
  C   C1369     1.0  0.50435  0.47207  0.00089  1.0000
  H   H1112     1.0  0.62752  0.48863  0.04721  1.0000
  H   H1113     1.0  0.58165  0.36623  0.46470  1.0000
  C   C1370     1.0  0.53721  0.46640  0.99056  1.0000
  C   C1371     1.0  0.56859  0.48352  0.09950  1.0000
  C   C1372     1.0  0.65258  0.40762  0.26588  1.0000
  H   H1114     1.0  0.53318  0.48796  0.07744  1.0000
  H   H1115     1.0  0.64359  0.44684  0.05043  1.0000
  C   C1373     1.0  0.60616  0.40709  0.44367  1.0000
  C   C1374     1.0  0.64563  0.47137  0.11208  1.0000
  H   H1116     1.0  0.57694  0.48720  0.26292  1.0000
  H   H1117     1.0  0.47661  0.49359  0.24330  1.0000
  H   H1118     1.0  0.57885  0.49050  0.13798  1.0000
  C   C1375     1.0  0.60100  0.41773  0.43477  1.0000
  C   C1376     1.0  0.64519  0.25267  0.00582  1.0000
  H   H1119     1.0  0.65555  0.47621  0.32115  1.0000
  C   C1377     1.0  0.55309  0.36563  0.43941  1.0000
  C   C1378     1.0  0.56525  0.36328  0.44036  1.0000
  C   C1379     1.0  0.64894  0.44289  0.06925  1.0000
  H   H1120     1.0  0.65370  0.33477  0.14033  1.0000
  C   C1380     1.0  0.65255  0.42986  0.33446  1.0000
  S   S189      1.0  0.65235  0.47717  0.20995  1.0000
  H   H1121     1.0  0.53833  0.37435  0.46254  1.0000
  C   C1381     1.0  0.63476  0.47540  0.12695  1.0000
  C   C1382     1.0  0.57040  0.48375  0.13491  1.0000
  C   C1383     1.0  0.54756  0.37213  0.46406  1.0000
  H   H1122     1.0  0.58627  0.26148  0.00750  1.0000
  S   S190      1.0  0.46866  0.49043  0.17563  1.0000
  C   C1384     1.0  0.48250  0.46959  0.99122  1.0000
  H   H1123     1.0  0.66107  0.45773  0.17748  1.0000
  C   C1385     1.0  0.56900  0.49244  0.21556  1.0000
  C   C1386     1.0  0.65860  0.32798  0.15296  1.0000
  C   C1387     1.0  0.59634  0.46538  0.47868  1.0000
  H   H1124     1.0  0.65972  0.43858  0.37565  1.0000
  C   C1388     1.0  0.52854  0.45467  0.99200  1.0000
  C   C1389     1.0  0.65204  0.42438  0.11029  1.0000
  C   C1390     1.0  0.66234  0.30641  0.16413  1.0000
  C   C1391     1.0  0.64525  0.42957  0.08582  1.0000
  C   C1392     1.0  0.57514  0.49501  0.24376  1.0000
  S   S191      1.0  0.63991  0.49573  0.28513  1.0000
  C   C1393     1.0  0.65965  0.45103  0.07647  1.0000
  C   C1394     1.0  0.66243  0.43253  0.11840  1.0000
  Fe  Fe96      1.0  0.64866  0.49544  0.22662  1.0000
  H   H1125     1.0  0.65408  0.49608  0.14413  1.0000
  C   C1395     1.0  0.66296  0.44120  0.27089  1.0000
  H   H1126     1.0  0.66323  0.27519  0.22509  1.0000
  Fe  Fe97      1.0  0.47950  0.47974  0.90120  1.0000
  S   S192      1.0  0.47199  0.47226  0.85572  1.0000
  C   C1396     1.0  0.64018  0.34207  0.94545  1.0000
  H   H1127     1.0  0.65743  0.43505  0.74694  1.0000
  C   C1397     1.0  0.46681  0.48710  0.65428  1.0000
  C   C1398     1.0  0.50160  0.45764  0.67496  1.0000
  C   C1399     1.0  0.49822  0.48586  0.67784  1.0000
  Fe  Fe98      1.0  0.49291  0.47934  0.82307  1.0000
  S   S193      1.0  0.50764  0.47163  0.78891  1.0000
  S   S194      1.0  0.50036  0.48507  0.87049  1.0000
  Fe  Fe99      1.0  0.55443  0.42696  0.71995  1.0000
  S   S195      1.0  0.53872  0.41042  0.75808  1.0000
  S   S196      1.0  0.56702  0.44217  0.73975  1.0000
  Fe  Fe100     1.0  0.54844  0.41988  0.64977  1.0000
  S   S197      1.0  0.53180  0.40289  0.68223  1.0000
  S   S198      1.0  0.55698  0.42789  0.58800  1.0000
  Fe  Fe101     1.0  0.52663  0.41614  0.71874  1.0000
  S   S199      1.0  0.50658  0.41893  0.73917  1.0000
  Fe  Fe102     1.0  0.54541  0.39868  0.71884  1.0000
  S   S200      1.0  0.54881  0.37862  0.73458  1.0000
  S   S201      1.0  0.54202  0.43342  0.68299  1.0000
  S   S202      1.0  0.56230  0.41480  0.68412  1.0000
  C   C1400     1.0  0.57209  0.33289  0.95129  1.0000
  H   H1128     1.0  0.63114  0.26556  0.85117  1.0000
  C   C1401     1.0  0.57039  0.48592  0.66036  1.0000
  C   C1402     1.0  0.64681  0.47091  0.49318  1.0000
  C   C1403     1.0  0.66025  0.26150  0.83428  1.0000
  C   C1404     1.0  0.58987  0.26430  0.94799  1.0000
  S   S203      1.0  0.61924  0.26148  0.77176  1.0000
  H   H1129     1.0  0.64465  0.43141  0.82157  1.0000
  Fe  Fe103     1.0  0.60714  0.35756  0.80942  1.0000
  S   S204      1.0  0.62047  0.35009  0.77030  1.0000
  S   S205      1.0  0.59968  0.37542  0.79315  1.0000
  Fe  Fe104     1.0  0.61036  0.33948  0.87767  1.0000
  S   S206      1.0  0.62367  0.33059  0.84403  1.0000
  S   S207      1.0  0.60575  0.33154  0.93933  1.0000
  Fe  Fe105     1.0  0.63317  0.35108  0.81114  1.0000
  H   H1130     1.0  0.58128  0.26861  0.75493  1.0000
  Fe  Fe106     1.0  0.60980  0.33016  0.80698  1.0000
  S   S208      1.0  0.60010  0.31200  0.79045  1.0000
  S   S209      1.0  0.62071  0.35991  0.84739  1.0000
  S   S210      1.0  0.59562  0.33775  0.84331  1.0000
  C   C1405     1.0  0.60708  0.46647  0.76917  1.0000
  H   H1131     1.0  0.57398  0.35280  0.53179  1.0000
  C   C1406     1.0  0.65462  0.46416  0.78658  1.0000
  C   C1407     1.0  0.48332  0.45153  0.64787  1.0000
  C   C1408     1.0  0.65896  0.44441  0.83808  1.0000
  C   C1409     1.0  0.57253  0.30610  0.91338  1.0000
  H   H1132     1.0  0.61080  0.35971  0.92257  1.0000
  H   H1133     1.0  0.60829  0.37227  0.58985  1.0000
  C   C1410     1.0  0.61399  0.27518  0.78141  1.0000
  C   C1411     1.0  0.60123  0.27419  0.79997  1.0000
  C   C1412     1.0  0.59717  0.28553  0.80343  1.0000
  C   C1413     1.0  0.60597  0.29790  0.79000  1.0000
  C   C1414     1.0  0.61884  0.29882  0.77276  1.0000
  C   C1415     1.0  0.62275  0.28753  0.76790  1.0000
  H   H1134     1.0  0.59438  0.26475  0.81033  1.0000
  H   H1135     1.0  0.58713  0.28473  0.81625  1.0000
  H   H1136     1.0  0.62565  0.30826  0.76166  1.0000
  C   C1416     1.0  0.63489  0.39360  0.85269  1.0000
  H   H1137     1.0  0.50210  0.42997  0.64564  1.0000
  H   H1138     1.0  0.59124  0.42995  0.51368  1.0000
  H   H1139     1.0  0.58430  0.43718  0.57030  1.0000
  H   H1140     1.0  0.61281  0.26219  0.90425  1.0000
  C   C1417     1.0  0.50114  0.48771  0.71118  1.0000
  H   H1141     1.0  0.66166  0.41805  0.80654  1.0000
  C   C1418     1.0  0.56227  0.37726  0.75391  1.0000
  C   C1419     1.0  0.56945  0.38785  0.76355  1.0000
  C   C1420     1.0  0.58066  0.38696  0.77646  1.0000
  C   C1421     1.0  0.58483  0.37547  0.77996  1.0000
  C   C1422     1.0  0.57738  0.36467  0.77169  1.0000
  C   C1423     1.0  0.56610  0.36556  0.75879  1.0000
  H   H1142     1.0  0.56640  0.39679  0.76058  1.0000
  H   H1143     1.0  0.58621  0.39529  0.78338  1.0000
  H   H1144     1.0  0.58044  0.35573  0.77447  1.0000
  H   H1145     1.0  0.56051  0.35727  0.75174  1.0000
  C   C1424     1.0  0.57794  0.45221  0.69966  1.0000
  C   C1425     1.0  0.58758  0.46250  0.70105  1.0000
  C   C1426     1.0  0.59680  0.46996  0.66896  1.0000
  C   C1427     1.0  0.59709  0.46818  0.63088  1.0000
  C   C1428     1.0  0.58618  0.45685  0.63389  1.0000
  C   C1429     1.0  0.57727  0.44951  0.66619  1.0000
  H   H1146     1.0  0.58799  0.46471  0.72741  1.0000
  H   H1147     1.0  0.60364  0.47744  0.67565  1.0000
  H   H1148     1.0  0.58385  0.45305  0.61092  1.0000
  H   H1149     1.0  0.56966  0.44161  0.66464  1.0000
  C   C1430     1.0  0.53677  0.40400  0.53565  1.0000
  C   C1431     1.0  0.54089  0.40953  0.56352  1.0000
  C   C1432     1.0  0.55156  0.42036  0.55424  1.0000
  H   H1150     1.0  0.56586  0.31196  0.90770  1.0000
  H   H1151     1.0  0.52848  0.39564  0.54302  1.0000
  H   H1152     1.0  0.53575  0.40544  0.59211  1.0000
  H   H1153     1.0  0.65343  0.47195  0.76617  1.0000
  C   C1433     1.0  0.50665  0.45640  0.77834  1.0000
  C   C1434     1.0  0.49485  0.44805  0.77852  1.0000
  C   C1435     1.0  0.49483  0.43643  0.76699  1.0000
  C   C1436     1.0  0.50657  0.43308  0.75574  1.0000
  C   C1437     1.0  0.51829  0.44132  0.75659  1.0000
  C   C1438     1.0  0.51833  0.45298  0.76741  1.0000
  H   H1154     1.0  0.48583  0.45066  0.78688  1.0000
  H   H1155     1.0  0.48573  0.43010  0.76635  1.0000
  H   H1156     1.0  0.52735  0.43875  0.74866  1.0000
  H   H1157     1.0  0.52748  0.45938  0.76740  1.0000
  H   H1158     1.0  0.49481  0.48208  0.73738  1.0000
  H   H1159     1.0  0.60156  0.46741  0.49944  1.0000
  H   H1160     1.0  0.62441  0.44249  0.53768  1.0000
  H   H1161     1.0  0.63717  0.39714  0.95003  1.0000
  C   C1439     1.0  0.56113  0.47658  0.61508  1.0000
  C   C1440     1.0  0.57279  0.30091  0.94975  1.0000
  H   H1162     1.0  0.62506  0.40717  0.69314  1.0000
  C   C1441     1.0  0.65429  0.39187  0.96309  1.0000
  C   C1442     1.0  0.64597  0.44637  0.72028  1.0000
  C   C1443     1.0  0.48981  0.44155  0.88526  1.0000
  C   C1444     1.0  0.49850  0.43610  0.86515  1.0000
  C   C1445     1.0  0.51174  0.43950  0.86486  1.0000
  C   C1446     1.0  0.51637  0.44825  0.88524  1.0000
  C   C1447     1.0  0.50757  0.45379  0.90501  1.0000
  P   P46       1.0  0.53360  0.45335  0.88317  1.0000
  C   C1448     1.0  0.54326  0.40925  0.49834  1.0000
  C   C1449     1.0  0.54080  0.44003  0.87754  1.0000
  C   C1450     1.0  0.54262  0.43164  0.90810  1.0000
  C   C1451     1.0  0.54780  0.42111  0.90339  1.0000
  C   C1452     1.0  0.55117  0.41887  0.86822  1.0000
  C   C1453     1.0  0.54943  0.42719  0.83772  1.0000
  C   C1454     1.0  0.54429  0.43773  0.84226  1.0000
  H   H1163     1.0  0.59595  0.29444  0.86816  1.0000
  C   C1455     1.0  0.64735  0.45130  0.79189  1.0000
  C   C1456     1.0  0.63804  0.48799  0.81579  1.0000
  H   H1164     1.0  0.61842  0.30366  0.88673  1.0000
  H   H1165     1.0  0.64574  0.45592  0.54055  1.0000
  C   C1457     1.0  0.54119  0.46691  0.84390  1.0000
  C   C1458     1.0  0.53367  0.47452  0.82866  1.0000
  C   C1459     1.0  0.53942  0.48490  0.79801  1.0000
  C   C1460     1.0  0.58623  0.39580  0.49035  1.0000
  C   C1461     1.0  0.56045  0.48062  0.79811  1.0000
  C   C1462     1.0  0.55466  0.47002  0.82848  1.0000
  H   H1166     1.0  0.47960  0.43910  0.88490  1.0000
  H   H1167     1.0  0.49504  0.42948  0.84894  1.0000
  H   H1168     1.0  0.51827  0.43544  0.84811  1.0000
  C   C1463     1.0  0.66007  0.40476  0.85800  1.0000
  H   H1169     1.0  0.53996  0.43308  0.93560  1.0000
  H   H1170     1.0  0.54904  0.41458  0.92708  1.0000
  H   H1171     1.0  0.55502  0.41063  0.86455  1.0000
  H   H1172     1.0  0.55193  0.42540  0.81047  1.0000
  H   H1173     1.0  0.54284  0.44392  0.81818  1.0000
  C   C1464     1.0  0.65586  0.43984  0.72102  1.0000
  C   C1465     1.0  0.60835  0.49021  0.61290  1.0000
  H   H1174     1.0  0.54513  0.38517  0.65409  1.0000
  H   H1175     1.0  0.52331  0.47242  0.84009  1.0000
  C   C1466     1.0  0.60777  0.41468  0.56851  1.0000
  C   C1467     1.0  0.61087  0.35625  0.95107  1.0000
  H   H1176     1.0  0.65520  0.42763  0.57024  1.0000
  H   H1177     1.0  0.56064  0.46426  0.83989  1.0000
  C   C1468     1.0  0.64094  0.45916  0.51926  1.0000
  H   H1178     1.0  0.64751  0.37889  0.75858  1.0000
  C   C1469     1.0  0.62895  0.45162  0.51767  1.0000
  P   P47       1.0  0.58451  0.49588  0.58732  1.0000
  C   C1470     1.0  0.61886  0.48018  0.61763  1.0000
  C   C1471     1.0  0.61727  0.46691  0.59892  1.0000
  C   C1472     1.0  0.60566  0.46372  0.57446  1.0000
  P   P48       1.0  0.65865  0.38615  0.92195  1.0000
  H   H1179     1.0  0.57811  0.49237  0.66753  1.0000
  H   H1180     1.0  0.53973  0.33106  0.96515  1.0000
  C   C1473     1.0  0.60856  0.34293  0.96614  1.0000
  H   H1181     1.0  0.56629  0.30276  0.97235  1.0000
  H   H1182     1.0  0.62637  0.48219  0.63243  1.0000
  H   H1183     1.0  0.62400  0.46090  0.60108  1.0000
  H   H1184     1.0  0.60512  0.45575  0.56129  1.0000
  H   H1185     1.0  0.54373  0.46089  0.63699  1.0000
  H   H1186     1.0  0.56162  0.47562  0.58704  1.0000
  C   C1474     1.0  0.64856  0.42308  0.59695  1.0000
  H   H1187     1.0  0.64323  0.47406  0.71717  1.0000
  H   H1188     1.0  0.64389  0.34501  0.88630  1.0000
  H   H1189     1.0  0.47096  0.44662  0.72240  1.0000
  C   C1475     1.0  0.62648  0.41527  0.63535  1.0000
  C   C1476     1.0  0.63513  0.42134  0.60088  1.0000
  P   P49       1.0  0.60907  0.41289  0.64180  1.0000
  C   C1477     1.0  0.60446  0.42154  0.67616  1.0000
  S   S211      1.0  0.65228  0.49008  0.55614  1.0000
  H   H1190     1.0  0.57751  0.45899  0.51728  1.0000
  C   C1478     1.0  0.60775  0.28418  0.97402  1.0000
  H   H1191     1.0  0.62606  0.42521  0.73284  1.0000
  H   H1192     1.0  0.53332  0.49036  0.78602  1.0000
  H   H1193     1.0  0.61716  0.48085  0.83040  1.0000
  C   C1479     1.0  0.59391  0.41564  0.70656  1.0000
  C   C1480     1.0  0.59038  0.42248  0.73286  1.0000
  C   C1481     1.0  0.59736  0.43523  0.72895  1.0000
  C   C1482     1.0  0.60781  0.44126  0.69851  1.0000
  C   C1483     1.0  0.61141  0.43441  0.67224  1.0000
  C   C1484     1.0  0.60044  0.39586  0.65600  1.0000
  C   C1485     1.0  0.58719  0.39223  0.65581  1.0000
  C   C1486     1.0  0.58031  0.37916  0.66631  1.0000
  C   C1487     1.0  0.58657  0.36958  0.67719  1.0000
  C   C1488     1.0  0.59973  0.37306  0.67752  1.0000
  C   C1489     1.0  0.60669  0.38613  0.66671  1.0000
  H   H1194     1.0  0.63076  0.49021  0.70542  1.0000
  C   C1490     1.0  0.60796  0.40681  0.81647  1.0000
  H   H1195     1.0  0.61380  0.40788  0.56821  1.0000
  H   H1196     1.0  0.64346  0.28785  0.81622  1.0000
  H   H1197     1.0  0.63163  0.42481  0.57703  1.0000
  S   S212      1.0  0.66098  0.48826  0.64971  1.0000
  H   H1198     1.0  0.62525  0.38909  0.85017  1.0000
  C   C1491     1.0  0.54434  0.46992  0.92419  1.0000
  H   H1199     1.0  0.61366  0.44986  0.48879  1.0000
  H   H1200     1.0  0.62110  0.43467  0.83923  1.0000
  H   H1201     1.0  0.58828  0.40585  0.70979  1.0000
  H   H1202     1.0  0.58201  0.41801  0.75586  1.0000
  H   H1203     1.0  0.59429  0.44057  0.74887  1.0000
  H   H1204     1.0  0.61285  0.45132  0.69492  1.0000
  H   H1205     1.0  0.61948  0.43919  0.64867  1.0000
  H   H1206     1.0  0.47678  0.48551  0.55205  1.0000
  H   H1207     1.0  0.56998  0.37646  0.66737  1.0000
  H   H1208     1.0  0.58110  0.35948  0.68651  1.0000
  H   H1209     1.0  0.60445  0.36562  0.68706  1.0000
  H   H1210     1.0  0.61684  0.38846  0.66729  1.0000
  P   P50       1.0  0.48428  0.47336  0.67746  1.0000
  C   C1492     1.0  0.59499  0.42700  0.53761  1.0000
  S   S213      1.0  0.65490  0.35844  0.80421  1.0000
  H   H1211     1.0  0.64872  0.41025  0.68577  1.0000
  P   P51       1.0  0.60039  0.28051  0.93711  1.0000
  C   C1493     1.0  0.54728  0.37361  0.61431  1.0000
  C   C1494     1.0  0.50590  0.44693  0.66740  1.0000
  C   C1495     1.0  0.65344  0.41893  0.62743  1.0000
  H   H1212     1.0  0.60757  0.48555  0.73852  1.0000
  C   C1496     1.0  0.64493  0.41330  0.66202  1.0000
  H   H1213     1.0  0.60623  0.41546  0.51242  1.0000
  H   H1214     1.0  0.58075  0.33495  0.92917  1.0000
  H   H1215     1.0  0.55955  0.33590  0.91446  1.0000
  H   H1216     1.0  0.58590  0.33902  0.56361  1.0000
  C   C1497     1.0  0.59001  0.29109  0.92755  1.0000
  C   C1498     1.0  0.58961  0.29624  0.89116  1.0000
  H   H1217     1.0  0.45680  0.47737  0.79251  1.0000
  C   C1499     1.0  0.63955  0.38840  0.88263  1.0000
  C   C1500     1.0  0.49892  0.43849  0.65032  1.0000
  H   H1218     1.0  0.57082  0.48300  0.78619  1.0000
  H   H1219     1.0  0.56359  0.40366  0.61734  1.0000
  H   H1220     1.0  0.53911  0.36563  0.63030  1.0000
  C   C1501     1.0  0.65187  0.36878  0.93151  1.0000
  C   C1502     1.0  0.55457  0.37278  0.58071  1.0000
  C   C1503     1.0  0.59569  0.42728  0.60082  1.0000
  C   C1504     1.0  0.54901  0.33069  0.97160  1.0000
  C   C1505     1.0  0.57072  0.48580  0.62326  1.0000
  H   H1221     1.0  0.52061  0.44166  0.96107  1.0000
  C   C1506     1.0  0.59636  0.48672  0.58953  1.0000
  H   H1222     1.0  0.65461  0.25848  0.94828  1.0000
  H   H1223     1.0  0.58064  0.30768  0.85596  1.0000
  H   H1224     1.0  0.54995  0.38185  0.50733  1.0000
  H   H1225     1.0  0.59034  0.26422  0.89071  1.0000
  S   S214      1.0  0.47166  0.46964  0.96181  1.0000
  H   H1226     1.0  0.54295  0.46165  0.70214  1.0000
  C   C1507     1.0  0.58089  0.30371  0.88416  1.0000
  C   C1508     1.0  0.59513  0.47367  0.56972  1.0000
  C   C1509     1.0  0.55814  0.42552  0.51699  1.0000
  C   C1510     1.0  0.61069  0.41561  0.83818  1.0000
  C   C1511     1.0  0.61789  0.27200  0.88908  1.0000
  H   H1227     1.0  0.63336  0.37991  0.90312  1.0000
  H   H1228     1.0  0.60775  0.30455  0.96185  1.0000
  C   C1512     1.0  0.62539  0.48881  0.81471  1.0000
  H   H1229     1.0  0.47430  0.45290  0.64136  1.0000
  C   C1513     1.0  0.65624  0.38317  0.76650  1.0000
  H   H1230     1.0  0.47294  0.48586  0.73281  1.0000
  C   C1514     1.0  0.49434  0.45036  0.90528  1.0000
  H   H1231     1.0  0.58765  0.47157  0.55492  1.0000
  Fe  Fe107     1.0  0.47089  0.49290  0.83478  1.0000
  H   H1232     1.0  0.60909  0.44788  0.79450  1.0000
  H   H1233     1.0  0.59693  0.46436  0.78349  1.0000
  C   C1515     1.0  0.61396  0.28272  0.89866  1.0000
  C   C1516     1.0  0.58104  0.25926  0.74845  1.0000
  H   H1234     1.0  0.44815  0.45368  0.81794  1.0000
  C   C1517     1.0  0.55060  0.46848  0.68014  1.0000
  C   C1518     1.0  0.65080  0.36277  0.90217  1.0000
  C   C1519     1.0  0.51268  0.49642  0.71118  1.0000
  C   C1520     1.0  0.61026  0.29684  0.97951  1.0000
  C   C1521     1.0  0.62848  0.27387  0.85938  1.0000
  C   C1522     1.0  0.58497  0.37071  0.54033  1.0000
  C   C1523     1.0  0.60337  0.41882  0.53702  1.0000
  C   C1524     1.0  0.64405  0.45214  0.68597  1.0000
  H   H1235     1.0  0.56018  0.47727  0.71724  1.0000
  C   C1525     1.0  0.58420  0.25740  0.98476  1.0000
  C   C1526     1.0  0.62716  0.45963  0.75654  1.0000
  C   C1527     1.0  0.61305  0.47838  0.74387  1.0000
  C   C1528     1.0  0.65290  0.24922  0.85512  1.0000
  C   C1529     1.0  0.59244  0.25704  0.72962  1.0000
  H   H1236     1.0  0.50685  0.46367  0.68986  1.0000
  C   C1530     1.0  0.56031  0.47734  0.68863  1.0000
  H   H1237     1.0  0.58206  0.39952  0.64840  1.0000
  C   C1531     1.0  0.47299  0.46701  0.72238  1.0000
  H   H1238     1.0  0.51092  0.46093  0.91979  1.0000
  H   H1239     1.0  0.51440  0.44485  0.67607  1.0000
  C   C1532     1.0  0.46798  0.45354  0.73701  1.0000
  C   C1533     1.0  0.55063  0.38468  0.62768  1.0000
  C   C1534     1.0  0.60107  0.36814  0.57614  1.0000
  H   H1240     1.0  0.65138  0.45726  0.62692  1.0000
  C   C1535     1.0  0.47995  0.48015  0.60668  1.0000
  C   C1536     1.0  0.46105  0.49307  0.62809  1.0000
  H   H1241     1.0  0.60151  0.39720  0.82896  1.0000
  H   H1242     1.0  0.51881  0.49457  0.94307  1.0000
  H   H1243     1.0  0.65423  0.36837  0.87381  1.0000
  H   H1244     1.0  0.48744  0.47544  0.59763  1.0000
  C   C1537     1.0  0.50705  0.49289  0.64441  1.0000
  H   H1245     1.0  0.60147  0.26462  0.72166  1.0000
  H   H1246     1.0  0.61129  0.40350  0.76185  1.0000
  C   C1538     1.0  0.59806  0.35482  0.57801  1.0000
  H   H1247     1.0  0.63261  0.28840  0.75327  1.0000
  C   C1539     1.0  0.66254  0.39640  0.75196  1.0000
  C   C1540     1.0  0.64496  0.34949  0.90915  1.0000
  C   C1541     1.0  0.55103  0.46808  0.64340  1.0000
  C   C1542     1.0  0.55281  0.48808  0.78287  1.0000
  C   C1543     1.0  0.45503  0.45735  0.79130  1.0000
  H   H1248     1.0  0.66094  0.43672  0.85737  1.0000
  C   C1544     1.0  0.61353  0.41037  0.77855  1.0000
  H   H1249     1.0  0.60303  0.34864  0.59283  1.0000
  C   C1545     1.0  0.63180  0.29715  0.84969  1.0000
  C   C1546     1.0  0.62114  0.29530  0.87920  1.0000
  H   H1250     1.0  0.56089  0.25110  0.77567  1.0000
  H   H1251     1.0  0.48761  0.45469  0.92057  1.0000
  C   C1547     1.0  0.61406  0.45711  0.77538  1.0000
  C   C1548     1.0  0.62610  0.48103  0.72529  1.0000
  H   H1252     1.0  0.58142  0.28921  0.98512  1.0000
  C   C1549     1.0  0.46900  0.47551  0.74300  1.0000
  C   C1550     1.0  0.53558  0.45817  0.92533  1.0000
  C   C1551     1.0  0.59454  0.37606  0.55745  1.0000
  H   H1253     1.0  0.63637  0.45700  0.68422  1.0000
  H   H1254     1.0  0.59220  0.43038  0.62549  1.0000
  C   C1552     1.0  0.65381  0.25193  0.97442  1.0000
  C   C1553     1.0  0.56115  0.39500  0.60721  1.0000
  H   H1255     1.0  0.57674  0.40217  0.55877  1.0000
  C   C1554     1.0  0.56523  0.38308  0.56015  1.0000
  C   C1555     1.0  0.64970  0.44144  0.81769  1.0000
  C   C1556     1.0  0.47619  0.48040  0.64399  1.0000
  H   H1256     1.0  0.61489  0.37541  0.96142  1.0000
  H   H1257     1.0  0.63708  0.30690  0.83410  1.0000
  H   H1258     1.0  0.55203  0.36401  0.57112  1.0000
  P   P52       1.0  0.57568  0.38087  0.52022  1.0000
  H   H1259     1.0  0.56650  0.43375  0.50975  1.0000
  C   C1557     1.0  0.52769  0.45057  0.95956  1.0000
  C   C1558     1.0  0.64285  0.40427  0.82525  1.0000
  C   C1559     1.0  0.45909  0.44876  0.77138  1.0000
  C   C1560     1.0  0.56849  0.39420  0.57367  1.0000
  H   H1260     1.0  0.63527  0.33187  0.95077  1.0000
  H   H1261     1.0  0.59667  0.38630  0.55720  1.0000
  H   H1262     1.0  0.63940  0.40798  0.80141  1.0000
  C   C1561     1.0  0.63316  0.47179  0.73195  1.0000
  C   C1562     1.0  0.58842  0.34939  0.56148  1.0000
  C   C1563     1.0  0.58144  0.29335  0.95685  1.0000
  P   P53       1.0  0.63610  0.44732  0.76330  1.0000
  C   C1564     1.0  0.56014  0.33339  0.94303  1.0000
  C   C1565     1.0  0.66160  0.37537  0.78977  1.0000
  H   H1263     1.0  0.65754  0.26604  0.80991  1.0000
  C   C1566     1.0  0.46455  0.49239  0.59135  1.0000
  H   H1264     1.0  0.55036  0.47613  0.89827  1.0000
  H   H1265     1.0  0.52838  0.48800  0.88787  1.0000
  C   C1567     1.0  0.58275  0.46089  0.48872  1.0000
  C   C1568     1.0  0.64322  0.39666  0.96966  1.0000
  C   C1569     1.0  0.65537  0.40992  0.82814  1.0000
  H   H1266     1.0  0.65859  0.40229  0.73304  1.0000
  C   C1570     1.0  0.63543  0.28644  0.83969  1.0000
  H   H1267     1.0  0.49983  0.47518  0.94749  1.0000
  C   C1571     1.0  0.58178  0.35728  0.54303  1.0000
  C   C1572     1.0  0.62500  0.43148  0.78406  1.0000
  C   C1573     1.0  0.64131  0.34794  0.97483  1.0000
  C   C1574     1.0  0.58642  0.25890  0.91927  1.0000
  C   C1575     1.0  0.62195  0.42267  0.76230  1.0000
  H   H1268     1.0  0.46382  0.48781  0.68239  1.0000
  C   C1576     1.0  0.60422  0.41914  0.60038  1.0000
  C   C1577     1.0  0.45996  0.47072  0.77701  1.0000
  C   C1578     1.0  0.49035  0.46012  0.66482  1.0000
  H   H1269     1.0  0.52927  0.25322  0.71991  1.0000
  C   C1579     1.0  0.65249  0.45218  0.65314  1.0000
  C   C1580     1.0  0.59109  0.43112  0.56956  1.0000
  H   H1270     1.0  0.60631  0.41281  0.86757  1.0000
  C   C1581     1.0  0.63152  0.41157  0.66606  1.0000
  C   C1582     1.0  0.47402  0.48596  0.58062  1.0000
  H   H1271     1.0  0.45539  0.43837  0.78265  1.0000
  C   C1583     1.0  0.61909  0.42794  0.82204  1.0000
  C   C1584     1.0  0.54509  0.47402  0.95668  1.0000
  C   C1585     1.0  0.65226  0.39381  0.88525  1.0000
  S   S215      1.0  0.61769  0.48657  0.55325  1.0000
  H   H1272     1.0  0.48211  0.43406  0.62794  1.0000
  C   C1586     1.0  0.49594  0.47259  0.97695  1.0000
  H   H1273     1.0  0.57120  0.40604  0.49410  1.0000
  C   C1587     1.0  0.48764  0.44079  0.64049  1.0000
  C   C1588     1.0  0.64704  0.36126  0.96798  1.0000
  C   C1589     1.0  0.62276  0.45593  0.49028  1.0000
  H   H1274     1.0  0.55721  0.49629  0.75933  1.0000
  H   H1275     1.0  0.45998  0.49695  0.57122  1.0000
  H   H1276     1.0  0.63962  0.47942  0.83234  1.0000
  C   C1590     1.0  0.66260  0.44607  0.65425  1.0000
  H   H1277     1.0  0.50519  0.49136  0.61836  1.0000
  H   H1278     1.0  0.55153  0.48330  0.95548  1.0000
  C   C1591     1.0  0.56950  0.24933  0.75997  1.0000
  C   C1592     1.0  0.61312  0.36512  0.97314  1.0000
  H   H1279     1.0  0.65620  0.47673  0.49387  1.0000
  C   C1593     1.0  0.53330  0.49688  0.89377  1.0000
  C   C1594     1.0  0.55418  0.37631  0.48964  1.0000
  C   C1595     1.0  0.55395  0.42008  0.48908  1.0000
  C   C1596     1.0  0.56637  0.37391  0.49091  1.0000
  Fe  Fe108     1.0  0.44385  0.56071  0.26270  1.0000
  S   S216      1.0  0.42595  0.56377  0.29581  1.0000
  S   S217      1.0  0.45802  0.57860  0.22474  1.0000
  Fe  Fe109     1.0  0.43666  0.53158  0.29739  1.0000
  S   S218      1.0  0.41794  0.53240  0.33409  1.0000
  S   S219      1.0  0.44652  0.51510  0.30514  1.0000
  Fe  Fe110     1.0  0.41579  0.54563  0.28286  1.0000
  S   S220      1.0  0.39784  0.54499  0.25980  1.0000
  Fe  Fe111     1.0  0.42969  0.55067  0.34382  1.0000
  S   S221      1.0  0.43149  0.55905  0.39368  1.0000
  S   S222      1.0  0.43366  0.54341  0.24567  1.0000
  S   S223      1.0  0.44841  0.54879  0.31104  1.0000
  Fe  Fe112     1.0  0.50668  0.62003  0.29123  1.0000
  S   S224      1.0  0.51462  0.62066  0.23209  1.0000
  S   S225      1.0  0.48839  0.60587  0.32621  1.0000
  Fe  Fe113     1.0  0.52889  0.64145  0.29353  1.0000
  S   S226      1.0  0.53886  0.64411  0.23343  1.0000
  S   S227      1.0  0.53664  0.65255  0.33320  1.0000
  Fe  Fe114     1.0  0.51854  0.64230  0.22384  1.0000
  S   S228      1.0  0.51190  0.65133  0.17366  1.0000
  Fe  Fe115     1.0  0.53393  0.62219  0.24606  1.0000
  S   S229      1.0  0.54421  0.60674  0.23268  1.0000
  S   S230      1.0  0.50915  0.64144  0.28258  1.0000
  S   S231      1.0  0.52557  0.61983  0.30656  1.0000
  C   C1597     1.0  0.49349  0.51101  0.30576  1.0000
  H   H1280     1.0  0.44653  0.60339  0.25144  1.0000
  S   S232      1.0  0.34982  0.59028  0.15584  1.0000
  Fe  Fe116     1.0  0.37775  0.62142  0.10495  1.0000
  S   S233      1.0  0.38138  0.60182  0.12138  1.0000
  S   S234      1.0  0.39503  0.63817  0.07262  1.0000
  Fe  Fe117     1.0  0.36383  0.59440  0.10058  1.0000
  S   S235      1.0  0.36413  0.57875  0.06934  1.0000
  Fe  Fe118     1.0  0.36733  0.59953  0.17478  1.0000
  S   S236      1.0  0.37401  0.59375  0.22743  1.0000
  S   S237      1.0  0.36136  0.61417  0.07928  1.0000
  S   S238      1.0  0.36452  0.61973  0.15961  1.0000
  Fe  Fe119     1.0  0.46370  0.71050  0.06083  1.0000
  S   S239      1.0  0.44417  0.71317  0.08542  1.0000
  H   H1281     1.0  0.44794  0.50305  0.18605  1.0000
  Fe  Fe120     1.0  0.46955  0.70174  0.13532  1.0000
  S   S240      1.0  0.45048  0.70402  0.16521  1.0000
  S   S241      1.0  0.48284  0.69669  0.17256  1.0000
  Fe  Fe121     1.0  0.44180  0.69422  0.12523  1.0000
  S   S242      1.0  0.42232  0.67950  0.15028  1.0000
  Fe  Fe122     1.0  0.45453  0.72280  0.12306  1.0000
  C   C1598     1.0  0.36262  0.73254  0.24859  1.0000
  S   S243      1.0  0.46063  0.69063  0.09789  1.0000
  S   S244      1.0  0.47426  0.72138  0.09592  1.0000
  Fe  Fe123     1.0  0.58850  0.56161  0.07857  1.0000
  S   S245      1.0  0.58107  0.55590  0.03103  1.0000
  S   S246      1.0  0.59252  0.54691  0.12317  1.0000
  Fe  Fe124     1.0  0.58214  0.58818  0.06301  1.0000
  S   S247      1.0  0.57461  0.58471  0.01352  1.0000
  S   S248      1.0  0.58135  0.60685  0.08126  1.0000
  Fe  Fe125     1.0  0.56477  0.56480  0.04914  1.0000
  S   S249      1.0  0.54351  0.55565  0.05729  1.0000
  H   H1282     1.0  0.63035  0.55214  0.19636  1.0000
  S   S250      1.0  0.57117  0.56877  0.09932  1.0000
  S   S251      1.0  0.60028  0.58150  0.04575  1.0000
  C   C1599     1.0  0.54649  0.53356  0.22201  1.0000
  C   C1600     1.0  0.56638  0.50271  0.19201  1.0000
  S   S252      1.0  0.63516  0.52420  0.25053  1.0000
  H   H1283     1.0  0.48524  0.58450  0.17433  1.0000
  C   C1601     1.0  0.36402  0.70273  0.09070  1.0000
  H   H1284     1.0  0.48422  0.72528  0.16508  1.0000
  H   H1285     1.0  0.51887  0.59292  0.21897  1.0000
  C   C1602     1.0  0.62391  0.49728  0.38061  1.0000
  C   C1603     1.0  0.60792  0.54448  0.12657  1.0000
  C   C1604     1.0  0.60846  0.53481  0.15605  1.0000
  C   C1605     1.0  0.62038  0.53257  0.16088  1.0000
  C   C1606     1.0  0.63196  0.53999  0.13610  1.0000
  C   C1607     1.0  0.63152  0.54964  0.10624  1.0000
  C   C1608     1.0  0.61950  0.55192  0.10149  1.0000
  H   H1286     1.0  0.59960  0.52894  0.17525  1.0000
  H   H1287     1.0  0.62057  0.52511  0.18398  1.0000
  H   H1288     1.0  0.64048  0.55532  0.08689  1.0000
  H   H1289     1.0  0.61914  0.55934  0.07850  1.0000
  C   C1609     1.0  0.54013  0.54087  0.08979  1.0000
  C   C1610     1.0  0.55044  0.53650  0.10033  1.0000
  C   C1611     1.0  0.54807  0.52473  0.12604  1.0000
  C   C1612     1.0  0.53534  0.51739  0.14211  1.0000
  C   C1613     1.0  0.52491  0.52175  0.13208  1.0000
  C   C1614     1.0  0.52731  0.53349  0.10561  1.0000
  H   H1290     1.0  0.56032  0.54212  0.08867  1.0000
  H   H1291     1.0  0.55614  0.52131  0.13328  1.0000
  H   H1292     1.0  0.51501  0.51622  0.14507  1.0000
  H   H1293     1.0  0.51929  0.53691  0.09779  1.0000
  H   H1294     1.0  0.38949  0.72376  0.10634  1.0000
  C   C1615     1.0  0.60439  0.56107  0.25987  1.0000
  C   C1616     1.0  0.51429  0.59413  0.19595  1.0000
  H   H1295     1.0  0.33472  0.57901  0.08702  1.0000
  H   H1296     1.0  0.34714  0.70798  0.07636  1.0000
  C   C1617     1.0  0.40303  0.64906  0.09520  1.0000
  C   C1618     1.0  0.39786  0.64887  0.13193  1.0000
  C   C1619     1.0  0.40400  0.65817  0.14854  1.0000
  C   C1620     1.0  0.41551  0.66754  0.12886  1.0000
  C   C1621     1.0  0.42094  0.66750  0.09245  1.0000
  C   C1622     1.0  0.41464  0.65835  0.07556  1.0000
  H   H1297     1.0  0.38896  0.64175  0.14737  1.0000
  H   H1298     1.0  0.39976  0.65814  0.17674  1.0000
  H   H1299     1.0  0.42985  0.67465  0.07717  1.0000
  H   H1300     1.0  0.41875  0.65852  0.04716  1.0000
  C   C1623     1.0  0.35952  0.57863  0.02728  1.0000
  H   H1301     1.0  0.52814  0.53774  0.01445  1.0000
  C   C1624     1.0  0.65958  0.50533  0.12586  1.0000
  H   H1302     1.0  0.50920  0.51087  0.04549  1.0000
  C   C1625     1.0  0.50308  0.66333  0.17511  1.0000
  C   C1626     1.0  0.50283  0.67022  0.20271  1.0000
  C   C1627     1.0  0.49652  0.68034  0.20159  1.0000
  C   C1628     1.0  0.49016  0.68350  0.17338  1.0000
  C   C1629     1.0  0.49001  0.67631  0.14646  1.0000
  C   C1630     1.0  0.49656  0.66636  0.14714  1.0000
  H   H1303     1.0  0.50785  0.66803  0.22428  1.0000
  H   H1304     1.0  0.49670  0.68586  0.22249  1.0000
  H   H1305     1.0  0.48514  0.67865  0.12464  1.0000
  H   H1306     1.0  0.49673  0.66110  0.12566  1.0000
  C   C1631     1.0  0.52865  0.64647  0.38054  1.0000
  C   C1632     1.0  0.51857  0.63507  0.39239  1.0000
  C   C1633     1.0  0.51264  0.63009  0.43016  1.0000
  C   C1634     1.0  0.54775  0.50624  0.06214  1.0000
  C   C1635     1.0  0.52650  0.64806  0.44479  1.0000
  C   C1636     1.0  0.53255  0.65298  0.40688  1.0000
  H   H1307     1.0  0.51538  0.63002  0.37243  1.0000
  H   H1308     1.0  0.50498  0.62118  0.43900  1.0000
  H   H1309     1.0  0.48714  0.50556  0.33220  1.0000
  H   H1310     1.0  0.54032  0.66183  0.39791  1.0000
  C   C1637     1.0  0.55356  0.60706  0.18883  1.0000
  C   C1638     1.0  0.55505  0.59527  0.18094  1.0000
  C   C1639     1.0  0.56310  0.59505  0.14748  1.0000
  C   C1640     1.0  0.56996  0.60666  0.12177  1.0000
  C   C1641     1.0  0.56840  0.61847  0.12958  1.0000
  C   C1642     1.0  0.56010  0.61868  0.16276  1.0000
  H   H1311     1.0  0.55002  0.58626  0.20097  1.0000
  H   H1312     1.0  0.56437  0.58592  0.14229  1.0000
  H   H1313     1.0  0.57381  0.62751  0.11015  1.0000
  H   H1314     1.0  0.55910  0.62783  0.16870  1.0000
  C   C1643     1.0  0.39200  0.55904  0.24963  1.0000
  C   C1644     1.0  0.39379  0.56872  0.26921  1.0000
  C   C1645     1.0  0.38826  0.57932  0.26200  1.0000
  C   C1646     1.0  0.38112  0.58048  0.23476  1.0000
  C   C1647     1.0  0.37953  0.57092  0.21477  1.0000
  C   C1648     1.0  0.38480  0.56018  0.22255  1.0000
  H   H1315     1.0  0.39914  0.56788  0.29052  1.0000
  H   H1316     1.0  0.38953  0.58668  0.27748  1.0000
  H   H1317     1.0  0.37393  0.57164  0.19402  1.0000
  H   H1318     1.0  0.38325  0.55266  0.20767  1.0000
  C   C1649     1.0  0.38587  0.51588  0.38467  1.0000
  H   H1319     1.0  0.56914  0.52341  0.17589  1.0000
  H   H1320     1.0  0.38702  0.52656  0.32971  1.0000
  C   C1650     1.0  0.45300  0.50901  0.26779  1.0000
  C   C1651     1.0  0.54406  0.62907  0.47423  1.0000
  H   H1321     1.0  0.34788  0.66124  0.18307  1.0000
  C   C1652     1.0  0.49286  0.52363  0.29084  1.0000
  C   C1653     1.0  0.55639  0.54172  0.19271  1.0000
  Fe  Fe126     1.0  0.34821  0.61065  0.13575  1.0000
  H   H1322     1.0  0.43942  0.51330  0.23552  1.0000
  H   H1323     1.0  0.62113  0.63264  0.15331  1.0000
  H   H1324     1.0  0.49552  0.58179  0.22702  1.0000
  H   H1325     1.0  0.63780  0.62405  0.11930  1.0000
  C   C1654     1.0  0.46549  0.58723  0.25295  1.0000
  C   C1655     1.0  0.47505  0.59889  0.23765  1.0000
  C   C1656     1.0  0.48150  0.60522  0.26048  1.0000
  C   C1657     1.0  0.47879  0.59960  0.29831  1.0000
  C   C1658     1.0  0.46865  0.58846  0.31384  1.0000
  C   C1659     1.0  0.46194  0.58239  0.29120  1.0000
  H   H1326     1.0  0.47762  0.60295  0.20827  1.0000
  H   H1327     1.0  0.48854  0.61441  0.24873  1.0000
  H   H1328     1.0  0.46612  0.58435  0.34323  1.0000
  H   H1329     1.0  0.45387  0.57411  0.30371  1.0000
  Fe  Fe127     1.0  0.64443  0.52200  0.19501  1.0000
  C   C1660     1.0  0.58767  0.54076  0.27987  1.0000
  C   C1661     1.0  0.50123  0.58778  0.20040  1.0000
  C   C1662     1.0  0.53668  0.59771  0.07258  1.0000
  C   C1663     1.0  0.53181  0.60817  0.05882  1.0000
  H   H1330     1.0  0.41377  0.62284  0.05551  1.0000
  H   H1331     1.0  0.46858  0.71901  0.22582  1.0000
  H   H1332     1.0  0.59181  0.64830  0.47147  1.0000
  H   H1333     1.0  0.58017  0.52789  0.22488  1.0000
  H   H1334     1.0  0.48583  0.50011  0.06919  1.0000
  H   H1335     1.0  0.38682  0.52992  0.15585  1.0000
  H   H1336     1.0  0.42920  0.56620  0.13478  1.0000
  H   H1337     1.0  0.44687  0.56269  0.99360  1.0000
  H   H1338     1.0  0.63159  0.52857  0.38829  1.0000
  H   H1339     1.0  0.35831  0.54019  0.37915  1.0000
  C   C1664     1.0  0.57908  0.50775  0.24733  1.0000
  C   C1665     1.0  0.37096  0.65728  0.11504  1.0000
  H   H1340     1.0  0.48270  0.60791  0.44201  1.0000
  H   H1341     1.0  0.45433  0.57952  0.02645  1.0000
  C   C1666     1.0  0.41368  0.53941  0.44903  1.0000
  C   C1667     1.0  0.66157  0.52316  0.07438  1.0000
  S   S253      1.0  0.44893  0.74015  0.14103  1.0000
  H   H1342     1.0  0.35550  0.71079  0.18925  1.0000
  H   H1343     1.0  0.41136  0.59453  0.20742  1.0000
  C   C1668     1.0  0.42504  0.58287  0.20123  1.0000
  H   H1344     1.0  0.34112  0.74391  0.99398  1.0000
  C   C1669     1.0  0.65801  0.57331  0.19914  1.0000
  C   C1670     1.0  0.46852  0.49785  0.24147  1.0000
  C   C1671     1.0  0.64850  0.56163  0.20615  1.0000
  S   S254      1.0  0.66127  0.51590  0.21339  1.0000
  C   C1672     1.0  0.43505  0.57786  0.05815  1.0000
  C   C1673     1.0  0.47913  0.62908  0.15452  1.0000
  C   C1674     1.0  0.46945  0.63284  0.17675  1.0000
  C   C1675     1.0  0.45655  0.62507  0.18771  1.0000
  C   C1676     1.0  0.45357  0.61352  0.17588  1.0000
  P   P54       1.0  0.44388  0.62940  0.21768  1.0000
  C   C1677     1.0  0.44100  0.62035  0.26495  1.0000
  C   C1678     1.0  0.44302  0.60786  0.27315  1.0000
  C   C1679     1.0  0.44051  0.60095  0.30991  1.0000
  C   C1680     1.0  0.43612  0.60644  0.33869  1.0000
  C   C1681     1.0  0.43395  0.61880  0.33079  1.0000
  C   C1682     1.0  0.43630  0.62570  0.29411  1.0000
  C   C1683     1.0  0.44856  0.64643  0.21744  1.0000
  C   C1684     1.0  0.44515  0.66810  0.20502  1.0000
  C   C1685     1.0  0.44181  0.65514  0.20294  1.0000
  H   H1345     1.0  0.48910  0.63497  0.14719  1.0000
  H   H1346     1.0  0.47224  0.64179  0.18512  1.0000
  H   H1347     1.0  0.44194  0.59128  0.31624  1.0000
  H   H1348     1.0  0.43438  0.60104  0.36705  1.0000
  H   H1349     1.0  0.43056  0.62310  0.35303  1.0000
  H   H1350     1.0  0.43445  0.63522  0.28858  1.0000
  H   H1351     1.0  0.43994  0.67479  0.19383  1.0000
  H   H1352     1.0  0.43390  0.65206  0.19023  1.0000
  C   C1686     1.0  0.41114  0.58676  0.15944  1.0000
  H   H1353     1.0  0.60746  0.59665  0.23583  1.0000
  C   C1687     1.0  0.51537  0.60479  0.13271  1.0000
  H   H1354     1.0  0.64318  0.57469  0.03386  1.0000
  H   H1355     1.0  0.48061  0.57157  0.41207  1.0000
  C   C1688     1.0  0.37222  0.55451  0.13820  1.0000
  C   C1689     1.0  0.60163  0.68574  0.45735  1.0000
  H   H1356     1.0  0.44806  0.61962  0.02454  1.0000
  C   C1690     1.0  0.38331  0.56483  0.12305  1.0000
  H   H1357     1.0  0.34208  0.69165  0.17630  1.0000
  H   H1358     1.0  0.48360  0.61468  0.12597  1.0000
  H   H1359     1.0  0.54899  0.58612  0.28939  1.0000
  C   C1691     1.0  0.48492  0.54629  0.44477  1.0000
  H   H1360     1.0  0.48669  0.63877  0.03207  1.0000
  C   C1692     1.0  0.38378  0.51602  0.42200  1.0000
  H   H1361     1.0  0.38862  0.59720  0.01036  1.0000
  H   H1362     1.0  0.56801  0.64668  0.06134  1.0000
  H   H1363     1.0  0.36266  0.55638  0.14144  1.0000
  C   C1693     1.0  0.47602  0.62949  0.45574  1.0000
  H   H1364     1.0  0.62805  0.57183  0.15623  1.0000
  H   H1365     1.0  0.51593  0.50743  0.23536  1.0000
  C   C1694     1.0  0.64591  0.58423  0.16109  1.0000
  C   C1695     1.0  0.37346  0.54190  0.14955  1.0000
  H   H1366     1.0  0.38741  0.59536  0.33816  1.0000
  H   H1367     1.0  0.41210  0.69162  0.08777  1.0000
  H   H1368     1.0  0.47008  0.66748  0.24739  1.0000
  H   H1369     1.0  0.41868  0.62974  0.12149  1.0000
  H   H1370     1.0  0.37215  0.57595  0.38120  1.0000
  H   H1371     1.0  0.42828  0.58420  0.22588  1.0000
  C   C1696     1.0  0.43988  0.56520  0.01363  1.0000
  H   H1372     1.0  0.61157  0.66150  0.42444  1.0000
  H   H1373     1.0  0.52965  0.65306  0.46490  1.0000
  H   H1374     1.0  0.42358  0.72398  0.02687  1.0000
  C   C1697     1.0  0.48714  0.53517  0.39521  1.0000
  C   C1698     1.0  0.37282  0.72883  0.09115  1.0000
  C   C1699     1.0  0.37192  0.72926  0.26719  1.0000
  C   C1700     1.0  0.55529  0.64931  0.10868  1.0000
  C   C1701     1.0  0.47603  0.61764  0.14265  1.0000
  C   C1702     1.0  0.45989  0.64403  0.36320  1.0000
  C   C1703     1.0  0.46485  0.64076  0.33051  1.0000
  C   C1704     1.0  0.46645  0.62827  0.33147  1.0000
  C   C1705     1.0  0.46332  0.61910  0.36519  1.0000
  C   C1706     1.0  0.45880  0.62245  0.39830  1.0000
  C   C1707     1.0  0.45685  0.63490  0.39701  1.0000
  P   P55       1.0  0.45620  0.61127  0.44241  1.0000
  C   C1708     1.0  0.46384  0.59835  0.43532  1.0000
  H   H1375     1.0  0.47589  0.51527  0.40847  1.0000
  C   C1709     1.0  0.48602  0.74587  0.30425  1.0000
  H   H1376     1.0  0.38818  0.50756  0.37567  1.0000
  H   H1377     1.0  0.39813  0.61939  0.01608  1.0000
  C   C1710     1.0  0.34020  0.55902  0.43939  1.0000
  C   C1711     1.0  0.66217  0.52025  0.35067  1.0000
  H   H1378     1.0  0.48755  0.55505  0.45427  1.0000
  H   H1379     1.0  0.33413  0.60202  0.08021  1.0000
  H   H1380     1.0  0.55227  0.50372  0.08474  1.0000
  C   C1712     1.0  0.37769  0.55069  0.46892  1.0000
  C   C1713     1.0  0.45686  0.58739  0.42629  1.0000
  C   C1714     1.0  0.54626  0.52196  0.00946  1.0000
  H   H1381     1.0  0.33512  0.56439  0.45579  1.0000
  C   C1715     1.0  0.36086  0.72443  0.08282  1.0000
  H   H1382     1.0  0.39623  0.61355  0.23288  1.0000
  C   C1716     1.0  0.47590  0.57890  0.41923  1.0000
  H   H1383     1.0  0.39015  0.72393  0.26266  1.0000
  H   H1384     1.0  0.45876  0.65376  0.36243  1.0000
  H   H1385     1.0  0.46769  0.64798  0.30456  1.0000
  H   H1386     1.0  0.47041  0.62570  0.30622  1.0000
  H   H1387     1.0  0.46481  0.60956  0.36518  1.0000
  H   H1388     1.0  0.45339  0.63769  0.42227  1.0000
  C   C1717     1.0  0.47696  0.59948  0.43603  1.0000
  C   C1718     1.0  0.49385  0.63457  0.04287  1.0000
  C   C1719     1.0  0.42737  0.55630  0.46820  1.0000
  S   S255      1.0  0.53281  0.50290  0.17490  1.0000
  C   C1720     1.0  0.63641  0.57243  0.16827  1.0000
  H   H1389     1.0  0.33617  0.54134  0.37551  1.0000
  H   H1390     1.0  0.37704  0.73070  0.16267  1.0000
  H   H1391     1.0  0.44854  0.64296  0.00601  1.0000
  C   C1721     1.0  0.34305  0.72339  0.17562  1.0000
  H   H1392     1.0  0.44688  0.58648  0.42412  1.0000
  C   C1722     1.0  0.65449  0.51122  0.09791  1.0000
  C   C1723     1.0  0.47591  0.53513  0.46825  1.0000
  C   C1724     1.0  0.44755  0.50905  0.23720  1.0000
  C   C1725     1.0  0.62839  0.51172  0.43268  1.0000
  C   C1726     1.0  0.49044  0.54632  0.40834  1.0000
  C   C1727     1.0  0.53721  0.56251  0.17885  1.0000
  C   C1728     1.0  0.53617  0.56724  0.14301  1.0000
  C   C1729     1.0  0.52393  0.56586  0.13513  1.0000
  C   C1730     1.0  0.51269  0.55991  0.16319  1.0000
  C   C1731     1.0  0.51365  0.55488  0.19926  1.0000
  C   C1732     1.0  0.52602  0.55616  0.20680  1.0000
  P   P56       1.0  0.49920  0.54652  0.23542  1.0000
  C   C1733     1.0  0.48556  0.54382  0.21421  1.0000
  C   C1734     1.0  0.50076  0.53062  0.25604  1.0000
  C   C1735     1.0  0.50911  0.52467  0.23614  1.0000
  C   C1736     1.0  0.48363  0.53367  0.19609  1.0000
  C   C1737     1.0  0.47373  0.53206  0.17719  1.0000
  C   C1738     1.0  0.46552  0.54040  0.17674  1.0000
  C   C1739     1.0  0.46746  0.55062  0.19425  1.0000
  C   C1740     1.0  0.47750  0.55242  0.21268  1.0000
  C   C1741     1.0  0.49655  0.55581  0.26990  1.0000
  C   C1742     1.0  0.50654  0.56613  0.27195  1.0000
  C   C1743     1.0  0.50414  0.57383  0.29681  1.0000
  C   C1744     1.0  0.49182  0.57122  0.32022  1.0000
  C   C1745     1.0  0.48191  0.56079  0.31913  1.0000
  C   C1746     1.0  0.48424  0.55313  0.29406  1.0000
  H   H1393     1.0  0.54673  0.56372  0.18476  1.0000
  H   H1394     1.0  0.54484  0.57186  0.12121  1.0000
  H   H1395     1.0  0.52318  0.56926  0.10707  1.0000
  H   H1396     1.0  0.50335  0.55908  0.15629  1.0000
  H   H1397     1.0  0.52701  0.55224  0.23426  1.0000
  H   H1398     1.0  0.51489  0.52954  0.20851  1.0000
  H   H1399     1.0  0.48979  0.52700  0.19617  1.0000
  H   H1400     1.0  0.47233  0.52419  0.16335  1.0000
  H   H1401     1.0  0.45761  0.53889  0.16298  1.0000
  H   H1402     1.0  0.46114  0.55713  0.19365  1.0000
  H   H1403     1.0  0.47892  0.56056  0.22545  1.0000
  H   H1404     1.0  0.51607  0.56870  0.25351  1.0000
  H   H1405     1.0  0.51172  0.58214  0.29711  1.0000
  H   H1406     1.0  0.48986  0.57749  0.33853  1.0000
  H   H1407     1.0  0.47229  0.55893  0.33694  1.0000
  H   H1408     1.0  0.47628  0.54537  0.29278  1.0000
  C   C1747     1.0  0.38294  0.72641  0.24821  1.0000
  C   C1748     1.0  0.65923  0.61121  0.11864  1.0000
  P   P57       1.0  0.64407  0.59875  0.13229  1.0000
  P   P58       1.0  0.35257  0.73756  0.18608  1.0000
  H   H1409     1.0  0.36055  0.69273  0.08943  1.0000
  C   C1749     1.0  0.34078  0.54602  0.39423  1.0000
  C   C1750     1.0  0.57058  0.51544  0.19523  1.0000
  H   H1410     1.0  0.39712  0.56367  0.45450  1.0000
  H   H1411     1.0  0.41931  0.60412  0.09110  1.0000
  Fe  Fe128     1.0  0.62478  0.50328  0.26095  1.0000
  C   C1751     1.0  0.40228  0.70291  0.99617  1.0000
  C   C1752     1.0  0.60429  0.57850  0.14109  1.0000
  C   C1753     1.0  0.60188  0.59072  0.13205  1.0000
  C   C1754     1.0  0.59353  0.59466  0.15776  1.0000
  H   H1412     1.0  0.61046  0.57528  0.12069  1.0000
  H   H1413     1.0  0.60615  0.59705  0.10479  1.0000
  H   H1414     1.0  0.59163  0.60413  0.15051  1.0000
  H   H1415     1.0  0.55614  0.54144  0.16460  1.0000
  H   H1416     1.0  0.59613  0.49974  0.45263  1.0000
  C   C1755     1.0  0.35963  0.65423  0.14308  1.0000
  C   C1756     1.0  0.35663  0.66370  0.16109  1.0000
  C   C1757     1.0  0.36486  0.67627  0.15069  1.0000
  C   C1758     1.0  0.37616  0.67949  0.12203  1.0000
  P   P59       1.0  0.38621  0.69602  0.10711  1.0000
  C   C1759     1.0  0.39566  0.69991  0.14006  1.0000
  C   C1760     1.0  0.40657  0.71067  0.12929  1.0000
  C   C1761     1.0  0.41427  0.71350  0.15389  1.0000
  C   C1762     1.0  0.41122  0.70553  0.18944  1.0000
  C   C1763     1.0  0.40042  0.69479  0.20047  1.0000
  C   C1764     1.0  0.39268  0.69195  0.17591  1.0000
  C   C1765     1.0  0.39728  0.69796  0.06329  1.0000
  C   C1766     1.0  0.36435  0.73306  0.21072  1.0000
  C   C1767     1.0  0.41768  0.69586  0.02874  1.0000
  C   C1768     1.0  0.40928  0.69492  0.06241  1.0000
  H   H1417     1.0  0.55003  0.53151  0.99085  1.0000
  H   H1418     1.0  0.64498  0.50666  0.09485  1.0000
  H   H1419     1.0  0.36241  0.68352  0.16481  1.0000
  H   H1420     1.0  0.40942  0.71664  0.10150  1.0000
  H   H1421     1.0  0.41750  0.70746  0.20797  1.0000
  H   H1422     1.0  0.39837  0.68834  0.22758  1.0000
  H   H1423     1.0  0.38472  0.68329  0.18472  1.0000
  H   H1424     1.0  0.42682  0.69332  0.02867  1.0000
  H   H1425     1.0  0.53112  0.62140  0.00908  1.0000
  Fe  Fe129     1.0  0.65110  0.51661  0.27015  1.0000
  H   H1426     1.0  0.43507  0.60358  0.99811  1.0000
  C   C1769     1.0  0.59822  0.57016  0.17578  1.0000
  C   C1770     1.0  0.35645  0.71139  0.08265  1.0000
  C   C1771     1.0  0.38088  0.52680  0.43352  1.0000
  C   C1772     1.0  0.35340  0.54538  0.39644  1.0000
  H   H1427     1.0  0.45737  0.56927  0.41149  1.0000
  C   C1773     1.0  0.58720  0.58627  0.19213  1.0000
  C   C1774     1.0  0.56675  0.55032  0.19933  1.0000
  S   S256      1.0  0.64698  0.53756  0.14331  1.0000
  C   C1775     1.0  0.54677  0.53427  0.25821  1.0000
  H   H1428     1.0  0.59983  0.56053  0.18180  1.0000
  H   H1429     1.0  0.57430  0.55635  0.17586  1.0000
  H   H1430     1.0  0.61789  0.68547  0.41518  1.0000
  H   H1431     1.0  0.41937  0.57850  0.35074  1.0000
  C   C1776     1.0  0.43907  0.60393  0.46262  1.0000
  C   C1777     1.0  0.40668  0.58978  0.07212  1.0000
  H   H1432     1.0  0.49318  0.59095  0.42742  1.0000
  H   H1433     1.0  0.48587  0.52766  0.30601  1.0000
  C   C1778     1.0  0.38584  0.53962  0.14596  1.0000
  C   C1779     1.0  0.42664  0.55901  0.02081  1.0000
  H   H1434     1.0  0.54992  0.59122  0.99166  1.0000
  C   C1780     1.0  0.41561  0.58879  0.19062  1.0000
  C   C1781     1.0  0.66264  0.61894  0.14284  1.0000
  H   H1435     1.0  0.56087  0.52532  0.04047  1.0000
  H   H1436     1.0  0.42288  0.72163  0.14506  1.0000
  C   C1782     1.0  0.49538  0.58946  0.17070  1.0000
  S   S257      1.0  0.63260  0.50161  0.20378  1.0000
  H   H1437     1.0  0.53719  0.62315  0.46288  1.0000
  C   C1783     1.0  0.63406  0.59042  0.02464  1.0000
  H   H1438     1.0  0.63047  0.61106  0.08014  1.0000
  C   C1784     1.0  0.58951  0.57392  0.20148  1.0000
  H   H1439     1.0  0.58042  0.58949  0.21073  1.0000
  C   C1785     1.0  0.37927  0.66981  0.10471  1.0000
  H   H1440     1.0  0.37337  0.64986  0.10149  1.0000
  P   P60       1.0  0.37611  0.55151  0.42199  1.0000
  C   C1786     1.0  0.55252  0.51843  0.03740  1.0000
  C   C1787     1.0  0.42459  0.73328  0.03406  1.0000
  C   C1788     1.0  0.40959  0.61310  0.05327  1.0000
  C   C1789     1.0  0.38471  0.72686  0.21055  1.0000
  C   C1790     1.0  0.54047  0.60669  0.99628  1.0000
  H   H1441     1.0  0.54683  0.58350  0.05895  1.0000
  H   H1442     1.0  0.45049  0.69407  0.01508  1.0000
  H   H1443     1.0  0.44379  0.60726  0.18448  1.0000
  C   C1791     1.0  0.56721  0.55105  0.23554  1.0000
  C   C1792     1.0  0.55703  0.54308  0.26499  1.0000
  H   H1444     1.0  0.55779  0.57308  0.24927  1.0000
  C   C1793     1.0  0.46326  0.60983  0.15347  1.0000
  H   H1445     1.0  0.38808  0.67180  0.08328  1.0000
  C   C1794     1.0  0.35559  0.58885  0.00759  1.0000
  C   C1795     1.0  0.48296  0.58981  0.42788  1.0000
  C   C1796     1.0  0.39574  0.56256  0.11790  1.0000
  C   C1797     1.0  0.51661  0.63650  0.45652  1.0000
  C   C1798     1.0  0.41373  0.73819  0.04226  1.0000
  H   H1446     1.0  0.40429  0.73271  0.04102  1.0000
  C   C1799     1.0  0.45525  0.67250  0.22128  1.0000
  H   H1447     1.0  0.37936  0.52665  0.46257  1.0000
  H   H1448     1.0  0.40421  0.55880  0.39240  1.0000
  S   S258      1.0  0.66011  0.52788  0.30739  1.0000
  P   P61       1.0  0.58047  0.56238  0.24425  1.0000
  C   C1800     1.0  0.56236  0.57513  0.27131  1.0000
  H   H1449     1.0  0.46093  0.60068  0.14560  1.0000
  C   C1801     1.0  0.53510  0.51330  0.00625  1.0000
  H   H1450     1.0  0.48097  0.63079  0.42717  1.0000
  H   H1451     1.0  0.45796  0.68261  0.22224  1.0000
  H   H1452     1.0  0.49950  0.64987  0.07001  1.0000
  C   C1802     1.0  0.40907  0.57798  0.35735  1.0000
  H   H1453     1.0  0.36278  0.55968  0.02853  1.0000
  C   C1803     1.0  0.38524  0.52661  0.35874  1.0000
  H   H1454     1.0  0.56245  0.65721  0.11274  1.0000
  C   C1804     1.0  0.61327  0.61519  0.19674  1.0000
  H   H1455     1.0  0.62544  0.60660  0.02275  1.0000
  H   H1456     1.0  0.35540  0.59742  0.01806  1.0000
  C   C1805     1.0  0.55733  0.58251  0.29404  1.0000
  H   H1457     1.0  0.55710  0.54360  0.29315  1.0000
  C   C1806     1.0  0.39379  0.70192  0.02988  1.0000
  H   H1458     1.0  0.41106  0.59675  0.32230  1.0000
  C   C1807     1.0  0.38265  0.53753  0.36999  1.0000
  C   C1808     1.0  0.41636  0.57904  0.13802  1.0000
  H   H1459     1.0  0.38247  0.54583  0.34923  1.0000
  H   H1460     1.0  0.53867  0.52667  0.21646  1.0000
  H   H1461     1.0  0.41067  0.53521  0.42738  1.0000
  H   H1462     1.0  0.56104  0.50097  0.17126  1.0000
  C   C1809     1.0  0.40044  0.56680  0.38122  1.0000
  C   C1810     1.0  0.57350  0.57093  0.27602  1.0000
  C   C1811     1.0  0.54294  0.64495  0.13262  1.0000
  C   C1812     1.0  0.65672  0.58459  0.17681  1.0000
  H   H1463     1.0  0.43892  0.63396  0.14377  1.0000
  C   C1813     1.0  0.40440  0.58826  0.34173  1.0000
  C   C1814     1.0  0.59155  0.55412  0.26298  1.0000
  H   H1464     1.0  0.57786  0.53512  0.28293  1.0000
  H   H1465     1.0  0.60753  0.57137  0.24738  1.0000
  C   C1815     1.0  0.37598  0.70701  0.09964  1.0000
  C   C1816     1.0  0.42562  0.57286  0.14938  1.0000
  C   C1817     1.0  0.42178  0.57143  0.06619  1.0000
  C   C1818     1.0  0.63114  0.61788  0.14445  1.0000
  H   H1466     1.0  0.40908  0.60360  0.44612  1.0000
  C   C1819     1.0  0.41828  0.62695  0.15072  1.0000
  H   H1467     1.0  0.43227  0.61489  0.41976  1.0000
  C   C1820     1.0  0.47313  0.73821  0.23593  1.0000
  C   C1821     1.0  0.45863  0.65092  0.23409  1.0000
  C   C1822     1.0  0.42956  0.60737  0.44503  1.0000
  C   C1823     1.0  0.42364  0.55088  0.43989  1.0000
  C   C1824     1.0  0.52135  0.60259  0.16223  1.0000
  C   C1825     1.0  0.50242  0.59787  0.13691  1.0000
  H   H1468     1.0  0.61628  0.53648  0.29857  1.0000
  C   C1826     1.0  0.42912  0.62597  0.20144  1.0000
  C   C1827     1.0  0.46203  0.66393  0.23565  1.0000
  C   C1828     1.0  0.63054  0.60065  0.03785  1.0000
  C   C1829     1.0  0.45226  0.69895  0.98629  1.0000
  C   C1830     1.0  0.39549  0.59871  0.02754  1.0000
  C   C1831     1.0  0.57934  0.57395  0.30441  1.0000
  C   C1832     1.0  0.56323  0.58556  0.32206  1.0000
  C   C1833     1.0  0.64051  0.58266  0.04415  1.0000
  H   H1469     1.0  0.53574  0.59441  0.10195  1.0000
  H   H1470     1.0  0.53137  0.60762  0.15963  1.0000
  H   H1471     1.0  0.55937  0.59141  0.33936  1.0000
  C   C1834     1.0  0.61326  0.55475  0.27276  1.0000
  H   H1472     1.0  0.58791  0.57083  0.30874  1.0000
  C   C1835     1.0  0.59659  0.53445  0.29260  1.0000
  C   C1836     1.0  0.57418  0.58121  0.32740  1.0000
  H   H1473     1.0  0.38447  0.70404  0.02972  1.0000
  C   C1837     1.0  0.38031  0.72015  0.09980  1.0000
  C   C1838     1.0  0.50968  0.51205  0.25114  1.0000
  H   H1474     1.0  0.57875  0.58362  0.34914  1.0000
  C   C1839     1.0  0.42969  0.62931  0.16345  1.0000
  C   C1840     1.0  0.39108  0.58748  0.35071  1.0000
  C   C1841     1.0  0.59442  0.65877  0.46745  1.0000
  H   H1475     1.0  0.49763  0.59907  0.11449  1.0000
  H   H1476     1.0  0.62318  0.56015  0.27002  1.0000
  H   H1477     1.0  0.55566  0.64042  0.42097  1.0000
  H   H1478     1.0  0.59366  0.52410  0.30509  1.0000
  C   C1842     1.0  0.60938  0.54143  0.28892  1.0000
  C   C1843     1.0  0.38707  0.56598  0.39068  1.0000
  H   H1479     1.0  0.46395  0.64437  0.24548  1.0000
  H   H1480     1.0  0.58409  0.50966  0.26860  1.0000
  H   H1481     1.0  0.55173  0.62891  0.05169  1.0000
  C   C1844     1.0  0.43001  0.57487  0.18066  1.0000
  C   C1845     1.0  0.38243  0.57639  0.37512  1.0000
  C   C1846     1.0  0.50511  0.61749  0.04970  1.0000
  H   H1482     1.0  0.52416  0.63146  0.14672  1.0000
  C   C1847     1.0  0.51033  0.63548  0.07823  1.0000
  H   H1483     1.0  0.43703  0.56998  0.18958  1.0000
  H   H1484     1.0  0.40647  0.54806  0.12851  1.0000
  C   C1848     1.0  0.39695  0.54993  0.13039  1.0000
  C   C1849     1.0  0.50344  0.50834  0.02623  1.0000
  H   H1485     1.0  0.46754  0.50307  0.29375  1.0000
  H   H1486     1.0  0.53161  0.56147  0.99672  1.0000
  C   C1850     1.0  0.41697  0.62030  0.22645  1.0000
  C   C1851     1.0  0.64335  0.58506  0.07704  1.0000
  H   H1487     1.0  0.40335  0.59092  0.15277  1.0000
  H   H1488     1.0  0.54042  0.64965  0.15470  1.0000
  C   C1852     1.0  0.47850  0.52390  0.41872  1.0000
  H   H1489     1.0  0.62371  0.58770  0.20164  1.0000
  C   C1853     1.0  0.41259  0.60244  0.07372  1.0000
  H   H1490     1.0  0.60595  0.61902  0.21159  1.0000
  C   C1854     1.0  0.54306  0.59157  0.04835  1.0000
  C   C1855     1.0  0.53369  0.63467  0.12784  1.0000
  H   H1491     1.0  0.63163  0.58842  0.99945  1.0000
  P   P62       1.0  0.41015  0.57583  0.09891  1.0000
  P   P63       1.0  0.52416  0.61650  0.09004  1.0000
  C   C1856     1.0  0.53409  0.61286  0.02042  1.0000
  H   H1492     1.0  0.40735  0.55742  0.05157  1.0000
  C   C1857     1.0  0.47300  0.52382  0.45523  1.0000
  H   H1493     1.0  0.57448  0.50198  0.44386  1.0000
  H   H1494     1.0  0.39391  0.57838  0.04578  1.0000
  C   C1858     1.0  0.41760  0.56217  0.04681  1.0000
  H   H1495     1.0  0.44524  0.73647  0.02958  1.0000
  H   H1496     1.0  0.38210  0.57455  0.11570  1.0000
  C   C1859     1.0  0.39845  0.58803  0.04795  1.0000
  H   H1497     1.0  0.43840  0.58531  0.07206  1.0000
  H   H1498     1.0  0.36485  0.53395  0.16181  1.0000
  H   H1499     1.0  0.65754  0.52781  0.05302  1.0000
  C   C1860     1.0  0.53659  0.62891  0.09825  1.0000
  C   C1861     1.0  0.62179  0.62284  0.16384  1.0000
  H   H1500     1.0  0.39739  0.61941  0.16599  1.0000
  C   C1862     1.0  0.38018  0.53761  0.40760  1.0000
  C   C1863     1.0  0.62332  0.59751  0.19072  1.0000
  C   C1864     1.0  0.50188  0.50522  0.28589  1.0000
  C   C1865     1.0  0.63186  0.60507  0.15741  1.0000
  H   H1501     1.0  0.49717  0.55504  0.39009  1.0000
  C   C1866     1.0  0.62671  0.51083  0.37050  1.0000
  C   C1867     1.0  0.61412  0.60257  0.21036  1.0000
  C   C1868     1.0  0.62905  0.51805  0.39645  1.0000
  C   C1869     1.0  0.51249  0.62377  0.07097  1.0000
  H   H1502     1.0  0.62736  0.51573  0.34231  1.0000
  C   C1870     1.0  0.44408  0.57467  0.03217  1.0000
  H   H1503     1.0  0.41619  0.61769  0.25586  1.0000
  H   H1504     1.0  0.47800  0.73861  0.39822  1.0000
  H   H1505     1.0  0.51562  0.64054  0.09494  1.0000
  C   C1871     1.0  0.41639  0.60097  0.45988  1.0000
  Fe  Fe130     1.0  0.59160  0.57623  0.99922  1.0000
  S   S259      1.0  0.47175  0.71711  0.99902  1.0000
  C   C1872     1.0  0.50108  0.64084  0.06414  1.0000
  C   C1873     1.0  0.53079  0.50084  0.03000  1.0000
  C   C1874     1.0  0.54908  0.63328  0.07437  1.0000
  C   C1875     1.0  0.55837  0.64343  0.07966  1.0000
  H   H1506     1.0  0.40036  0.65979  0.00976  1.0000
  C   C1876     1.0  0.43680  0.74029  0.03563  1.0000
  C   C1877     1.0  0.34225  0.74518  0.21311  1.0000
  C   C1878     1.0  0.40625  0.62123  0.17578  1.0000
  H   H1507     1.0  0.64848  0.57898  0.09146  1.0000
  H   H1508     1.0  0.53904  0.52797  0.28093  1.0000
  C   C1879     1.0  0.33417  0.55281  0.41572  1.0000
  C   C1880     1.0  0.49586  0.62289  0.03567  1.0000
  C   C1881     1.0  0.53697  0.49740  0.05819  1.0000
  C   C1882     1.0  0.49014  0.50237  0.03978  1.0000
  C   C1883     1.0  0.63334  0.60308  0.07074  1.0000
  C   C1884     1.0  0.60920  0.67970  0.43575  1.0000
  H   H1509     1.0  0.50642  0.60835  0.04423  1.0000
  H   H1510     1.0  0.60448  0.69619  0.45362  1.0000
  C   C1885     1.0  0.40089  0.61121  0.03066  1.0000
  H   H1511     1.0  0.49125  0.53529  0.36678  1.0000
  C   C1886     1.0  0.46282  0.57763  0.41878  1.0000
  C   C1887     1.0  0.35949  0.55149  0.42044  1.0000
  H   H1512     1.0  0.57095  0.65444  0.44634  1.0000
  C   C1888     1.0  0.37549  0.73023  0.19186  1.0000
  C   C1889     1.0  0.35972  0.56758  0.01359  1.0000
  H   H1513     1.0  0.63028  0.51732  0.45275  1.0000
  H   H1514     1.0  0.39329  0.72470  0.19584  1.0000
  C   C1890     1.0  0.63967  0.59522  0.09087  1.0000
  H   H1515     1.0  0.43494  0.56521  0.46144  1.0000
  C   C1891     1.0  0.40560  0.61797  0.21359  1.0000
  C   C1892     1.0  0.63767  0.56123  0.19096  1.0000
  C   C1893     1.0  0.49063  0.74532  0.16685  1.0000
  H   H1516     1.0  0.42336  0.55176  0.00620  1.0000
  H   H1517     1.0  0.44859  0.53006  0.47141  1.0000
  C   C1894     1.0  0.54486  0.59597  0.01028  1.0000
  C   C1895     1.0  0.57682  0.51796  0.22302  1.0000
  H   H1518     1.0  0.66001  0.53648  0.37416  1.0000
  H   H1519     1.0  0.35320  0.64449  0.15096  1.0000
  C   C1896     1.0  0.43543  0.61380  0.98974  1.0000
  H   H1520     1.0  0.46632  0.73529  0.26266  1.0000
  C   C1897     1.0  0.47827  0.74323  0.37004  1.0000
  H   H1521     1.0  0.65618  0.61761  0.16956  1.0000
  H   H1522     1.0  0.38448  0.50779  0.44203  1.0000
  C   C1898     1.0  0.47439  0.72896  0.21529  1.0000
  C   C1899     1.0  0.66199  0.52701  0.37875  1.0000
  H   H1523     1.0  0.35747  0.56351  0.45955  1.0000
  H   H1524     1.0  0.49111  0.73274  0.34598  1.0000
  C   C1900     1.0  0.46342  0.50329  0.26992  1.0000
  H   H1525     1.0  0.37061  0.72903  0.29634  1.0000
  C   C1901     1.0  0.50924  0.51077  0.98836  1.0000
  H   H1526     1.0  0.35495  0.73110  0.07659  1.0000
  C   C1902     1.0  0.33153  0.72389  0.16397  1.0000
  H   H1527     1.0  0.64958  0.55286  0.22311  1.0000
  C   C1903     1.0  0.56314  0.64676  0.46518  1.0000
  C   C1904     1.0  0.55450  0.63881  0.45061  1.0000
  C   C1905     1.0  0.34683  0.71165  0.17987  1.0000
  C   C1906     1.0  0.48320  0.73250  0.18089  1.0000
  C   C1907     1.0  0.44270  0.62282  0.00471  1.0000
  C   C1908     1.0  0.41420  0.69982  0.99559  1.0000
  C   C1909     1.0  0.48249  0.49902  0.01556  1.0000
  C   C1910     1.0  0.35284  0.55844  0.44159  1.0000
  C   C1911     1.0  0.60563  0.66621  0.44091  1.0000
  H   H1528     1.0  0.46624  0.51503  0.47298  1.0000
  H   H1529     1.0  0.37626  0.73897  0.09106  1.0000
  C   C1912     1.0  0.45235  0.50320  0.20931  1.0000
  C   C1913     1.0  0.59041  0.67832  0.48394  1.0000
  C   C1914     1.0  0.48565  0.73992  0.34062  1.0000
  H   H1530     1.0  0.49147  0.64368  0.46526  1.0000
  C   C1915     1.0  0.48199  0.63691  0.47714  1.0000
  H   H1531     1.0  0.49187  0.74325  0.28177  1.0000
  H   H1532     1.0  0.35419  0.73477  0.26381  1.0000
  C   C1916     1.0  0.46389  0.62044  0.47119  1.0000
  C   C1917     1.0  0.38903  0.55762  0.47645  1.0000
  H   H1533     1.0  0.49024  0.61801  0.01921  1.0000
  C   C1918     1.0  0.57641  0.50095  0.47112  1.0000
  H   H1534     1.0  0.40867  0.64169  0.99328  1.0000
  C   C1919     1.0  0.46290  0.49765  0.21122  1.0000
  C   C1920     1.0  0.44295  0.63595  0.99434  1.0000
  C   C1921     1.0  0.58859  0.49965  0.47604  1.0000
  C   C1922     1.0  0.33923  0.70071  0.17255  1.0000
  H   H1535     1.0  0.34561  0.74622  0.11566  1.0000
  C   C1923     1.0  0.62564  0.49817  0.44285  1.0000
  C   C1924     1.0  0.52890  0.54242  0.98595  1.0000
  Fe  Fe131     1.0  0.43108  0.53475  0.65516  1.0000
  S   S260      1.0  0.43441  0.54539  0.59601  1.0000
  H   H1536     1.0  0.47373  0.52746  0.77213  1.0000
  Fe  Fe132     1.0  0.40775  0.54594  0.67885  1.0000
  S   S261      1.0  0.40945  0.55724  0.62131  1.0000
  S   S262      1.0  0.39260  0.54643  0.72876  1.0000
  Fe  Fe133     1.0  0.41282  0.53933  0.60387  1.0000
  S   S263      1.0  0.40366  0.53129  0.56127  1.0000
  Fe  Fe134     1.0  0.43089  0.56226  0.61849  1.0000
  S   S264      1.0  0.44360  0.58211  0.58809  1.0000
  S   S265      1.0  0.40947  0.52736  0.66180  1.0000
  S   S266      1.0  0.42910  0.55219  0.67729  1.0000
  Fe  Fe135     1.0  0.52743  0.63550  0.61657  1.0000
  S   S267      1.0  0.52642  0.65137  0.56988  1.0000
  S   S268      1.0  0.54505  0.63305  0.63859  1.0000
  Fe  Fe136     1.0  0.49845  0.62374  0.63600  1.0000
  S   S269      1.0  0.49495  0.63848  0.59190  1.0000
  S   S270      1.0  0.48283  0.60712  0.67416  1.0000
  Fe  Fe137     1.0  0.51247  0.63560  0.55546  1.0000
  Fe  Fe138     1.0  0.50884  0.65292  0.61025  1.0000
  S   S271      1.0  0.50340  0.67169  0.61581  1.0000
  S   S272      1.0  0.51496  0.61974  0.59904  1.0000
  S   S273      1.0  0.51096  0.63828  0.65745  1.0000
  Fe  Fe139     1.0  0.35919  0.59922  0.79195  1.0000
  S   S274      1.0  0.35274  0.61783  0.78903  1.0000
  S   S275      1.0  0.37099  0.59630  0.73927  1.0000
  Fe  Fe140     1.0  0.34772  0.59008  0.87456  1.0000
  S   S276      1.0  0.34041  0.60765  0.87801  1.0000
  S   S277      1.0  0.34540  0.57369  0.92330  1.0000
  H   H1537     1.0  0.33042  0.63477  0.83700  1.0000
  H   H1538     1.0  0.52846  0.57755  0.57228  1.0000
  Fe  Fe141     1.0  0.35991  0.61870  0.84055  1.0000
  S   S278      1.0  0.37175  0.63525  0.85861  1.0000
  S   S279      1.0  0.33969  0.58657  0.82573  1.0000
  S   S280      1.0  0.36760  0.60107  0.84086  1.0000
  Fe  Fe142     1.0  0.46001  0.69174  0.77607  1.0000
  S   S281      1.0  0.45180  0.70226  0.73299  1.0000
  S   S282      1.0  0.47387  0.67880  0.76938  1.0000
  Fe  Fe143     1.0  0.44282  0.69883  0.83868  1.0000
  S   S283      1.0  0.43310  0.70977  0.80050  1.0000
  S   S284      1.0  0.43595  0.69445  0.90072  1.0000
  Fe  Fe144     1.0  0.43232  0.69312  0.77294  1.0000
  S   S285      1.0  0.41488  0.68392  0.75308  1.0000
  Fe  Fe145     1.0  0.45334  0.71803  0.76437  1.0000
  S   S286      1.0  0.44040  0.68158  0.81388  1.0000
  S   S287      1.0  0.46311  0.70821  0.80463  1.0000
  Fe  Fe146     1.0  0.58051  0.56882  0.75883  1.0000
  S   S288      1.0  0.59202  0.58322  0.70576  1.0000
  S   S289      1.0  0.57350  0.57243  0.81531  1.0000
  Fe  Fe147     1.0  0.57501  0.54694  0.71994  1.0000
  S   S290      1.0  0.58624  0.55920  0.66434  1.0000
  S   S291      1.0  0.56358  0.52644  0.72744  1.0000
  Fe  Fe148     1.0  0.60081  0.56673  0.69494  1.0000
  S   S292      1.0  0.62257  0.57036  0.67441  1.0000
  Fe  Fe149     1.0  0.57637  0.57443  0.67944  1.0000
  S   S293      1.0  0.56573  0.58251  0.63784  1.0000
  S   S294      1.0  0.59036  0.55303  0.74983  1.0000
  S   S295      1.0  0.56415  0.56152  0.73304  1.0000
  S   S296      1.0  0.60389  0.57919  0.94147  1.0000
  S   S297      1.0  0.51275  0.52189  0.84719  1.0000
  C   C1925     1.0  0.52760  0.56116  0.81369  1.0000
  C   C1926     1.0  0.51026  0.58122  0.59737  1.0000
  C   C1927     1.0  0.39609  0.72629  0.90010  1.0000
  H   H1539     1.0  0.42733  0.50803  0.60239  1.0000
  H   H1540     1.0  0.51187  0.69942  0.87253  1.0000
  C   C1928     1.0  0.64109  0.57083  0.61470  1.0000
  C   C1929     1.0  0.62989  0.56317  0.64082  1.0000
  C   C1930     1.0  0.62568  0.54993  0.64150  1.0000
  C   C1931     1.0  0.63290  0.54444  0.61637  1.0000
  H   H1541     1.0  0.64449  0.58100  0.61425  1.0000
  H   H1542     1.0  0.61714  0.54391  0.66201  1.0000
  H   H1543     1.0  0.62989  0.53421  0.61735  1.0000
  C   C1932     1.0  0.52697  0.52274  0.81482  1.0000
  C   C1933     1.0  0.52658  0.51523  0.78870  1.0000
  C   C1934     1.0  0.53787  0.51630  0.76194  1.0000
  C   C1935     1.0  0.54963  0.52460  0.76195  1.0000
  C   C1936     1.0  0.55013  0.53181  0.78876  1.0000
  C   C1937     1.0  0.53878  0.53100  0.81488  1.0000
  C   C1938     1.0  0.39033  0.73498  0.76350  1.0000
  H   H1544     1.0  0.41744  0.61349  0.89186  1.0000
  H   H1545     1.0  0.55928  0.53801  0.78950  1.0000
  H   H1546     1.0  0.53923  0.53661  0.83548  1.0000
  C   C1939     1.0  0.58222  0.57353  0.85011  1.0000
  C   C1940     1.0  0.57534  0.57314  0.88574  1.0000
  C   C1941     1.0  0.58187  0.57458  0.91401  1.0000
  C   C1942     1.0  0.59540  0.57664  0.90678  1.0000
  C   C1943     1.0  0.60230  0.57688  0.87124  1.0000
  C   C1944     1.0  0.59573  0.57524  0.84301  1.0000
  H   H1547     1.0  0.56490  0.57179  0.89147  1.0000
  H   H1548     1.0  0.57644  0.57432  0.94124  1.0000
  H   H1549     1.0  0.61276  0.57847  0.86544  1.0000
  H   H1550     1.0  0.60112  0.57562  0.81562  1.0000
  Fe  Fe150     1.0  0.66301  0.50806  0.51215  1.0000
  H   H1551     1.0  0.48214  0.49902  0.95917  1.0000
  C   C1945     1.0  0.42829  0.61788  0.96468  1.0000
  C   C1946     1.0  0.44679  0.70021  0.92655  1.0000
  C   C1947     1.0  0.45695  0.71144  0.91146  1.0000
  C   C1948     1.0  0.46469  0.71644  0.93391  1.0000
  C   C1949     1.0  0.42959  0.64192  0.87554  1.0000
  H   H1552     1.0  0.59325  0.62451  0.62522  1.0000
  H   H1553     1.0  0.45863  0.71640  0.88282  1.0000
  H   H1554     1.0  0.47246  0.72519  0.92252  1.0000
  C   C1950     1.0  0.38430  0.64803  0.82810  1.0000
  C   C1951     1.0  0.38521  0.65111  0.79009  1.0000
  C   C1952     1.0  0.39479  0.66202  0.76711  1.0000
  C   C1953     1.0  0.40367  0.66971  0.78187  1.0000
  C   C1954     1.0  0.40291  0.66644  0.81973  1.0000
  C   C1955     1.0  0.39317  0.65572  0.84281  1.0000
  H   H1555     1.0  0.37836  0.64529  0.77854  1.0000
  H   H1556     1.0  0.39527  0.66456  0.73783  1.0000
  H   H1557     1.0  0.40954  0.67250  0.83124  1.0000
  H   H1558     1.0  0.39238  0.65343  0.87226  1.0000
  C   C1956     1.0  0.33430  0.55388  0.86325  1.0000
  H   H1559     1.0  0.40986  0.70936  0.74774  1.0000
  H   H1560     1.0  0.48717  0.55701  0.52581  1.0000
  H   H1561     1.0  0.46662  0.58680  0.52283  1.0000
  C   C1957     1.0  0.36199  0.69245  0.86431  1.0000
  C   C1958     1.0  0.49107  0.56358  0.66223  1.0000
  H   H1562     1.0  0.33335  0.61255  0.97072  1.0000
  C   C1959     1.0  0.53523  0.58828  0.79666  1.0000
  C   C1960     1.0  0.49430  0.67294  0.65843  1.0000
  C   C1961     1.0  0.49353  0.66432  0.69172  1.0000
  C   C1962     1.0  0.48703  0.66611  0.72540  1.0000
  C   C1963     1.0  0.48100  0.67636  0.72613  1.0000
  C   C1964     1.0  0.48136  0.68471  0.69279  1.0000
  C   C1965     1.0  0.48813  0.68310  0.65914  1.0000
  H   H1563     1.0  0.49828  0.65651  0.69165  1.0000
  H   H1564     1.0  0.48684  0.65962  0.75104  1.0000
  H   H1565     1.0  0.47675  0.69264  0.69298  1.0000
  H   H1566     1.0  0.48866  0.68980  0.63352  1.0000
  C   C1966     1.0  0.54999  0.61849  0.64005  1.0000
  C   C1967     1.0  0.54644  0.61029  0.61735  1.0000
  C   C1968     1.0  0.55127  0.59925  0.61720  1.0000
  C   C1969     1.0  0.55932  0.59606  0.64064  1.0000
  C   C1970     1.0  0.56254  0.60401  0.66425  1.0000
  C   C1971     1.0  0.55803  0.61530  0.66355  1.0000
  H   H1567     1.0  0.54023  0.61259  0.59923  1.0000
  H   H1568     1.0  0.54890  0.59328  0.59844  1.0000
  H   H1569     1.0  0.56882  0.60168  0.68220  1.0000
  H   H1570     1.0  0.56086  0.62163  0.68107  1.0000
  C   C1972     1.0  0.38683  0.56044  0.73157  1.0000
  C   C1973     1.0  0.37929  0.56110  0.76532  1.0000
  C   C1974     1.0  0.37440  0.57203  0.76828  1.0000
  C   C1975     1.0  0.37690  0.58233  0.73732  1.0000
  C   C1976     1.0  0.38428  0.58157  0.70355  1.0000
  C   C1977     1.0  0.38932  0.57076  0.70069  1.0000
  H   H1571     1.0  0.37723  0.55313  0.78929  1.0000
  H   H1572     1.0  0.36869  0.57247  0.79443  1.0000
  H   H1573     1.0  0.38605  0.58937  0.67942  1.0000
  H   H1574     1.0  0.39503  0.57037  0.67452  1.0000
  C   C1978     1.0  0.59122  0.64363  0.60310  1.0000
  H   H1575     1.0  0.42749  0.64838  0.78561  1.0000
  H   H1576     1.0  0.45148  0.65530  0.77572  1.0000
  C   C1979     1.0  0.64407  0.55230  0.58998  1.0000
  H   H1577     1.0  0.38291  0.67916  0.81472  1.0000
  C   C1980     1.0  0.37097  0.73288  0.84337  1.0000
  H   H1578     1.0  0.54794  0.55470  0.62704  1.0000
  C   C1981     1.0  0.48900  0.70338  0.86007  1.0000
  H   H1579     1.0  0.37178  0.72429  0.83361  1.0000
  C   C1982     1.0  0.55126  0.51609  0.87765  1.0000
  C   C1983     1.0  0.45492  0.58855  0.61173  1.0000
  C   C1984     1.0  0.45320  0.58368  0.64962  1.0000
  C   C1985     1.0  0.46209  0.58914  0.66832  1.0000
  C   C1986     1.0  0.47253  0.59974  0.64950  1.0000
  C   C1987     1.0  0.47447  0.60446  0.61144  1.0000
  C   C1988     1.0  0.46568  0.59885  0.59257  1.0000
  H   H1580     1.0  0.44484  0.57599  0.66491  1.0000
  H   H1581     1.0  0.46082  0.58526  0.69747  1.0000
  H   H1582     1.0  0.48273  0.61241  0.59645  1.0000
  H   H1583     1.0  0.46725  0.60251  0.56316  1.0000
  C   C1989     1.0  0.41353  0.64998  0.93425  1.0000
  H   H1584     1.0  0.62716  0.56374  0.82027  1.0000
  C   C1990     1.0  0.41147  0.53880  0.51464  1.0000
  H   H1585     1.0  0.61347  0.50021  0.79254  1.0000
  P   P64       1.0  0.50826  0.57081  0.64260  1.0000
  C   C1991     1.0  0.53080  0.55590  0.97604  1.0000
  H   H1586     1.0  0.42439  0.55453  0.52693  1.0000
  C   C1992     1.0  0.48807  0.50188  0.97773  1.0000
  H   H1587     1.0  0.46295  0.55176  0.63735  1.0000
  S   S298      1.0  0.64600  0.51672  0.51427  1.0000
  C   C1993     1.0  0.42513  0.51176  0.54644  1.0000
  C   C1994     1.0  0.36896  0.54132  0.53479  1.0000
  C   C1995     1.0  0.50134  0.50797  0.96400  1.0000
  C   C1996     1.0  0.39719  0.60345  0.90541  1.0000
  H   H1588     1.0  0.34624  0.58081  0.74116  1.0000
  C   C1997     1.0  0.45149  0.52550  0.52701  1.0000
  H   H1589     1.0  0.34443  0.56882  0.69014  1.0000
  H   H1590     1.0  0.44775  0.57191  0.51161  1.0000
  P   P65       1.0  0.33602  0.65873  0.86523  1.0000
  C   C1998     1.0  0.40977  0.73009  0.88901  1.0000
  C   C1999     1.0  0.64490  0.52996  0.70209  1.0000
  C   C2000     1.0  0.50255  0.59639  0.55632  1.0000
  C   C2001     1.0  0.59048  0.51184  0.59407  1.0000
  C   C2002     1.0  0.58241  0.51739  0.61628  1.0000
  C   C2003     1.0  0.58715  0.52988  0.62079  1.0000
  C   C2004     1.0  0.59984  0.53703  0.60248  1.0000
  C   C2005     1.0  0.60780  0.53168  0.57960  1.0000
  C   C2006     1.0  0.60316  0.51913  0.57541  1.0000
  C   C2007     1.0  0.45949  0.51275  0.71065  1.0000
  Fe  Fe151     1.0  0.65844  0.50072  0.59751  1.0000
  H   H1591     1.0  0.53824  0.59880  0.79025  1.0000
  C   C2008     1.0  0.48757  0.53152  0.91670  1.0000
  C   C2009     1.0  0.36411  0.74248  0.89393  1.0000
  H   H1592     1.0  0.47779  0.54300  0.81053  1.0000
  H   H1593     1.0  0.53099  0.59196  0.51178  1.0000
  H   H1594     1.0  0.58097  0.53405  0.63849  1.0000
  H   H1595     1.0  0.60350  0.54674  0.60591  1.0000
  C   C2010     1.0  0.40873  0.64975  0.97149  1.0000
  H   H1596     1.0  0.60945  0.51511  0.55755  1.0000
  C   C2011     1.0  0.58131  0.49785  0.54188  1.0000
  C   C2012     1.0  0.46445  0.55195  0.69288  1.0000
  H   H1597     1.0  0.45918  0.62530  0.55843  1.0000
  H   H1598     1.0  0.33610  0.74643  0.76000  1.0000
  H   H1599     1.0  0.58348  0.51297  0.69968  1.0000
  C   C2013     1.0  0.46945  0.55432  0.65487  1.0000
  H   H1600     1.0  0.35584  0.55778  0.97127  1.0000
  H   H1601     1.0  0.64665  0.51074  0.69746  1.0000
  H   H1602     1.0  0.50544  0.51026  0.93447  1.0000
  C   C2014     1.0  0.56680  0.50108  0.50126  1.0000
  C   C2015     1.0  0.45685  0.55620  0.51147  1.0000
  C   C2016     1.0  0.55064  0.63539  0.52707  1.0000
  H   H1603     1.0  0.43057  0.52003  0.73685  1.0000
  C   C2017     1.0  0.35575  0.56649  0.98115  1.0000
  H   H1604     1.0  0.49903  0.51173  0.55880  1.0000
  H   H1605     1.0  0.41498  0.70140  0.87445  1.0000
  H   H1606     1.0  0.38244  0.69906  0.83715  1.0000
  C   C2018     1.0  0.44460  0.69387  0.96380  1.0000
  C   C2019     1.0  0.50674  0.53754  0.74334  1.0000
  P   P66       1.0  0.38117  0.74692  0.76993  1.0000
  C   C2020     1.0  0.53056  0.53898  0.63969  1.0000
  C   C2021     1.0  0.47085  0.68210  0.91120  1.0000
  H   H1607     1.0  0.51163  0.52549  0.65391  1.0000
  C   C2022     1.0  0.43914  0.51657  0.73912  1.0000
  Fe  Fe152     1.0  0.33372  0.60510  0.82659  1.0000
  H   H1608     1.0  0.44240  0.59124  0.50916  1.0000
  H   H1609     1.0  0.62473  0.51719  0.67600  1.0000
  P   P67       1.0  0.57239  0.65491  0.52343  1.0000
  H   H1610     1.0  0.38156  0.54685  0.57000  1.0000
  H   H1611     1.0  0.42065  0.70034  0.96948  1.0000
  H   H1612     1.0  0.36197  0.72201  0.89945  1.0000
  H   H1613     1.0  0.39885  0.59560  0.89281  1.0000
  H   H1614     1.0  0.53175  0.55985  0.88464  1.0000
  C   C2023     1.0  0.35562  0.74641  0.76476  1.0000
  C   C2024     1.0  0.47594  0.63539  0.51410  1.0000
  H   H1615     1.0  0.40029  0.67848  0.96078  1.0000
  H   H1616     1.0  0.58484  0.68319  0.50081  1.0000
  C   C2025     1.0  0.41265  0.59112  0.49237  1.0000
  C   C2026     1.0  0.35448  0.53866  0.73659  1.0000
  C   C2027     1.0  0.49235  0.51758  0.56528  1.0000
  C   C2028     1.0  0.41098  0.72918  0.75069  1.0000
  H   H1617     1.0  0.46151  0.65396  0.82910  1.0000
  C   C2029     1.0  0.36764  0.54256  0.49844  1.0000
  C   C2030     1.0  0.52210  0.58184  0.80250  1.0000
  H   H1618     1.0  0.63961  0.52926  0.80994  1.0000
  H   H1619     1.0  0.50185  0.57808  0.75288  1.0000
  C   C2031     1.0  0.47289  0.57926  0.82851  1.0000
  H   H1620     1.0  0.49962  0.54238  0.65399  1.0000
  H   H1621     1.0  0.53064  0.50958  0.67838  1.0000
  H   H1622     1.0  0.59666  0.64819  0.62048  1.0000
  H   H1623     1.0  0.35973  0.74146  0.92277  1.0000
  C   C2032     1.0  0.63391  0.54644  0.81850  1.0000
  C   C2033     1.0  0.33385  0.62141  0.95098  1.0000
  H   H1624     1.0  0.50078  0.55658  0.95102  1.0000
  H   H1625     1.0  0.48265  0.52128  0.92534  1.0000
  C   C2034     1.0  0.52832  0.53517  0.95909  1.0000
  C   C2035     1.0  0.38028  0.54820  0.54198  1.0000
  C   C2036     1.0  0.33948  0.66467  0.75378  1.0000
  H   H1626     1.0  0.48632  0.57929  0.52957  1.0000
  C   C2037     1.0  0.43592  0.64008  0.96905  1.0000
  C   C2038     1.0  0.40440  0.71646  0.75240  1.0000
  P   P68       1.0  0.46815  0.53527  0.51468  1.0000
  C   C2039     1.0  0.54735  0.67969  0.57382  1.0000
  H   H1627     1.0  0.54770  0.72994  0.77273  1.0000
  C   C2040     1.0  0.52254  0.59077  0.53380  1.0000
  H   H1628     1.0  0.43685  0.68507  0.97537  1.0000
  H   H1629     1.0  0.48781  0.73661  0.71401  1.0000
  C   C2041     1.0  0.58240  0.62443  0.58323  1.0000
  P   P69       1.0  0.50040  0.71739  0.82758  1.0000
  C   C2042     1.0  0.49820  0.71859  0.78099  1.0000
  C   C2043     1.0  0.50128  0.70926  0.76214  1.0000
  C   C2044     1.0  0.49934  0.70969  0.72662  1.0000
  C   C2045     1.0  0.49442  0.71949  0.70939  1.0000
  C   C2046     1.0  0.49173  0.72906  0.72735  1.0000
  C   C2047     1.0  0.49373  0.72872  0.76283  1.0000
  C   C2048     1.0  0.48189  0.69327  0.84800  1.0000
  C   C2049     1.0  0.47274  0.68278  0.87341  1.0000
  C   C2050     1.0  0.55222  0.67122  0.59676  1.0000
  H   H1630     1.0  0.47887  0.72981  0.83739  1.0000
  H   H1631     1.0  0.65656  0.57164  0.56893  1.0000
  H   H1632     1.0  0.50485  0.70140  0.77525  1.0000
  H   H1633     1.0  0.50136  0.70220  0.71281  1.0000
  H   H1634     1.0  0.49259  0.71959  0.68225  1.0000
  H   H1635     1.0  0.58765  0.66138  0.57624  1.0000
  C   C2051     1.0  0.59110  0.49829  0.51117  1.0000
  H   H1636     1.0  0.48305  0.69354  0.81902  1.0000
  H   H1637     1.0  0.46699  0.67530  0.86353  1.0000
  C   C2052     1.0  0.40096  0.60911  0.80491  1.0000
  C   C2053     1.0  0.40060  0.62212  0.79797  1.0000
  C   C2054     1.0  0.40813  0.63075  0.76507  1.0000
  C   C2055     1.0  0.41613  0.62639  0.73935  1.0000
  C   C2056     1.0  0.41652  0.61329  0.74617  1.0000
  C   C2057     1.0  0.40875  0.60465  0.77903  1.0000
  P   P70       1.0  0.42659  0.60763  0.71232  1.0000
  C   C2058     1.0  0.42875  0.59208  0.73339  1.0000
  C   C2059     1.0  0.41900  0.60578  0.67437  1.0000
  C   C2060     1.0  0.42239  0.59748  0.65206  1.0000
  C   C2061     1.0  0.41684  0.59625  0.62209  1.0000
  C   C2062     1.0  0.40790  0.60329  0.61403  1.0000
  C   C2063     1.0  0.40442  0.61153  0.63613  1.0000
  C   C2064     1.0  0.40988  0.61272  0.66631  1.0000
  C   C2065     1.0  0.44013  0.59113  0.74522  1.0000
  C   C2066     1.0  0.44163  0.57897  0.76137  1.0000
  C   C2067     1.0  0.43182  0.56772  0.76568  1.0000
  C   C2068     1.0  0.42043  0.56862  0.75433  1.0000
  C   C2069     1.0  0.41888  0.58074  0.73832  1.0000
  C   C2070     1.0  0.44232  0.61922  0.69510  1.0000
  C   C2071     1.0  0.44741  0.62699  0.71737  1.0000
  C   C2072     1.0  0.45948  0.63614  0.70361  1.0000
  C   C2073     1.0  0.46660  0.63748  0.66777  1.0000
  C   C2074     1.0  0.46170  0.62961  0.64579  1.0000
  C   C2075     1.0  0.44968  0.62045  0.65941  1.0000
  H   H1638     1.0  0.39495  0.60235  0.83000  1.0000
  H   H1639     1.0  0.39431  0.62546  0.81781  1.0000
  H   H1640     1.0  0.40768  0.64080  0.75940  1.0000
  H   H1641     1.0  0.42188  0.63319  0.71391  1.0000
  H   H1642     1.0  0.40854  0.59446  0.78480  1.0000
  H   H1643     1.0  0.42937  0.59199  0.65765  1.0000
  H   H1644     1.0  0.41950  0.58978  0.60518  1.0000
  H   H1645     1.0  0.40357  0.60226  0.59093  1.0000
  H   H1646     1.0  0.39728  0.61680  0.63043  1.0000
  H   H1647     1.0  0.40680  0.61895  0.68334  1.0000
  H   H1648     1.0  0.44798  0.59969  0.74135  1.0000
  H   H1649     1.0  0.45053  0.57824  0.76968  1.0000
  H   H1650     1.0  0.43305  0.55828  0.77758  1.0000
  H   H1651     1.0  0.41280  0.55991  0.75771  1.0000
  H   H1652     1.0  0.40996  0.58126  0.72983  1.0000
  H   H1653     1.0  0.44211  0.62601  0.74534  1.0000
  H   H1654     1.0  0.46338  0.64220  0.72063  1.0000
  H   H1655     1.0  0.47598  0.64454  0.65714  1.0000
  H   H1656     1.0  0.46728  0.63046  0.61826  1.0000
  H   H1657     1.0  0.44627  0.61432  0.64203  1.0000
  C   C2076     1.0  0.51695  0.53559  0.64720  1.0000
  H   H1658     1.0  0.54616  0.68703  0.51812  1.0000
  C   C2077     1.0  0.46705  0.57708  0.52058  1.0000
  H   H1659     1.0  0.48642  0.56160  0.61009  1.0000
  H   H1660     1.0  0.33659  0.65059  0.72104  1.0000
  C   C2078     1.0  0.47819  0.69189  0.92357  1.0000
  H   H1661     1.0  0.42473  0.73925  0.81576  1.0000
  H   H1662     1.0  0.58388  0.51731  0.76105  1.0000
  S   S299      1.0  0.44646  0.52366  0.66284  1.0000
  C   C2079     1.0  0.44210  0.73307  0.95159  1.0000
  C   C2080     1.0  0.34343  0.54176  0.75448  1.0000
  C   C2081     1.0  0.45173  0.50633  0.77741  1.0000
  H   H1663     1.0  0.55240  0.71292  0.81814  1.0000
  H   H1664     1.0  0.61761  0.53729  0.56510  1.0000
  C   C2082     1.0  0.48711  0.70256  0.89815  1.0000
  C   C2083     1.0  0.35060  0.68246  0.87198  1.0000
  C   C2084     1.0  0.51457  0.58110  0.67094  1.0000
  C   C2085     1.0  0.51097  0.59276  0.67133  1.0000
  C   C2086     1.0  0.51667  0.60141  0.69022  1.0000
  C   C2087     1.0  0.52598  0.59846  0.70904  1.0000
  C   C2088     1.0  0.52925  0.58664  0.71006  1.0000
  C   C2089     1.0  0.52335  0.57784  0.69191  1.0000
  H   H1665     1.0  0.50391  0.59531  0.65658  1.0000
  H   H1666     1.0  0.51414  0.61060  0.68929  1.0000
  H   H1667     1.0  0.53085  0.60546  0.72212  1.0000
  H   H1668     1.0  0.53667  0.58441  0.72399  1.0000
  H   H1669     1.0  0.52597  0.56872  0.69387  1.0000
  C   C2090     1.0  0.52886  0.54149  0.92272  1.0000
  H   H1670     1.0  0.53613  0.57164  0.62681  1.0000
  H   H1671     1.0  0.46798  0.53797  0.58985  1.0000
  C   C2091     1.0  0.39615  0.70447  0.89392  1.0000
  C   C2092     1.0  0.38934  0.71349  0.90285  1.0000
  H   H1672     1.0  0.49271  0.58760  0.61282  1.0000
  C   C2093     1.0  0.44537  0.65131  0.80347  1.0000
  H   H1673     1.0  0.39098  0.69452  0.89625  1.0000
  H   H1674     1.0  0.37884  0.71051  0.91215  1.0000
  C   C2094     1.0  0.40855  0.67074  0.91640  1.0000
  H   H1675     1.0  0.49239  0.71023  0.90835  1.0000
  C   C2095     1.0  0.41353  0.66064  0.90686  1.0000
  H   H1676     1.0  0.46669  0.51324  0.68621  1.0000
  C   C2096     1.0  0.33547  0.64404  0.89807  1.0000
  H   H1677     1.0  0.49495  0.51661  0.62057  1.0000
  H   H1678     1.0  0.49231  0.56326  0.71853  1.0000
  H   H1679     1.0  0.48933  0.53314  0.97126  1.0000
  C   C2097     1.0  0.48600  0.56096  0.70046  1.0000
  C   C2098     1.0  0.49701  0.55112  0.86758  1.0000
  C   C2099     1.0  0.40968  0.70830  0.88186  1.0000
  C   C2100     1.0  0.50814  0.73816  0.85945  1.0000
  S   S300      1.0  0.46076  0.73926  0.73319  1.0000
  H   H1680     1.0  0.47956  0.53002  0.63540  1.0000
  C   C2101     1.0  0.40768  0.61355  0.90518  1.0000
  H   H1681     1.0  0.65499  0.51723  0.75883  1.0000
  C   C2102     1.0  0.35818  0.55728  0.68579  1.0000
  H   H1682     1.0  0.37635  0.59579  0.92115  1.0000
  H   H1683     1.0  0.45035  0.51982  0.58581  1.0000
  C   C2103     1.0  0.49381  0.57836  0.77419  1.0000
  C   C2104     1.0  0.51695  0.55835  0.63980  1.0000
  H   H1684     1.0  0.56325  0.65705  0.60027  1.0000
  H   H1685     1.0  0.51449  0.60414  0.50111  1.0000
  P   P71       1.0  0.41929  0.63654  0.92184  1.0000
  C   C2105     1.0  0.47272  0.55525  0.71567  1.0000
  C   C2106     1.0  0.50912  0.54642  0.76508  1.0000
  H   H1686     1.0  0.44779  0.64579  0.89259  1.0000
  C   C2107     1.0  0.47558  0.58722  0.79294  1.0000
  S   S301      1.0  0.64070  0.50865  0.60528  1.0000
  C   C2108     1.0  0.48273  0.55997  0.63958  1.0000
  Fe  Fe153     1.0  0.65273  0.52531  0.55887  1.0000
  C   C2109     1.0  0.45643  0.56876  0.51406  1.0000
  C   C2110     1.0  0.51825  0.56820  0.81021  1.0000
  H   H1687     1.0  0.36298  0.66139  0.82848  1.0000
  C   C2111     1.0  0.49130  0.57047  0.80988  1.0000
  H   H1688     1.0  0.41741  0.66127  0.87806  1.0000
  C   C2112     1.0  0.38380  0.72212  0.76527  1.0000
  H   H1689     1.0  0.43335  0.51015  0.79854  1.0000
  H   H1690     1.0  0.35400  0.62990  0.94830  1.0000
  H   H1691     1.0  0.46357  0.67412  0.93085  1.0000
  C   C2113     1.0  0.52706  0.72442  0.79712  1.0000
  H   H1692     1.0  0.40866  0.67888  0.89489  1.0000
  C   C2114     1.0  0.53063  0.56164  0.63187  1.0000
  H   H1693     1.0  0.49214  0.52372  0.72926  1.0000
  C   C2115     1.0  0.47812  0.57281  0.52454  1.0000
  C   C2116     1.0  0.49399  0.53073  0.74571  1.0000
  C   C2117     1.0  0.54498  0.50461  0.86998  1.0000
  H   H1694     1.0  0.47664  0.69146  0.95287  1.0000
  C   C2118     1.0  0.47853  0.56018  0.52243  1.0000
  H   H1695     1.0  0.44206  0.72401  0.96958  1.0000
  H   H1696     1.0  0.53380  0.57267  0.93162  1.0000
  H   H1697     1.0  0.48752  0.51974  0.51252  1.0000
  C   C2119     1.0  0.47488  0.53241  0.58246  1.0000
  H   H1698     1.0  0.51485  0.53580  0.72517  1.0000
  C   C2120     1.0  0.48362  0.53279  0.76989  1.0000
  C   C2121     1.0  0.52106  0.58260  0.56842  1.0000
  H   H1699     1.0  0.51507  0.58755  0.80100  1.0000
  H   H1700     1.0  0.50566  0.56806  0.88526  1.0000
  C   C2122     1.0  0.46781  0.55172  0.51621  1.0000
  C   C2123     1.0  0.44319  0.64597  0.86965  1.0000
  C   C2124     1.0  0.43521  0.59400  0.49514  1.0000
  C   C2125     1.0  0.37393  0.68005  0.83100  1.0000
  H   H1701     1.0  0.41349  0.63985  0.84870  1.0000
  H   H1702     1.0  0.46881  0.55333  0.74516  1.0000
  C   C2126     1.0  0.54071  0.56762  0.80725  1.0000
  C   C2127     1.0  0.61588  0.51692  0.69528  1.0000
  H   H1703     1.0  0.45416  0.54744  0.70464  1.0000
  C   C2128     1.0  0.48070  0.57087  0.83701  1.0000
  C   C2129     1.0  0.57858  0.64512  0.55654  1.0000
  H   H1704     1.0  0.53370  0.62020  0.53059  1.0000
  H   H1705     1.0  0.49556  0.60201  0.55177  1.0000
  C   C2130     1.0  0.48597  0.54162  0.79176  1.0000
  C   C2131     1.0  0.60409  0.51448  0.68457  1.0000
  C   C2132     1.0  0.36545  0.73154  0.88076  1.0000
  C   C2133     1.0  0.44529  0.51921  0.56399  1.0000
  H   H1706     1.0  0.54790  0.56208  0.80933  1.0000
  H   H1707     1.0  0.48074  0.64101  0.53069  1.0000
  H   H1708     1.0  0.52473  0.55064  0.82135  1.0000
  C   C2134     1.0  0.49875  0.54834  0.79011  1.0000
  H   H1709     1.0  0.51908  0.55158  0.76222  1.0000
  H   H1710     1.0  0.42362  0.72541  0.94142  1.0000
  C   C2135     1.0  0.43185  0.64737  0.80908  1.0000
  C   C2136     1.0  0.63513  0.53674  0.79943  1.0000
  C   C2137     1.0  0.46123  0.50747  0.74562  1.0000
  H   H1711     1.0  0.48807  0.59283  0.73816  1.0000
  C   C2138     1.0  0.40398  0.66001  0.98098  1.0000
  C   C2139     1.0  0.56928  0.49967  0.53649  1.0000
  C   C2140     1.0  0.54456  0.58118  0.79862  1.0000
  C   C2141     1.0  0.45779  0.61909  0.50834  1.0000
  H   H1712     1.0  0.47839  0.56467  0.86455  1.0000
  H   H1713     1.0  0.55476  0.58614  0.79371  1.0000
  C   C2142     1.0  0.35159  0.57647  0.96164  1.0000
  C   C2143     1.0  0.51327  0.59763  0.52773  1.0000
  C   C2144     1.0  0.50103  0.58824  0.59096  1.0000
  C   C2145     1.0  0.50051  0.55788  0.89380  1.0000
  P   P72       1.0  0.50136  0.55954  0.81936  1.0000
  H   H1714     1.0  0.55058  0.52908  0.91371  1.0000
  Fe  Fe154     1.0  0.49726  0.50440  0.84807  1.0000
  H   H1715     1.0  0.46962  0.59379  0.78623  1.0000
  C   C2146     1.0  0.49049  0.53787  0.87939  1.0000
  H   H1716     1.0  0.48800  0.53222  0.86000  1.0000
  C   C2147     1.0  0.62816  0.55624  0.80547  1.0000
  C   C2148     1.0  0.42397  0.64261  0.84492  1.0000
  C   C2149     1.0  0.48601  0.58672  0.76579  1.0000
  C   C2150     1.0  0.37363  0.69127  0.84367  1.0000
  C   C2151     1.0  0.44073  0.51097  0.77403  1.0000
  C   C2152     1.0  0.47693  0.52951  0.54766  1.0000
  H   H1717     1.0  0.56026  0.52217  0.85904  1.0000
  C   C2153     1.0  0.63397  0.51010  0.77221  1.0000
  C   C2154     1.0  0.42842  0.63105  0.95426  1.0000
  C   C2155     1.0  0.44843  0.51732  0.70726  1.0000
  H   H1718     1.0  0.43630  0.65032  0.96113  1.0000
  C   C2156     1.0  0.40558  0.62364  0.92196  1.0000
  C   C2157     1.0  0.45103  0.65059  0.83371  1.0000
  C   C2158     1.0  0.43216  0.51243  0.57362  1.0000
  C   C2159     1.0  0.48144  0.52786  0.60848  1.0000
  C   C2160     1.0  0.51955  0.70622  0.85075  1.0000
  P   P73       1.0  0.63153  0.52413  0.74270  1.0000
  H   H1719     1.0  0.39955  0.70585  0.97045  1.0000
  H   H1720     1.0  0.37242  0.61370  0.94991  1.0000
  C   C2161     1.0  0.62373  0.55642  0.77320  1.0000
  C   C2162     1.0  0.48673  0.73519  0.84680  1.0000
  C   C2163     1.0  0.33586  0.65587  0.81990  1.0000
  H   H1721     1.0  0.39076  0.63129  0.95104  1.0000
  C   C2164     1.0  0.49772  0.55143  0.93108  1.0000
  C   C2165     1.0  0.37503  0.74519  0.81878  1.0000
  C   C2166     1.0  0.38230  0.61359  0.93788  1.0000
  C   C2167     1.0  0.42141  0.55025  0.50539  1.0000
  C   C2168     1.0  0.62334  0.49983  0.79309  1.0000
  H   H1722     1.0  0.39061  0.73312  0.90699  1.0000
  H   H1723     1.0  0.36405  0.56339  0.65950  1.0000
  C   C2169     1.0  0.53199  0.56220  0.93944  1.0000
  C   C2170     1.0  0.63046  0.53674  0.76732  1.0000
  H   H1724     1.0  0.42566  0.51764  0.48867  1.0000
  C   C2171     1.0  0.40399  0.73843  0.75601  1.0000
  H   H1725     1.0  0.62134  0.54704  0.72924  1.0000
  C   C2172     1.0  0.64664  0.50933  0.77417  1.0000
  C   C2173     1.0  0.51015  0.54523  0.64726  1.0000
  H   H1726     1.0  0.41483  0.50689  0.55412  1.0000
  C   C2174     1.0  0.36185  0.54642  0.70230  1.0000
  H   H1727     1.0  0.61941  0.56410  0.76268  1.0000
  H   H1728     1.0  0.33259  0.54845  0.97646  1.0000
  C   C2175     1.0  0.49847  0.73149  0.84482  1.0000
  C   C2176     1.0  0.43122  0.51789  0.50958  1.0000
  H   H1729     1.0  0.44845  0.61232  0.52130  1.0000
  C   C2177     1.0  0.49010  0.52037  0.60004  1.0000
  C   C2178     1.0  0.41649  0.72100  0.87946  1.0000
  H   H1730     1.0  0.57164  0.62692  0.54183  1.0000
  H   H1731     1.0  0.37327  0.71920  0.77067  1.0000
  C   C2179     1.0  0.44429  0.52486  0.49990  1.0000
  C   C2180     1.0  0.33985  0.55286  0.73854  1.0000
  H   H1732     1.0  0.53588  0.53158  0.64024  1.0000
  H   H1733     1.0  0.41924  0.58001  0.53523  1.0000
  C   C2181     1.0  0.59256  0.51448  0.70839  1.0000
  C   C2182     1.0  0.36259  0.67001  0.83878  1.0000
  H   H1734     1.0  0.36171  0.70116  0.87396  1.0000
  H   H1735     1.0  0.54093  0.68505  0.58569  1.0000
  H   H1736     1.0  0.53440  0.69774  0.86793  1.0000
  H   H1737     1.0  0.45737  0.73899  0.81106  1.0000
  H   H1738     1.0  0.60068  0.49754  0.51424  1.0000
  C   C2183     1.0  0.62486  0.54672  0.75423  1.0000
  C   C2184     1.0  0.53738  0.55200  0.63205  1.0000
  C   C2185     1.0  0.35082  0.67117  0.85914  1.0000
  C   C2186     1.0  0.61623  0.51966  0.72979  1.0000
  H   H1739     1.0  0.35753  0.53038  0.74952  1.0000
  C   C2187     1.0  0.51682  0.71585  0.82518  1.0000
  C   C2188     1.0  0.59279  0.51693  0.74305  1.0000
  H   H1740     1.0  0.34285  0.55413  0.87439  1.0000
  H   H1741     1.0  0.51759  0.50869  0.78884  1.0000
  C   C2189     1.0  0.58937  0.63032  0.60568  1.0000
  H   H1742     1.0  0.35893  0.53691  0.49329  1.0000
  H   H1743     1.0  0.53746  0.51080  0.74109  1.0000
  C   C2190     1.0  0.64991  0.54332  0.68604  1.0000
  H   H1744     1.0  0.46990  0.50431  0.74817  1.0000
  C   C2191     1.0  0.38450  0.60351  0.92155  1.0000
  H   H1745     1.0  0.60457  0.52180  0.78032  1.0000
  H   H1746     1.0  0.44844  0.54999  0.50655  1.0000
  C   C2192     1.0  0.39278  0.62359  0.93834  1.0000
  C   C2193     1.0  0.55027  0.68077  0.53574  1.0000
  H   H1747     1.0  0.39920  0.56133  0.51854  1.0000
  H   H1748     1.0  0.33827  0.73869  0.70245  1.0000
  H   H1749     1.0  0.51708  0.73522  0.85983  1.0000
  C   C2194     1.0  0.40752  0.53345  0.48637  1.0000
  S   S302      1.0  0.50906  0.62929  0.50360  1.0000
  C   C2195     1.0  0.60456  0.51953  0.75375  1.0000
  C   C2196     1.0  0.34629  0.64250  0.91220  1.0000
  H   H1750     1.0  0.54224  0.61032  0.96670  1.0000
  H   H1751     1.0  0.49153  0.73627  0.77575  1.0000
  H   H1752     1.0  0.54956  0.67000  0.62642  1.0000
  H   H1753     1.0  0.35547  0.64981  0.90261  1.0000
  H   H1754     1.0  0.39976  0.52464  0.49343  1.0000
  H   H1755     1.0  0.42704  0.72367  0.87058  1.0000
  C   C2197     1.0  0.35160  0.58776  0.97465  1.0000
  H   H1756     1.0  0.38582  0.70309  0.76015  1.0000
  H   H1757     1.0  0.34165  0.68372  0.88732  1.0000
  H   H1758     1.0  0.60395  0.51311  0.65720  1.0000
  H   H1759     1.0  0.34618  0.60386  0.72484  1.0000
  H   H1760     1.0  0.37060  0.54415  0.68894  1.0000
  C   C2198     1.0  0.66070  0.52550  0.65465  1.0000
  H   H1761     1.0  0.57246  0.51216  0.63005  1.0000
  H   H1762     1.0  0.34826  0.59547  0.95987  1.0000
  H   H1763     1.0  0.52783  0.53604  0.90182  1.0000
  H   H1764     1.0  0.63740  0.54639  0.84345  1.0000
  C   C2199     1.0  0.40387  0.67050  0.95343  1.0000
  C   C2200     1.0  0.53985  0.72337  0.79463  1.0000
  C   C2201     1.0  0.39025  0.55640  0.51287  1.0000
  S   S303      1.0  0.65378  0.54635  0.55767  1.0000
  C   C2202     1.0  0.56003  0.66386  0.58171  1.0000
  C   C2203     1.0  0.39083  0.71294  0.75949  1.0000
  C   C2204     1.0  0.54249  0.71377  0.82018  1.0000
  C   C2205     1.0  0.54566  0.52006  0.90845  1.0000
  H   H1765     1.0  0.54907  0.50184  0.84530  1.0000
  H   H1766     1.0  0.34473  0.55552  0.80804  1.0000
  C   C2206     1.0  0.34714  0.56043  0.70361  1.0000
  C   C2207     1.0  0.33638  0.65210  0.74851  1.0000
  C   C2208     1.0  0.64796  0.56551  0.58908  1.0000
  C   C2209     1.0  0.46382  0.62654  0.52964  1.0000
  C   C2210     1.0  0.53090  0.55498  0.91290  1.0000
  C   C2211     1.0  0.34548  0.63120  0.93846  1.0000
  C   C2212     1.0  0.57701  0.63177  0.55878  1.0000
  C   C2213     1.0  0.33529  0.55457  0.82564  1.0000
  C   C2214     1.0  0.49129  0.53823  0.94252  1.0000
  C   C2215     1.0  0.53365  0.51260  0.93167  1.0000
  H   H1767     1.0  0.58096  0.61409  0.58533  1.0000
  C   C2216     1.0  0.42206  0.58765  0.51003  1.0000
  H   H1768     1.0  0.65848  0.49769  0.79648  1.0000
  H   H1769     1.0  0.45385  0.49824  0.63643  1.0000
  H   H1770     1.0  0.34180  0.67638  0.79279  1.0000
  H   H1771     1.0  0.36135  0.53477  0.55739  1.0000
  C   C2217     1.0  0.46224  0.71032  0.97141  1.0000
  C   C2218     1.0  0.33311  0.64144  0.77869  1.0000
  H   H1772     1.0  0.64576  0.55044  0.69697  1.0000
  C   C2219     1.0  0.65037  0.52108  0.68601  1.0000
  H   H1773     1.0  0.46472  0.57957  0.84945  1.0000
  C   C2220     1.0  0.58600  0.65105  0.57827  1.0000
  P   P74       1.0  0.52656  0.51788  0.97134  1.0000
  C   C2221     1.0  0.53235  0.70522  0.84822  1.0000
  H   H1774     1.0  0.54887  0.63419  0.55673  1.0000
  H   H1775     1.0  0.42153  0.73186  0.74464  1.0000
  H   H1776     1.0  0.42255  0.61066  0.95413  1.0000
  C   C2222     1.0  0.48577  0.52211  0.53913  1.0000
  H   H1777     1.0  0.33779  0.53560  0.78098  1.0000
  C   C2223     1.0  0.51867  0.50153  0.64449  1.0000
  C   C2224     1.0  0.43168  0.73390  0.93521  1.0000
  H   H1778     1.0  0.52514  0.73186  0.77699  1.0000
  H   H1779     1.0  0.56180  0.49991  0.55956  1.0000
  S   S304      1.0  0.47699  0.49973  0.88262  1.0000
  H   H1780     1.0  0.34209  0.67295  0.73033  1.0000
  C   C2225     1.0  0.55799  0.67333  0.52064  1.0000
  C   C2226     1.0  0.56304  0.66490  0.54348  1.0000
  C   C2227     1.0  0.36872  0.73986  0.71603  1.0000
  H   H1781     1.0  0.55742  0.50228  0.49731  1.0000
  H   H1782     1.0  0.33087  0.63171  0.77435  1.0000
  C   C2228     1.0  0.35821  0.73789  0.69934  1.0000
  C   C2229     1.0  0.33928  0.66656  0.78925  1.0000
  C   C2230     1.0  0.34642  0.74014  0.71537  1.0000
  C   C2231     1.0  0.36742  0.74390  0.74927  1.0000
  Fe  Fe155     1.0  0.63574  0.49929  0.56009  1.0000
  C   C2232     1.0  0.52777  0.50074  0.92486  1.0000
  C   C2233     1.0  0.66023  0.54768  0.65462  1.0000
  C   C2234     1.0  0.34517  0.74445  0.74792  1.0000
  C   C2235     1.0  0.33284  0.64326  0.81431  1.0000
  H   H1783     1.0  0.35923  0.73473  0.67379  1.0000
  H   H1784     1.0  0.37787  0.73832  0.70284  1.0000
  C   C2236     1.0  0.45267  0.74385  0.94457  1.0000
  C   C2237     1.0  0.54207  0.62744  0.51241  1.0000
  C   C2238     1.0  0.33722  0.58333  0.73868  1.0000
  H   H1785     1.0  0.40245  0.58618  0.50387  1.0000
  C   C2239     1.0  0.48495  0.74576  0.86142  1.0000
  H   H1786     1.0  0.60937  0.49853  0.62470  1.0000
  H   H1787     1.0  0.52559  0.50670  0.61870  1.0000
  H   H1788     1.0  0.41074  0.74550  0.96632  1.0000
  C   C2240     1.0  0.43186  0.74548  0.91081  1.0000
  H   H1789     1.0  0.46083  0.74307  0.95697  1.0000
  C   C2241     1.0  0.33718  0.59643  0.72977  1.0000
  C   C2242     1.0  0.56142  0.64489  0.50362  1.0000
  S   S305      1.0  0.49108  0.49930  0.79844  1.0000
  C   C2243     1.0  0.52152  0.50321  0.67795  1.0000
  C   C2244     1.0  0.64866  0.49828  0.79563  1.0000
  P   P75       1.0  0.41872  0.74635  0.88774  1.0000
  S   S306      1.0  0.45313  0.49905  0.82176  1.0000
  H   H1790     1.0  0.51496  0.49750  0.73721  1.0000
  H   H1791     1.0  0.55981  0.67395  0.49123  1.0000
  C   C2245     1.0  0.58659  0.66479  0.48868  1.0000
  Fe  Fe156     1.0  0.51723  0.93375  0.24835  1.0000
  S   S307      1.0  0.51963  0.91678  0.28729  1.0000
  S   S308      1.0  0.49829  0.93916  0.24862  1.0000
  Fe  Fe157     1.0  0.54605  0.94313  0.21159  1.0000
  S   S309      1.0  0.55059  0.92632  0.24843  1.0000
  S   S310      1.0  0.55758  0.95957  0.16118  1.0000
  Fe  Fe158     1.0  0.53258  0.91364  0.23822  1.0000
  S   S311      1.0  0.52934  0.89247  0.23274  1.0000
  Fe  Fe159     1.0  0.53693  0.93064  0.29513  1.0000
  S   S312      1.0  0.53350  0.92957  0.35703  1.0000
  S   S313      1.0  0.52914  0.92999  0.19874  1.0000
  S   S314      1.0  0.53359  0.94787  0.25863  1.0000
  Fe  Fe160     1.0  0.43095  0.89760  0.31781  1.0000
  S   S315      1.0  0.41096  0.88514  0.34598  1.0000
  S   S316      1.0  0.44914  0.89242  0.32808  1.0000
  Fe  Fe161     1.0  0.42164  0.91699  0.26787  1.0000
  S   S317      1.0  0.40046  0.90595  0.29185  1.0000
  H   H1792     1.0  0.37491  0.86774  0.17533  1.0000
  Fe  Fe162     1.0  0.40590  0.90410  0.34727  1.0000
  S   S318      1.0  0.39280  0.90719  0.39764  1.0000
  Fe  Fe163     1.0  0.40697  0.88756  0.28906  1.0000
  S   S319      1.0  0.39834  0.86806  0.27604  1.0000
  S   S320      1.0  0.42630  0.91642  0.32316  1.0000
  S   S321      1.0  0.42762  0.89875  0.26137  1.0000
  H   H1793     1.0  0.49558  0.91153  0.27521  1.0000
  H   H1794     1.0  0.48625  0.88597  0.10134  1.0000
  Fe  Fe164     1.0  0.45646  0.82030  0.16513  1.0000
  S   S322      1.0  0.46243  0.84081  0.13171  1.0000
  S   S323      1.0  0.43907  0.81202  0.21334  1.0000
  Fe  Fe165     1.0  0.47949  0.81323  0.12410  1.0000
  S   S324      1.0  0.48792  0.83354  0.08744  1.0000
  S   S325      1.0  0.48774  0.79602  0.11579  1.0000
  Fe  Fe166     1.0  0.48271  0.84098  0.13882  1.0000
  S   S326      1.0  0.49318  0.86115  0.14507  1.0000
  Fe  Fe167     1.0  0.46737  0.83237  0.08289  1.0000
  S   S327      1.0  0.46092  0.83878  0.03042  1.0000
  S   S328      1.0  0.47627  0.82065  0.17597  1.0000
  S   S329      1.0  0.45933  0.81178  0.11600  1.0000
  H   H1795     1.0  0.39537  0.78320  0.25422  1.0000
  H   H1796     1.0  0.47676  0.78740  0.05209  1.0000
  H   H1797     1.0  0.43457  0.78576  0.17924  1.0000
  C   C2246     1.0  0.47312  0.75815  0.11541  1.0000
  C   C2247     1.0  0.43248  0.77991  0.12935  1.0000
  S   S330      1.0  0.35951  0.78683  0.13463  1.0000
  H   H1798     1.0  0.41479  0.76921  0.21824  1.0000
  H   H1799     1.0  0.38029  0.83110  0.22670  1.0000
  Fe  Fe168     1.0  0.37260  0.79519  0.16784  1.0000
  H   H1800     1.0  0.45980  0.89154  0.39283  1.0000
  C   C2248     1.0  0.48155  0.77053  0.11046  1.0000
  H   H1801     1.0  0.50473  0.76927  0.27093  1.0000
  H   H1802     1.0  0.46857  0.85306  0.24508  1.0000
  H   H1803     1.0  0.52394  0.78796  0.24655  1.0000
  C   C2249     1.0  0.37933  0.87803  0.46884  1.0000
  C   C2250     1.0  0.47711  0.78023  0.12504  1.0000
  C   C2251     1.0  0.46425  0.77726  0.14569  1.0000
  C   C2252     1.0  0.45592  0.76482  0.15111  1.0000
  H   H1804     1.0  0.46071  0.78456  0.15742  1.0000
  H   H1805     1.0  0.44598  0.76263  0.16677  1.0000
  C   C2253     1.0  0.39969  0.79212  0.19617  1.0000
  C   C2254     1.0  0.40900  0.80084  0.16601  1.0000
  C   C2255     1.0  0.42126  0.80700  0.17059  1.0000
  C   C2256     1.0  0.42402  0.80467  0.20556  1.0000
  C   C2257     1.0  0.41453  0.79628  0.23566  1.0000
  C   C2258     1.0  0.40252  0.78989  0.23088  1.0000
  H   H1806     1.0  0.40686  0.80257  0.13909  1.0000
  H   H1807     1.0  0.42851  0.81359  0.14731  1.0000
  H   H1808     1.0  0.41654  0.79459  0.26277  1.0000
  C   C2259     1.0  0.41780  0.76961  0.18911  1.0000
  H   H1809     1.0  0.48585  0.78630  0.19094  1.0000
  C   C2260     1.0  0.47001  0.83685  0.98905  1.0000
  H   H1810     1.0  0.49148  0.77270  0.09453  1.0000
  C   C2261     1.0  0.42886  0.77898  0.16719  1.0000
  C   C2262     1.0  0.46023  0.75524  0.13576  1.0000
  H   H1811     1.0  0.38564  0.87827  0.21824  1.0000
  C   C2263     1.0  0.42526  0.77119  0.11322  1.0000
  H   H1812     1.0  0.52424  0.80585  0.19447  1.0000
  C   C2264     1.0  0.39569  0.90993  0.44059  1.0000
  H   H1813     1.0  0.45251  0.89771  0.14284  1.0000
  C   C2265     1.0  0.44727  0.97445  0.46457  1.0000
  H   H1814     1.0  0.48831  0.83941  0.34092  1.0000
  H   H1815     1.0  0.50513  0.80485  0.16667  1.0000
  C   C2266     1.0  0.47455  0.87598  0.07031  1.0000
  C   C2267     1.0  0.41444  0.94377  0.42573  1.0000
  H   H1816     1.0  0.50304  0.95963  0.10171  1.0000
  H   H1817     1.0  0.46065  0.86486  0.04706  1.0000
  C   C2268     1.0  0.51915  0.88390  0.20840  1.0000
  C   C2269     1.0  0.51589  0.87021  0.21705  1.0000
  C   C2270     1.0  0.50789  0.86306  0.19840  1.0000
  C   C2271     1.0  0.50315  0.86952  0.17036  1.0000
  C   C2272     1.0  0.50648  0.88322  0.16159  1.0000
  C   C2273     1.0  0.51442  0.89035  0.18035  1.0000
  H   H1818     1.0  0.51956  0.86508  0.23845  1.0000
  H   H1819     1.0  0.50553  0.85256  0.20545  1.0000
  H   H1820     1.0  0.50297  0.88838  0.13993  1.0000
  H   H1821     1.0  0.51699  0.90085  0.17287  1.0000
  C   C2274     1.0  0.54147  0.93271  0.39244  1.0000
  H   H1822     1.0  0.44402  0.91705  0.14544  1.0000
  C   C2275     1.0  0.43822  0.75224  0.04513  1.0000
  C   C2276     1.0  0.56003  0.94198  0.41538  1.0000
  C   C2277     1.0  0.55454  0.93951  0.38561  1.0000
  C   C2278     1.0  0.50110  0.95428  0.39505  1.0000
  H   H1823     1.0  0.57014  0.94723  0.40997  1.0000
  H   H1824     1.0  0.56039  0.94287  0.35757  1.0000
  C   C2279     1.0  0.56770  0.97524  0.15791  1.0000
  C   C2280     1.0  0.57516  0.97751  0.18348  1.0000
  C   C2281     1.0  0.58409  0.98967  0.17780  1.0000
  H   H1825     1.0  0.49728  0.74809  0.13985  1.0000
  C   C2282     1.0  0.45414  0.97832  0.05885  1.0000
  C   C2283     1.0  0.56904  0.98546  0.12718  1.0000
  H   H1826     1.0  0.57445  0.96972  0.20683  1.0000
  C   C2284     1.0  0.53832  0.90015  0.38057  1.0000
  C   C2285     1.0  0.41846  0.85771  0.14760  1.0000
  H   H1827     1.0  0.56341  0.98383  0.10705  1.0000
  C   C2286     1.0  0.48469  0.92589  0.26831  1.0000
  C   C2287     1.0  0.47223  0.92794  0.27297  1.0000
  C   C2288     1.0  0.46129  0.91760  0.29025  1.0000
  C   C2289     1.0  0.46274  0.90521  0.30382  1.0000
  C   C2290     1.0  0.47518  0.90308  0.29847  1.0000
  C   C2291     1.0  0.48612  0.91337  0.28027  1.0000
  H   H1828     1.0  0.47099  0.93755  0.26358  1.0000
  H   H1829     1.0  0.45178  0.91933  0.29334  1.0000
  H   H1830     1.0  0.47635  0.89345  0.30815  1.0000
  C   C2292     1.0  0.38974  0.86090  0.24589  1.0000
  C   C2293     1.0  0.46047  0.85747  0.24503  1.0000
  C   C2294     1.0  0.47649  0.88124  0.10027  1.0000
  H   H1831     1.0  0.40655  0.75368  0.05903  1.0000
  C   C2295     1.0  0.46600  0.87962  0.13005  1.0000
  C   C2296     1.0  0.46207  0.86930  0.06976  1.0000
  H   H1832     1.0  0.38868  0.77444  0.11005  1.0000
  C   C2297     1.0  0.46506  0.76863  0.24850  1.0000
  C   C2298     1.0  0.47161  0.75848  0.32674  1.0000
  C   C2299     1.0  0.51484  0.99579  0.24611  1.0000
  H   H1833     1.0  0.48245  0.98093  0.08719  1.0000
  C   C2300     1.0  0.46472  0.78096  0.25462  1.0000
  H   H1834     1.0  0.47310  0.78718  0.25974  1.0000
  C   C2301     1.0  0.53944  0.89431  0.32190  1.0000
  H   H1835     1.0  0.41240  0.97675  0.11962  1.0000
  C   C2302     1.0  0.45155  0.86763  0.09953  1.0000
  S   S331      1.0  0.35119  0.81454  0.12276  1.0000
  H   H1836     1.0  0.37781  0.91563  0.45296  1.0000
  H   H1837     1.0  0.48278  0.87669  0.04812  1.0000
  C   C2303     1.0  0.49374  0.77646  0.23299  1.0000
  C   C2304     1.0  0.49407  0.78659  0.20346  1.0000
  C   C2305     1.0  0.50501  0.79714  0.18970  1.0000
  C   C2306     1.0  0.51576  0.79766  0.20528  1.0000
  C   C2307     1.0  0.51557  0.78758  0.23461  1.0000
  C   C2308     1.0  0.50462  0.77699  0.24841  1.0000
  C   C2309     1.0  0.41574  0.82871  0.06886  1.0000
  H   H1838     1.0  0.43452  0.91982  0.39166  1.0000
  H   H1839     1.0  0.44083  0.78756  0.11292  1.0000
  H   H1840     1.0  0.48814  0.97132  0.03400  1.0000
  C   C2310     1.0  0.53212  0.98463  0.30010  1.0000
  C   C2311     1.0  0.40662  0.78587  0.99761  1.0000
  H   H1841     1.0  0.44780  0.75732  0.04635  1.0000
  C   C2312     1.0  0.50785  0.86174  0.43405  1.0000
  P   P76       1.0  0.43820  0.98121  0.07111  1.0000
  H   H1842     1.0  0.46276  0.97498  0.29496  1.0000
  S   S332      1.0  0.38495  0.78298  0.19083  1.0000
  S   S333      1.0  0.43071  0.93418  0.21755  1.0000
  C   C2313     1.0  0.46856  0.78927  0.04145  1.0000
  C   C2314     1.0  0.47022  0.89522  0.38853  1.0000
  C   C2315     1.0  0.42487  0.94176  0.36562  1.0000
  C   C2316     1.0  0.38480  0.86809  0.21971  1.0000
  C   C2317     1.0  0.42711  0.85606  0.17047  1.0000
  C   C2318     1.0  0.47046  0.80021  0.01305  1.0000
  H   H1843     1.0  0.43866  0.89845  0.41123  1.0000
  H   H1844     1.0  0.54822  0.96372  0.41453  1.0000
  H   H1845     1.0  0.45476  0.77271  0.07914  1.0000
  C   C2319     1.0  0.42565  0.94310  0.40127  1.0000
  H   H1846     1.0  0.56818  0.97646  0.02651  1.0000
  H   H1847     1.0  0.47190  0.95849  0.21688  1.0000
  C   C2320     1.0  0.45611  0.78098  0.05657  1.0000
  S   S334      1.0  0.38125  0.81415  0.12638  1.0000
  C   C2321     1.0  0.52376  0.96441  0.17584  1.0000
  H   H1848     1.0  0.37717  0.86743  0.01524  1.0000
  H   H1849     1.0  0.43326  0.94107  0.34623  1.0000
  C   C2322     1.0  0.44134  0.90592  0.42582  1.0000
  C   C2323     1.0  0.41311  0.94103  0.35482  1.0000
  H   H1850     1.0  0.41483  0.82872  0.09780  1.0000
  C   C2324     1.0  0.43891  0.91805  0.41486  1.0000
  H   H1851     1.0  0.51168  0.94432  0.31755  1.0000
  H   H1852     1.0  0.41964  0.86706  0.12931  1.0000
  C   C2325     1.0  0.42740  0.75733  0.05317  1.0000
  C   C2326     1.0  0.41518  0.96765  0.12324  1.0000
  C   C2327     1.0  0.52927  0.97043  0.13858  1.0000
  C   C2328     1.0  0.38800  0.84751  0.24808  1.0000
  H   H1853     1.0  0.43161  0.84223  0.21249  1.0000
  C   C2329     1.0  0.43266  0.98547  0.02947  1.0000
  C   C2330     1.0  0.37858  0.86203  0.19556  1.0000
  H   H1854     1.0  0.43111  0.87273  0.24517  1.0000
  C   C2331     1.0  0.36153  0.76183  0.08274  1.0000
  H   H1855     1.0  0.37778  0.75712  0.16529  1.0000
  C   C2332     1.0  0.45389  0.96208  0.34866  1.0000
  H   H1856     1.0  0.47193  0.93833  0.19670  1.0000
  H   H1857     1.0  0.49246  0.89448  0.21841  1.0000
  C   C2333     1.0  0.44544  0.78353  0.04320  1.0000
  H   H1858     1.0  0.51914  0.95413  0.18437  1.0000
  H   H1859     1.0  0.46780  0.88340  0.15358  1.0000
  C   C2334     1.0  0.48494  0.91094  0.46165  1.0000
  H   H1860     1.0  0.50092  0.91473  0.17020  1.0000
  H   H1861     1.0  0.52712  0.95389  0.40328  1.0000
  P   P77       1.0  0.42922  0.77310  0.06387  1.0000
  C   C2335     1.0  0.42237  0.94422  0.13479  1.0000
  C   C2336     1.0  0.50381  0.98907  0.23671  1.0000
  C   C2337     1.0  0.53571  0.99099  0.15460  1.0000
  C   C2338     1.0  0.52965  0.93580  0.07051  1.0000
  H   H1862     1.0  0.49195  0.87509  0.26324  1.0000
  C   C2339     1.0  0.45617  0.86022  0.21264  1.0000
  C   C2340     1.0  0.49055  0.91135  0.18170  1.0000
  C   C2341     1.0  0.52725  0.95824  0.42663  1.0000
  C   C2342     1.0  0.41590  0.98350  0.99477  1.0000
  C   C2343     1.0  0.50654  0.94698  0.37256  1.0000
  H   H1863     1.0  0.43182  0.81987  0.06572  1.0000
  H   H1864     1.0  0.39413  0.94347  0.43393  1.0000
  C   C2344     1.0  0.45348  0.87257  0.13026  1.0000
  H   H1865     1.0  0.46191  0.90706  0.06359  1.0000
  C   C2345     1.0  0.48579  0.89969  0.20878  1.0000
  C   C2346     1.0  0.43755  0.90741  0.15598  1.0000
  H   H1866     1.0  0.46096  0.85770  0.18831  1.0000
  C   C2347     1.0  0.48071  0.75111  0.22225  1.0000
  C   C2348     1.0  0.44224  0.92781  0.43341  1.0000
  H   H1867     1.0  0.42089  0.91437  0.17551  1.0000
  C   C2349     1.0  0.38801  0.87497  0.44176  1.0000
  H   H1868     1.0  0.40012  0.80272  0.06258  1.0000
  H   H1869     1.0  0.44210  0.86198  0.09901  1.0000
  C   C2350     1.0  0.44230  0.89642  0.15452  1.0000
  H   H1870     1.0  0.50993  0.93876  0.38434  1.0000
  C   C2351     1.0  0.45432  0.86036  0.27712  1.0000
  H   H1871     1.0  0.52134  0.92977  0.02740  1.0000
  C   C2352     1.0  0.40208  0.94176  0.37929  1.0000
  H   H1872     1.0  0.52902  0.96480  0.11799  1.0000
  H   H1873     1.0  0.49505  0.76454  0.17543  1.0000
  C   C2353     1.0  0.45776  0.92576  0.06084  1.0000
  C   C2354     1.0  0.44379  0.86593  0.27683  1.0000
  C   C2355     1.0  0.40428  0.79615  0.04871  1.0000
  H   H1874     1.0  0.41436  0.87309  0.19889  1.0000
  H   H1875     1.0  0.46884  0.88603  0.24573  1.0000
  C   C2356     1.0  0.44575  0.86605  0.21194  1.0000
  H   H1876     1.0  0.45768  0.85831  0.30220  1.0000
  C   C2357     1.0  0.43741  0.95400  0.25274  1.0000
  Fe  Fe169     1.0  0.36679  0.80637  0.09549  1.0000
  H   H1877     1.0  0.47658  0.75089  0.10330  1.0000
  H   H1878     1.0  0.46168  0.91893  0.17856  1.0000
  H   H1879     1.0  0.41474  0.79115  0.08962  1.0000
  C   C2358     1.0  0.47128  0.75251  0.36309  1.0000
  H   H1880     1.0  0.46434  0.93587  0.38417  1.0000
  H   H1881     1.0  0.40311  0.83912  0.99700  1.0000
  C   C2359     1.0  0.41248  0.78948  0.06404  1.0000
  H   H1882     1.0  0.53936  0.98848  0.09911  1.0000
  H   H1883     1.0  0.43898  0.86817  0.30168  1.0000
  H   H1884     1.0  0.55994  0.96847  0.27146  1.0000
  C   C2360     1.0  0.49397  0.85689  0.35954  1.0000
  P   P78       1.0  0.44015  0.86967  0.17011  1.0000
  C   C2361     1.0  0.40611  0.83534  0.17316  1.0000
  C   C2362     1.0  0.43945  0.86868  0.24448  1.0000
  C   C2363     1.0  0.43398  0.88392  0.16940  1.0000
  C   C2364     1.0  0.42449  0.90596  0.17254  1.0000
  H   H1885     1.0  0.43116  0.94738  0.27764  1.0000
  C   C2365     1.0  0.41616  0.89357  0.18729  1.0000
  C   C2366     1.0  0.47245  0.89489  0.22418  1.0000
  C   C2367     1.0  0.50777  0.95024  0.33447  1.0000
  H   H1886     1.0  0.45545  0.94479  0.06365  1.0000
  C   C2368     1.0  0.48193  0.91838  0.17005  1.0000
  C   C2369     1.0  0.42516  0.84389  0.19450  1.0000
  C   C2370     1.0  0.42087  0.88260  0.18588  1.0000
  C   C2371     1.0  0.47811  0.88658  0.39041  1.0000
  C   C2372     1.0  0.52429  0.97164  0.20247  1.0000
  H   H1887     1.0  0.43705  0.98143  0.14864  1.0000
  H   H1888     1.0  0.40821  0.75516  0.12353  1.0000
  C   C2373     1.0  0.41783  0.78096  0.04600  1.0000
  H   H1889     1.0  0.40619  0.89246  0.20145  1.0000
  C   C2374     1.0  0.53690  0.97769  0.32711  1.0000
  C   C2375     1.0  0.33907  0.76418  0.23498  1.0000
  H   H1890     1.0  0.51994  0.96682  0.23114  1.0000
  C   C2376     1.0  0.41810  0.82856  0.99372  1.0000
  C   C2377     1.0  0.43053  0.95501  0.10822  1.0000
  C   C2378     1.0  0.41459  0.83367  0.19614  1.0000
  H   H1891     1.0  0.49282  0.97083  0.39509  1.0000
  C   C2379     1.0  0.47875  0.95870  0.19185  1.0000
  S   S335      1.0  0.37393  0.80565  0.03641  1.0000
  C   C2380     1.0  0.59852  0.97634  0.03966  1.0000
  P   P79       1.0  0.47951  0.76285  0.24996  1.0000
  C   C2381     1.0  0.44355  0.96677  0.25327  1.0000
  H   H1892     1.0  0.40462  0.93682  0.17736  1.0000
  C   C2382     1.0  0.47879  0.94722  0.18023  1.0000
  C   C2383     1.0  0.43888  0.99408  0.09525  1.0000
  C   C2384     1.0  0.55231  0.97316  0.27950  1.0000
  Fe  Fe170     1.0  0.34463  0.79510  0.16410  1.0000
  C   C2385     1.0  0.40802  0.84737  0.14896  1.0000
  C   C2386     1.0  0.50387  0.96098  0.31830  1.0000
  H   H1893     1.0  0.43954  0.79689  0.00339  1.0000
  C   C2387     1.0  0.49709  0.96503  0.37865  1.0000
  P   P80       1.0  0.44090  0.94397  0.41513  1.0000
  H   H1894     1.0  0.55133  0.98030  0.22373  1.0000
  C   C2388     1.0  0.45396  0.76082  0.24224  1.0000
  C   C2389     1.0  0.41495  0.77933  0.01241  1.0000
  H   H1895     1.0  0.39171  0.84179  0.26821  1.0000
  C   C2390     1.0  0.37696  0.84867  0.19753  1.0000
  H   H1896     1.0  0.40393  0.86621  0.43043  1.0000
  C   C2391     1.0  0.40158  0.79452  0.01512  1.0000
  H   H1897     1.0  0.50470  0.96333  0.28879  1.0000
  H   H1898     1.0  0.57909  0.95155  0.11030  1.0000
  C   C2392     1.0  0.49856  0.96840  0.34037  1.0000
  H   H1899     1.0  0.41285  0.82448  0.21578  1.0000
  H   H1900     1.0  0.47148  0.94883  0.10120  1.0000
  H   H1901     1.0  0.40108  0.84877  0.13232  1.0000
  C   C2393     1.0  0.44145  0.95355  0.44921  1.0000
  C   C2394     1.0  0.48965  0.85647  0.29934  1.0000
  C   C2395     1.0  0.46960  0.97028  0.01997  1.0000
  C   C2396     1.0  0.43906  0.94992  0.21979  1.0000
  C   C2397     1.0  0.40278  0.94325  0.41459  1.0000
  P   P81       1.0  0.53092  0.99420  0.22690  1.0000
  C   C2398     1.0  0.44750  0.79448  0.01416  1.0000
  P   P82       1.0  0.50008  0.95014  0.44409  1.0000
  C   C2399     1.0  0.41508  0.75008  0.05227  1.0000
  H   H1902     1.0  0.44177  0.96988  0.27874  1.0000
  H   H1903     1.0  0.39804  0.95754  0.16657  1.0000
  C   C2400     1.0  0.42636  0.82347  0.01367  1.0000
  C   C2401     1.0  0.40703  0.95680  0.14987  1.0000
  P   P83       1.0  0.50164  0.87985  0.38260  1.0000
  H   H1904     1.0  0.47803  0.91094  0.10101  1.0000
  C   C2402     1.0  0.49040  0.84991  0.33400  1.0000
  S   S336      1.0  0.35717  0.80200  0.20168  1.0000
  H   H1905     1.0  0.45355  0.89832  0.22616  1.0000
  C   C2403     1.0  0.42520  0.82358  0.05091  1.0000
  C   C2404     1.0  0.46384  0.90189  0.21324  1.0000
  C   C2405     1.0  0.48933  0.75464  0.18724  1.0000
  C   C2406     1.0  0.40662  0.90799  0.45376  1.0000
  C   C2407     1.0  0.58893  0.98035  0.02339  1.0000
  C   C2408     1.0  0.46326  0.98118  0.07980  1.0000
  H   H1906     1.0  0.44637  0.96712  0.35444  1.0000
  C   C2409     1.0  0.54743  0.97995  0.25245  1.0000
  C   C2410     1.0  0.54696  0.97190  0.31684  1.0000
  H   H1907     1.0  0.55044  0.96622  0.33777  1.0000
  H   H1908     1.0  0.35665  0.76384  0.06065  1.0000
  H   H1909     1.0  0.49536  0.97662  0.32782  1.0000
  H   H1910     1.0  0.39783  0.82742  0.17497  1.0000
  C   C2411     1.0  0.50657  0.93104  0.07242  1.0000
  C   C2412     1.0  0.48740  0.97042  0.17110  1.0000
  C   C2413     1.0  0.53410  0.92831  0.42904  1.0000
  H   H1911     1.0  0.54299  0.90510  0.39870  1.0000
  C   C2414     1.0  0.49235  0.87001  0.29030  1.0000
  H   H1912     1.0  0.52413  0.92278  0.43430  1.0000
  C   C2415     1.0  0.47860  0.97307  0.04122  1.0000
  P   P84       1.0  0.48754  0.93262  0.13194  1.0000
  H   H1913     1.0  0.33503  0.77028  0.12832  1.0000
  H   H1914     1.0  0.39289  0.94076  0.37128  1.0000
  H   H1915     1.0  0.46019  0.97792  0.16372  1.0000
  H   H1916     1.0  0.48715  0.85110  0.27924  1.0000
  Fe  Fe171     1.0  0.36511  0.82079  0.15786  1.0000
  C   C2416     1.0  0.44255  0.77759  0.24783  1.0000
  H   H1917     1.0  0.42539  0.93530  0.14015  1.0000
  C   C2417     1.0  0.50395  0.93372  0.10745  1.0000
  H   H1918     1.0  0.50771  0.90862  0.36770  1.0000
  C   C2418     1.0  0.52714  0.93864  0.10508  1.0000
  H   H1919     1.0  0.45054  0.97057  0.01210  1.0000
  C   C2419     1.0  0.46853  0.91360  0.18642  1.0000
  C   C2420     1.0  0.33461  0.75007  0.99849  1.0000
  C   C2421     1.0  0.45407  0.95092  0.37415  1.0000
  C   C2422     1.0  0.44827  0.96673  0.43907  1.0000
  C   C2423     1.0  0.49621  0.97066  0.13884  1.0000
  C   C2424     1.0  0.47622  0.93031  0.10297  1.0000
  H   H1920     1.0  0.51246  0.93956  0.15058  1.0000
  C   C2425     1.0  0.49689  0.87052  0.35041  1.0000
  C   C2426     1.0  0.48765  0.94733  0.14796  1.0000
  C   C2427     1.0  0.43809  0.99125  0.13344  1.0000
  C   C2428     1.0  0.49596  0.87702  0.31566  1.0000
  S   S337      1.0  0.36934  0.84168  0.16543  1.0000
  C   C2429     1.0  0.46377  0.94442  0.36530  1.0000
  H   H1921     1.0  0.48126  0.92836  0.43289  1.0000
  C   C2430     1.0  0.51435  0.93757  0.12349  1.0000
  H   H1922     1.0  0.45418  0.97114  0.41144  1.0000
  C   C2431     1.0  0.38156  0.84141  0.22439  1.0000
  H   H1923     1.0  0.47968  0.94317  0.32367  1.0000
  C   C2432     1.0  0.55248  0.93784  0.45206  1.0000
  C   C2433     1.0  0.49624  0.95920  0.12703  1.0000
  H   H1924     1.0  0.38782  0.87794  0.41299  1.0000
  H   H1925     1.0  0.35702  0.76338  0.20153  1.0000
  H   H1926     1.0  0.49447  0.85160  0.38616  1.0000
  C   C2434     1.0  0.46417  0.91626  0.07130  1.0000
  H   H1927     1.0  0.45396  0.75139  0.23683  1.0000
  C   C2435     1.0  0.41976  0.98044  0.02787  1.0000
  H   H1928     1.0  0.41443  0.94443  0.45370  1.0000
  C   C2436     1.0  0.57234  0.96311  0.06906  1.0000
  C   C2437     1.0  0.44156  0.99365  0.99764  1.0000
  H   H1929     1.0  0.41355  0.90412  0.43787  1.0000
  C   C2438     1.0  0.49938  0.86969  0.42814  1.0000
  H   H1930     1.0  0.40042  0.83821  0.06317  1.0000
  H   H1931     1.0  0.60237  0.96309  0.08382  1.0000
  C   C2439     1.0  0.53517  0.98374  0.12796  1.0000
  H   H1932     1.0  0.46109  0.98566  0.10246  1.0000
  C   C2440     1.0  0.49726  0.90470  0.37385  1.0000
  C   C2441     1.0  0.49169  0.89125  0.38326  1.0000
  C   C2442     1.0  0.46968  0.93979  0.09260  1.0000
  C   C2443     1.0  0.48966  0.86995  0.45812  1.0000
  H   H1933     1.0  0.59013  0.99113  0.19710  1.0000
  H   H1934     1.0  0.47364  0.87626  0.39637  1.0000
  H   H1935     1.0  0.53956  0.93646  0.05653  1.0000
  C   C2444     1.0  0.47331  0.91849  0.09245  1.0000
  H   H1936     1.0  0.41240  0.93954  0.32779  1.0000
  C   C2445     1.0  0.53027  0.98499  0.19209  1.0000
  C   C2446     1.0  0.57581  0.97357  0.03814  1.0000
  C   C2447     1.0  0.40764  0.83404  0.04929  1.0000
  C   C2448     1.0  0.47261  0.94858  0.33092  1.0000
  S   S338      1.0  0.45963  0.99144  0.22366  1.0000
  C   C2449     1.0  0.59499  0.96592  0.07070  1.0000
  H   H1937     1.0  0.35005  0.81375  0.03451  1.0000
  C   C2450     1.0  0.34709  0.75801  0.21529  1.0000
  H   H1938     1.0  0.52177  0.88342  0.31377  1.0000
  H   H1939     1.0  0.39563  0.79999  0.00248  1.0000
  H   H1940     1.0  0.47898  0.96256  0.27867  1.0000
  H   H1941     1.0  0.44864  0.95568  0.16186  1.0000
  H   H1942     1.0  0.44915  0.89410  0.46364  1.0000
  H   H1943     1.0  0.49883  0.92820  0.05902  1.0000
  H   H1944     1.0  0.53266  0.97661  0.35605  1.0000
  C   C2451     1.0  0.51878  0.88804  0.36750  1.0000
  C   C2452     1.0  0.44721  0.95872  0.18751  1.0000
  H   H1945     1.0  0.52420  0.98876  0.30901  1.0000
  C   C2453     1.0  0.45369  0.97138  0.18835  1.0000
  C   C2454     1.0  0.50453  0.92739  0.48189  1.0000
  C   C2455     1.0  0.47582  0.90859  0.37819  1.0000
  H   H1946     1.0  0.49370  0.92362  0.36122  1.0000
  C   C2456     1.0  0.47541  0.97850  0.07115  1.0000
  H   H1947     1.0  0.46972  0.91524  0.37449  1.0000
  C   C2457     1.0  0.47223  0.95955  0.30554  1.0000
  C   C2458     1.0  0.48933  0.91331  0.37064  1.0000
  H   H1948     1.0  0.49830  0.88755  0.30783  1.0000
  C   C2459     1.0  0.48720  0.92442  0.44975  1.0000
  H   H1949     1.0  0.34272  0.77420  0.23566  1.0000
  H   H1950     1.0  0.50463  0.98282  0.21783  1.0000
  H   H1951     1.0  0.54916  0.97280  0.46929  1.0000
  H   H1952     1.0  0.53512  0.94157  0.11781  1.0000
  C   C2460     1.0  0.53948  0.93093  0.45867  1.0000
  C   C2461     1.0  0.58190  0.95936  0.08550  1.0000
  C   C2462     1.0  0.45356  0.78545  0.25384  1.0000
  C   C2463     1.0  0.44828  0.92534  0.46274  1.0000
  C   C2464     1.0  0.46307  0.96647  0.31473  1.0000
  C   C2465     1.0  0.45182  0.97553  0.22119  1.0000
  H   H1953     1.0  0.56218  0.95819  0.08128  1.0000
  H   H1954     1.0  0.51556  0.86159  0.41144  1.0000
  H   H1955     1.0  0.51950  0.89434  0.41806  1.0000
  C   C2466     1.0  0.52498  0.89410  0.39134  1.0000
  H   H1956     1.0  0.33123  0.78235  0.04361  1.0000
  C   C2467     1.0  0.35524  0.75187  0.11426  1.0000
  C   C2468     1.0  0.46051  0.93750  0.07149  1.0000
  C   C2469     1.0  0.49265  0.90569  0.48289  1.0000
  H   H1957     1.0  0.40595  0.97958  0.99359  1.0000
  C   C2470     1.0  0.52615  0.88806  0.33282  1.0000
  H   H1958     1.0  0.41267  0.97409  0.05184  1.0000
  H   H1959     1.0  0.55575  0.90545  0.33694  1.0000
  H   H1960     1.0  0.37822  0.77794  0.05725  1.0000
  C   C2471     1.0  0.41067  0.94511  0.15582  1.0000
  H   H1961     1.0  0.48312  0.98580  0.24238  1.0000
  H   H1962     1.0  0.33685  0.81424  0.98756  1.0000
  C   C2472     1.0  0.41415  0.76175  0.13542  1.0000
  C   C2473     1.0  0.54552  0.90038  0.34570  1.0000
  H   H1963     1.0  0.45054  0.92398  0.04485  1.0000
  C   C2474     1.0  0.38637  0.91425  0.46240  1.0000
  C   C2475     1.0  0.53928  0.96380  0.43289  1.0000
  C   C2476     1.0  0.51937  0.93202  0.05417  1.0000
  H   H1964     1.0  0.43427  0.75924  0.23687  1.0000
  C   C2477     1.0  0.51563  0.95788  0.45112  1.0000
  H   H1965     1.0  0.43399  0.81969  0.00073  1.0000
  C   C2478     1.0  0.53730  0.98578  0.26245  1.0000
  H   H1966     1.0  0.54495  0.89456  0.29467  1.0000
  C   C2479     1.0  0.37965  0.76777  0.11030  1.0000
  C   C2480     1.0  0.44273  0.76527  0.24215  1.0000
  H   H1967     1.0  0.48318  0.87619  0.45474  1.0000
  H   H1968     1.0  0.48658  0.83400  0.01010  1.0000
  C   C2481     1.0  0.49704  0.93275  0.45982  1.0000
  H   H1969     1.0  0.46616  0.76567  0.32200  1.0000
  H   H1970     1.0  0.33728  0.79407  0.08960  1.0000
  H   H1971     1.0  0.47725  0.90455  0.45423  1.0000
  C   C2482     1.0  0.37375  0.76976  0.08072  1.0000
  C   C2483     1.0  0.36348  0.80476  0.00618  1.0000
  C   C2484     1.0  0.42704  0.96683  0.10236  1.0000
  C   C2485     1.0  0.44727  0.90350  0.45518  1.0000
  C   C2486     1.0  0.37336  0.75786  0.14187  1.0000
  H   H1972     1.0  0.48720  0.97933  0.17986  1.0000
  C   C2487     1.0  0.47895  0.75516  0.29703  1.0000
  H   H1973     1.0  0.43395  0.78117  0.24715  1.0000
  C   C2488     1.0  0.35258  0.80981  0.01084  1.0000
  C   C2489     1.0  0.40898  0.83422  0.01180  1.0000
  C   C2490     1.0  0.45737  0.97279  0.02891  1.0000
  H   H1974     1.0  0.45344  0.79511  0.25751  1.0000
  H   H1975     1.0  0.50301  0.97977  0.12304  1.0000
  H   H1976     1.0  0.43972  0.95417  0.09333  1.0000
  C   C2491     1.0  0.39711  0.86840  0.45166  1.0000
  C   C2492     1.0  0.53982  0.96892  0.46379  1.0000
  H   H1977     1.0  0.40163  0.75403  0.19019  1.0000
  H   H1978     1.0  0.49841  0.97613  0.45185  1.0000
  C   C2493     1.0  0.36118  0.74964  0.14390  1.0000
  H   H1979     1.0  0.39461  0.75444  0.00159  1.0000
  C   C2494     1.0  0.48740  0.95597  0.46896  1.0000
  C   C2495     1.0  0.45996  0.80272  0.99913  1.0000
  C   C2496     1.0  0.49151  0.99068  0.25072  1.0000
  C   C2497     1.0  0.41041  0.76103  0.17323  1.0000
  H   H1980     1.0  0.60870  0.98145  0.02884  1.0000
  H   H1981     1.0  0.37258  0.88349  0.46076  1.0000
  C   C2498     1.0  0.45073  0.91321  0.47364  1.0000
  H   H1982     1.0  0.45244  0.98464  0.45652  1.0000
  H   H1983     1.0  0.51303  0.84784  0.47347  1.0000
  H   H1984     1.0  0.41936  0.77324  0.99722  1.0000
  C   C2499     1.0  0.51628  0.96273  0.48263  1.0000
  C   C2500     1.0  0.38066  0.87015  0.98541  1.0000
  C   C2501     1.0  0.48944  0.96927  0.46816  1.0000
  H   H1985     1.0  0.48008  0.80676  0.00199  1.0000
  H   H1986     1.0  0.45129  0.93279  0.47688  1.0000
  C   C2502     1.0  0.48232  0.83448  0.98650  1.0000
  C   C2503     1.0  0.50645  0.85396  0.46916  1.0000
  H   H1987     1.0  0.46558  0.75510  0.38591  1.0000
  H   H1988     1.0  0.47220  0.96648  0.99601  1.0000
  Fe  Fe172     1.0  0.54769  0.93927  0.54724  1.0000
  S   S339      1.0  0.52794  0.92530  0.57258  1.0000
  S   S340      1.0  0.33995  0.80713  0.91802  1.0000
  Fe  Fe173     1.0  0.54707  0.95302  0.61229  1.0000
  S   S341      1.0  0.52728  0.93987  0.64110  1.0000
  S   S342      1.0  0.55230  0.97051  0.63782  1.0000
  Fe  Fe174     1.0  0.53459  0.92325  0.62579  1.0000
  S   S343      1.0  0.52939  0.90570  0.67525  1.0000
  Fe  Fe175     1.0  0.52230  0.94293  0.58625  1.0000
  S   S344      1.0  0.50425  0.94963  0.58094  1.0000
  S   S345      1.0  0.55498  0.93619  0.59991  1.0000
  S   S346      1.0  0.54150  0.95696  0.55802  1.0000
  Fe  Fe176     1.0  0.42762  0.92938  0.64475  1.0000
  S   S347      1.0  0.43276  0.92938  0.58420  1.0000
  Fe  Fe177     1.0  0.41331  0.90001  0.66549  1.0000
  S   S348      1.0  0.41783  0.89803  0.60707  1.0000
  S   S349      1.0  0.40532  0.88260  0.71529  1.0000
  Fe  Fe178     1.0  0.43763  0.91058  0.60264  1.0000
  S   S350      1.0  0.45596  0.90629  0.57505  1.0000
  Fe  Fe179     1.0  0.41264  0.91696  0.59229  1.0000
  S   S351      1.0  0.40091  0.92109  0.54949  1.0000
  S   S352      1.0  0.43381  0.91111  0.66202  1.0000
  S   S353      1.0  0.40665  0.91841  0.65178  1.0000
  C   C2504     1.0  0.47578  0.94728  0.49101  1.0000
  C   C2505     1.0  0.37892  0.89174  0.61053  1.0000
  S   S354      1.0  0.39070  0.79002  0.83022  1.0000
  C   C2506     1.0  0.39828  0.89850  0.84013  1.0000
  C   C2507     1.0  0.55529  0.79882  0.83223  1.0000
  Fe  Fe180     1.0  0.48204  0.82801  0.83580  1.0000
  S   S355      1.0  0.46222  0.81498  0.84414  1.0000
  S   S356      1.0  0.49234  0.83070  0.88142  1.0000
  Fe  Fe181     1.0  0.48696  0.83389  0.75221  1.0000
  S   S357      1.0  0.46748  0.82074  0.75345  1.0000
  S   S358      1.0  0.50135  0.84562  0.69832  1.0000
  Fe  Fe182     1.0  0.45975  0.82986  0.79826  1.0000
  S   S359      1.0  0.44119  0.83633  0.79991  1.0000
  Fe  Fe183     1.0  0.47121  0.80648  0.79924  1.0000
  S   S360      1.0  0.46505  0.78436  0.81896  1.0000
  S   S361      1.0  0.47883  0.84393  0.79400  1.0000
  S   S362      1.0  0.49135  0.81869  0.79375  1.0000
  C   C2508     1.0  0.48081  0.96276  0.68141  1.0000
  H   H1989     1.0  0.50054  0.76147  0.74046  1.0000
  H   H1990     1.0  0.49937  0.80370  0.94578  1.0000
  C   C2509     1.0  0.38940  0.87704  0.90809  1.0000
  H   H1991     1.0  0.49097  0.89526  0.49187  1.0000
  H   H1992     1.0  0.42829  0.93811  0.49391  1.0000
  H   H1993     1.0  0.42601  0.87770  0.65186  1.0000
  H   H1994     1.0  0.38358  0.92252  0.81410  1.0000
  C   C2510     1.0  0.43147  0.87300  0.66882  1.0000
  H   H1995     1.0  0.56507  0.80431  0.81725  1.0000
  C   C2511     1.0  0.37299  0.82442  0.57388  1.0000
  C   C2512     1.0  0.51652  0.77458  0.79930  1.0000
  C   C2513     1.0  0.45272  0.75555  0.92153  1.0000
  C   C2514     1.0  0.46485  0.77218  0.79379  1.0000
  C   C2515     1.0  0.46758  0.77504  0.75523  1.0000
  C   C2516     1.0  0.46659  0.76486  0.73684  1.0000
  C   C2517     1.0  0.42714  0.74969  0.81113  1.0000
  C   C2518     1.0  0.37964  0.87447  0.50595  1.0000
  C   C2519     1.0  0.46134  0.75914  0.81357  1.0000
  H   H1996     1.0  0.47020  0.78504  0.73967  1.0000
  H   H1997     1.0  0.46851  0.76709  0.70702  1.0000
  C   C2520     1.0  0.50489  0.79602  0.86209  1.0000
  H   H1998     1.0  0.45923  0.75684  0.84323  1.0000
  C   C2521     1.0  0.48917  0.83275  0.95320  1.0000
  C   C2522     1.0  0.48365  0.83314  0.92254  1.0000
  H   H1999     1.0  0.49873  0.83100  0.95134  1.0000
  P   P85       1.0  0.39452  0.88112  0.85822  1.0000
  C   C2523     1.0  0.40469  0.80311  0.81974  1.0000
  C   C2524     1.0  0.40411  0.81605  0.81004  1.0000
  C   C2525     1.0  0.41540  0.82619  0.80348  1.0000
  C   C2526     1.0  0.42731  0.82348  0.80648  1.0000
  C   C2527     1.0  0.42797  0.81055  0.81517  1.0000
  C   C2528     1.0  0.41667  0.80044  0.82178  1.0000
  H   H2000     1.0  0.39501  0.81827  0.80763  1.0000
  H   H2001     1.0  0.41490  0.83616  0.79601  1.0000
  H   H2002     1.0  0.43712  0.80835  0.81738  1.0000
  H   H2003     1.0  0.41713  0.79048  0.82916  1.0000
  C   C2529     1.0  0.39389  0.86781  0.71790  1.0000
  C   C2530     1.0  0.39328  0.85663  0.74469  1.0000
  C   C2531     1.0  0.45609  0.92386  0.76843  1.0000
  C   C2532     1.0  0.40554  0.75141  0.95169  1.0000
  C   C2533     1.0  0.44787  0.92913  0.74903  1.0000
  C   C2534     1.0  0.48318  0.92675  0.77701  1.0000
  H   H2004     1.0  0.40031  0.85686  0.76143  1.0000
  H   H2005     1.0  0.50936  0.92612  0.81425  1.0000
  H   H2006     1.0  0.44998  0.94327  0.91785  1.0000
  C   C2535     1.0  0.48524  0.91861  0.75302  1.0000
  C   C2536     1.0  0.52180  0.88904  0.68024  1.0000
  C   C2537     1.0  0.51889  0.88052  0.71530  1.0000
  C   C2538     1.0  0.51250  0.86728  0.72124  1.0000
  C   C2539     1.0  0.50924  0.86231  0.69188  1.0000
  C   C2540     1.0  0.51261  0.87073  0.65648  1.0000
  C   C2541     1.0  0.51861  0.88407  0.65077  1.0000
  H   H2007     1.0  0.52149  0.88422  0.73814  1.0000
  H   H2008     1.0  0.51017  0.86090  0.74850  1.0000
  H   H2009     1.0  0.51050  0.86694  0.63335  1.0000
  H   H2010     1.0  0.52095  0.89046  0.62353  1.0000
  C   C2542     1.0  0.56522  0.98095  0.64953  1.0000
  H   H2011     1.0  0.40623  0.93595  0.80180  1.0000
  H   H2012     1.0  0.42810  0.77439  0.85504  1.0000
  C   C2543     1.0  0.50246  0.91391  0.49296  1.0000
  C   C2544     1.0  0.58756  0.98765  0.65553  1.0000
  C   C2545     1.0  0.57786  0.97929  0.64456  1.0000
  C   C2546     1.0  0.40782  0.75390  0.91304  1.0000
  C   C2547     1.0  0.37503  0.85556  0.70183  1.0000
  H   H2013     1.0  0.59728  0.98622  0.65181  1.0000
  H   H2014     1.0  0.58015  0.97155  0.63251  1.0000
  C   C2548     1.0  0.49113  0.93797  0.57600  1.0000
  C   C2549     1.0  0.49280  0.92636  0.56748  1.0000
  C   C2550     1.0  0.48200  0.91677  0.56641  1.0000
  C   C2551     1.0  0.46946  0.91856  0.57513  1.0000
  C   C2552     1.0  0.46779  0.93009  0.58418  1.0000
  C   C2553     1.0  0.47862  0.93993  0.58363  1.0000
  H   H2015     1.0  0.50239  0.92473  0.56205  1.0000
  H   H2016     1.0  0.48331  0.90786  0.55954  1.0000
  H   H2017     1.0  0.45818  0.93147  0.59200  1.0000
  H   H2018     1.0  0.47722  0.94880  0.59085  1.0000
  C   C2554     1.0  0.40400  0.92553  0.81280  1.0000
  C   C2555     1.0  0.39920  0.91584  0.50850  1.0000
  C   C2556     1.0  0.42844  0.86982  0.85591  1.0000
  Fe  Fe184     1.0  0.46322  0.99208  0.79551  1.0000
  C   C2557     1.0  0.56254  0.99121  0.66490  1.0000
  H   H2019     1.0  0.46700  0.83554  0.90174  1.0000
  C   C2558     1.0  0.46598  0.87899  0.79631  1.0000
  C   C2559     1.0  0.47856  0.87856  0.79936  1.0000
  C   C2560     1.0  0.48759  0.87770  0.76905  1.0000
  C   C2561     1.0  0.48413  0.87737  0.73551  1.0000
  C   C2562     1.0  0.47150  0.87766  0.73235  1.0000
  C   C2563     1.0  0.46248  0.87856  0.76288  1.0000
  P   P86       1.0  0.46804  0.88079  0.68758  1.0000
  C   C2564     1.0  0.47314  0.89822  0.67411  1.0000
  C   C2565     1.0  0.47682  0.87370  0.65523  1.0000
  C   C2566     1.0  0.48155  0.88043  0.61803  1.0000
  C   C2567     1.0  0.48745  0.87457  0.59212  1.0000
  C   C2568     1.0  0.48828  0.86178  0.60304  1.0000
  C   C2569     1.0  0.48325  0.85489  0.63984  1.0000
  C   C2570     1.0  0.47764  0.86086  0.66599  1.0000
  C   C2571     1.0  0.46420  0.90568  0.68030  1.0000
  C   C2572     1.0  0.46851  0.91919  0.67277  1.0000
  C   C2573     1.0  0.48184  0.92525  0.66109  1.0000
  C   C2574     1.0  0.49083  0.91784  0.65609  1.0000
  C   C2575     1.0  0.48652  0.90438  0.66244  1.0000
  C   C2576     1.0  0.45122  0.87339  0.69054  1.0000
  C   C2577     1.0  0.44536  0.86092  0.71342  1.0000
  C   C2578     1.0  0.43264  0.85455  0.71395  1.0000
  C   C2579     1.0  0.44431  0.87925  0.66745  1.0000
  H   H2020     1.0  0.49138  0.87733  0.71168  1.0000
  H   H2021     1.0  0.45288  0.87936  0.76027  1.0000
  H   H2022     1.0  0.48055  0.89017  0.60900  1.0000
  H   H2023     1.0  0.49134  0.87995  0.56365  1.0000
  H   H2024     1.0  0.49300  0.85725  0.58324  1.0000
  H   H2025     1.0  0.47396  0.85542  0.69450  1.0000
  H   H2026     1.0  0.45394  0.90112  0.69126  1.0000
  H   H2027     1.0  0.46149  0.92496  0.67567  1.0000
  H   H2028     1.0  0.48528  0.93573  0.65486  1.0000
  H   H2029     1.0  0.50113  0.92258  0.64646  1.0000
  H   H2030     1.0  0.49366  0.89878  0.65874  1.0000
  H   H2031     1.0  0.45070  0.85599  0.73036  1.0000
  H   H2032     1.0  0.44884  0.88855  0.64812  1.0000
  C   C2580     1.0  0.52229  0.81426  0.79459  1.0000
  C   C2581     1.0  0.52706  0.81682  0.75616  1.0000
  C   C2582     1.0  0.52961  0.82941  0.73421  1.0000
  C   C2583     1.0  0.52764  0.83957  0.75044  1.0000
  C   C2584     1.0  0.52328  0.83720  0.78872  1.0000
  C   C2585     1.0  0.52068  0.82462  0.81077  1.0000
  H   H2033     1.0  0.47174  0.78724  0.88894  1.0000
  H   H2034     1.0  0.48952  0.78778  0.83763  1.0000
  H   H2035     1.0  0.54625  0.80894  0.79445  1.0000
  H   H2036     1.0  0.52859  0.80908  0.74297  1.0000
  H   H2037     1.0  0.53286  0.83128  0.70446  1.0000
  H   H2038     1.0  0.52931  0.84925  0.73324  1.0000
  H   H2039     1.0  0.52154  0.84504  0.80131  1.0000
  H   H2040     1.0  0.51695  0.82305  0.84019  1.0000
  H   H2041     1.0  0.50187  0.79805  0.76857  1.0000
  H   H2042     1.0  0.35694  0.84539  0.86055  1.0000
  C   C2586     1.0  0.40772  0.78190  0.75203  1.0000
  P   P87       1.0  0.46983  0.93432  0.77775  1.0000
  C   C2587     1.0  0.50063  0.78021  0.75153  1.0000
  C   C2588     1.0  0.33775  0.76278  0.97686  1.0000
  C   C2589     1.0  0.54458  0.80144  0.81941  1.0000
  C   C2590     1.0  0.43232  0.87451  0.57031  1.0000
  C   C2591     1.0  0.58555  0.98903  0.54098  1.0000
  C   C2592     1.0  0.47570  0.95083  0.70726  1.0000
  C   C2593     1.0  0.49208  0.92956  0.79865  1.0000
  C   C2594     1.0  0.42564  0.86065  0.69197  1.0000
  C   C2595     1.0  0.51288  0.78637  0.79581  1.0000
  C   C2596     1.0  0.40620  0.86727  0.56601  1.0000
  H   H2043     1.0  0.51741  0.80474  0.89392  1.0000
  H   H2044     1.0  0.40221  0.76353  0.79142  1.0000
  H   H2045     1.0  0.51361  0.97809  0.64556  1.0000
  H   H2046     1.0  0.38659  0.77265  0.90071  1.0000
  H   H2047     1.0  0.48143  0.87898  0.82499  1.0000
  H   H2048     1.0  0.43163  0.85357  0.96756  1.0000
  C   C2597     1.0  0.40890  0.87564  0.84382  1.0000
  H   H2049     1.0  0.49088  0.93607  0.81661  1.0000
  H   H2050     1.0  0.41571  0.85582  0.69268  1.0000
  H   H2051     1.0  0.52266  0.77218  0.81753  1.0000
  C   C2598     1.0  0.42530  0.75579  0.84054  1.0000
  C   C2599     1.0  0.57202  0.97497  0.74799  1.0000
  H   H2052     1.0  0.46111  0.98109  0.71275  1.0000
  C   C2600     1.0  0.56017  0.98592  0.78690  1.0000
  C   C2601     1.0  0.54844  0.97748  0.78692  1.0000
  C   C2602     1.0  0.54840  0.96783  0.76694  1.0000
  C   C2603     1.0  0.56030  0.96679  0.74694  1.0000
  P   P88       1.0  0.53321  0.95713  0.76628  1.0000
  C   C2604     1.0  0.53659  0.94187  0.76043  1.0000
  C   C2605     1.0  0.52160  0.95572  0.80891  1.0000
  C   C2606     1.0  0.52478  0.95231  0.84304  1.0000
  C   C2607     1.0  0.51625  0.95218  0.87583  1.0000
  C   C2608     1.0  0.50464  0.95579  0.87477  1.0000
  C   C2609     1.0  0.50156  0.95956  0.84092  1.0000
  C   C2610     1.0  0.50999  0.95955  0.80815  1.0000
  C   C2611     1.0  0.54072  0.94027  0.72460  1.0000
  C   C2612     1.0  0.54364  0.92874  0.71920  1.0000
  C   C2613     1.0  0.54259  0.91868  0.74944  1.0000
  C   C2614     1.0  0.53886  0.92027  0.78524  1.0000
  C   C2615     1.0  0.53594  0.93184  0.79076  1.0000
  C   C2616     1.0  0.52689  0.96381  0.72824  1.0000
  C   C2617     1.0  0.52985  0.97727  0.71414  1.0000
  H   H2053     1.0  0.43836  0.86135  0.81570  1.0000
  H   H2054     1.0  0.40735  0.80905  0.91420  1.0000
  C   C2618     1.0  0.51357  0.96075  0.68410  1.0000
  C   C2619     1.0  0.51835  0.95559  0.71381  1.0000
  C   C2620     1.0  0.60969  0.98431  0.87577  1.0000
  H   H2055     1.0  0.45511  0.83921  0.96024  1.0000
  S   S363      1.0  0.33256  0.76218  0.81807  1.0000
  H   H2056     1.0  0.53939  0.97866  0.80199  1.0000
  H   H2057     1.0  0.56062  0.95983  0.73004  1.0000
  H   H2058     1.0  0.53408  0.95025  0.84422  1.0000
  H   H2059     1.0  0.51882  0.94965  0.90200  1.0000
  H   H2060     1.0  0.49819  0.95606  0.90002  1.0000
  C   C2621     1.0  0.38483  0.86713  0.69598  1.0000
  H   H2061     1.0  0.50755  0.96299  0.78230  1.0000
  H   H2062     1.0  0.54186  0.94802  0.70061  1.0000
  H   H2063     1.0  0.54669  0.92759  0.69139  1.0000
  H   H2064     1.0  0.54472  0.90970  0.74491  1.0000
  H   H2065     1.0  0.53824  0.91251  0.80866  1.0000
  H   H2066     1.0  0.53315  0.93281  0.81863  1.0000
  C   C2622     1.0  0.38869  0.86778  0.51619  1.0000
  S   S364      1.0  0.51146  0.99548  0.76717  1.0000
  C   C2623     1.0  0.46357  0.93699  0.82238  1.0000
  Fe  Fe185     1.0  0.35828  0.81226  0.78268  1.0000
  H   H2067     1.0  0.51557  0.94518  0.72495  1.0000
  C   C2624     1.0  0.44947  0.86338  0.92768  1.0000
  C   C2625     1.0  0.45797  0.86345  0.89501  1.0000
  C   C2626     1.0  0.45472  0.85394  0.87576  1.0000
  C   C2627     1.0  0.44324  0.84403  0.88998  1.0000
  C   C2628     1.0  0.43489  0.84359  0.92355  1.0000
  C   C2629     1.0  0.43788  0.85359  0.94170  1.0000
  P   P89       1.0  0.42086  0.82997  0.94414  1.0000
  C   C2630     1.0  0.45273  0.97297  0.71764  1.0000
  C   C2631     1.0  0.40741  0.83266  0.92413  1.0000
  H   H2068     1.0  0.48074  0.86233  0.51621  1.0000
  C   C2632     1.0  0.38419  0.82979  0.92873  1.0000
  C   C2633     1.0  0.38659  0.83503  0.89088  1.0000
  C   C2634     1.0  0.39936  0.83917  0.86957  1.0000
  C   C2635     1.0  0.40972  0.83793  0.88599  1.0000
  C   C2636     1.0  0.39124  0.91795  0.81970  1.0000
  S   S365      1.0  0.35314  0.78303  0.86458  1.0000
  C   C2637     1.0  0.48639  0.97377  0.69246  1.0000
  C   C2638     1.0  0.44405  0.96873  0.75239  1.0000
  C   C2639     1.0  0.38026  0.87199  0.59043  1.0000
  C   C2640     1.0  0.42503  0.81571  0.93206  1.0000
  C   C2641     1.0  0.41662  0.80736  0.91761  1.0000
  H   H2069     1.0  0.39570  0.88979  0.57423  1.0000
  C   C2642     1.0  0.38946  0.76396  0.95342  1.0000
  C   C2643     1.0  0.44051  0.80249  0.92457  1.0000
  C   C2644     1.0  0.43712  0.81328  0.93468  1.0000
  H   H2070     1.0  0.45206  0.87065  0.94290  1.0000
  H   H2071     1.0  0.46717  0.87073  0.88511  1.0000
  H   H2072     1.0  0.46132  0.85386  0.85055  1.0000
  H   H2073     1.0  0.44114  0.83648  0.87534  1.0000
  H   H2074     1.0  0.39378  0.85828  0.91479  1.0000
  C   C2645     1.0  0.43943  0.96911  0.50026  1.0000
  H   H2075     1.0  0.42655  0.95185  0.53824  1.0000
  H   H2076     1.0  0.37854  0.83563  0.87798  1.0000
  H   H2077     1.0  0.40116  0.84308  0.84011  1.0000
  H   H2078     1.0  0.41947  0.84060  0.86857  1.0000
  H   H2079     1.0  0.33193  0.78058  0.96604  1.0000
  H   H2080     1.0  0.42356  0.86418  0.77394  1.0000
  C   C2646     1.0  0.42196  0.86710  0.79980  1.0000
  C   C2647     1.0  0.38113  0.87787  0.80298  1.0000
  S   S366      1.0  0.43803  0.94836  0.65746  1.0000
  H   H2081     1.0  0.41475  0.78633  0.76575  1.0000
  C   C2648     1.0  0.47612  0.94980  0.74436  1.0000
  H   H2082     1.0  0.52863  0.97215  0.51296  1.0000
  H   H2083     1.0  0.44994  0.80082  0.92633  1.0000
  H   H2084     1.0  0.44414  0.81991  0.94352  1.0000
  H   H2085     1.0  0.42626  0.95493  0.78450  1.0000
  H   H2086     1.0  0.35443  0.75000  0.78960  1.0000
  C   C2649     1.0  0.57196  0.98463  0.76758  1.0000
  C   C2650     1.0  0.42907  0.76941  0.83296  1.0000
  H   H2087     1.0  0.55296  0.99287  0.66797  1.0000
  H   H2088     1.0  0.38096  0.92100  0.51132  1.0000
  H   H2089     1.0  0.47402  0.93694  0.49334  1.0000
  C   C2651     1.0  0.43445  0.77678  0.79675  1.0000
  C   C2652     1.0  0.43610  0.77065  0.76774  1.0000
  C   C2653     1.0  0.60412  0.97900  0.94273  1.0000
  C   C2654     1.0  0.37342  0.75610  0.83221  1.0000
  C   C2655     1.0  0.45368  0.94141  0.89134  1.0000
  C   C2656     1.0  0.39748  0.86483  0.48875  1.0000
  C   C2657     1.0  0.46279  0.75180  0.75688  1.0000
  C   C2658     1.0  0.34884  0.80577  0.95224  1.0000
  H   H2090     1.0  0.40460  0.85977  0.49603  1.0000
  H   H2091     1.0  0.56014  0.99362  0.80128  1.0000
  C   C2659     1.0  0.46875  0.96497  0.51194  1.0000
  H   H2092     1.0  0.38154  0.84671  0.63903  1.0000
  C   C2660     1.0  0.42490  0.99152  0.96309  1.0000
  H   H2093     1.0  0.43779  0.78727  0.79126  1.0000
  H   H2094     1.0  0.44065  0.77636  0.73984  1.0000
  C   C2661     1.0  0.40842  0.91098  0.48766  1.0000
  H   H2095     1.0  0.44228  0.87755  0.57273  1.0000
  H   H2096     1.0  0.44282  0.76549  0.88634  1.0000
  H   H2097     1.0  0.40932  0.74827  0.75371  1.0000
  H   H2098     1.0  0.40426  0.78451  0.97208  1.0000
  H   H2099     1.0  0.46175  0.96831  0.52964  1.0000
  C   C2662     1.0  0.41470  0.87880  0.54289  1.0000
  Fe  Fe186     1.0  0.34429  0.78297  0.81527  1.0000
  C   C2663     1.0  0.49190  0.79104  0.86123  1.0000
  H   H2100     1.0  0.49451  0.78242  0.73296  1.0000
  H   H2101     1.0  0.47587  0.74854  0.86279  1.0000
  C   C2664     1.0  0.50492  0.78910  0.77163  1.0000
  C   C2665     1.0  0.48173  0.79061  0.89057  1.0000
  P   P90       1.0  0.51801  0.79780  0.82262  1.0000
  H   H2102     1.0  0.42824  0.84488  0.73149  1.0000
  S   S367      1.0  0.36358  0.79368  0.77508  1.0000
  C   C2666     1.0  0.48443  0.79501  0.92120  1.0000
  C   C2667     1.0  0.53189  0.79447  0.83886  1.0000
  C   C2668     1.0  0.37927  0.84058  0.62051  1.0000
  C   C2669     1.0  0.49665  0.85412  0.49870  1.0000
  C   C2670     1.0  0.49467  0.75245  0.87540  1.0000
  C   C2671     1.0  0.49732  0.79990  0.92251  1.0000
  C   C2672     1.0  0.50751  0.80047  0.89301  1.0000
  H   H2103     1.0  0.61259  0.96738  0.90983  1.0000
  Fe  Fe187     1.0  0.34837  0.80202  0.86544  1.0000
  H   H2104     1.0  0.35027  0.86864  0.64513  1.0000
  C   C2673     1.0  0.50409  0.76842  0.75567  1.0000
  H   H2105     1.0  0.45901  0.87982  0.81963  1.0000
  H   H2106     1.0  0.41636  0.87783  0.89200  1.0000
  H   H2107     1.0  0.43509  0.86899  0.87361  1.0000
  H   H2108     1.0  0.36693  0.76323  0.87956  1.0000
  C   C2674     1.0  0.46030  0.74899  0.79534  1.0000
  H   H2109     1.0  0.42244  0.94401  0.73394  1.0000
  H   H2110     1.0  0.38163  0.76685  0.70430  1.0000
  H   H2111     1.0  0.40501  0.87328  0.79141  1.0000
  C   C2675     1.0  0.51209  0.76563  0.77940  1.0000
  H   H2112     1.0  0.60386  0.97252  0.96843  1.0000
  C   C2676     1.0  0.52498  0.98241  0.68463  1.0000
  H   H2113     1.0  0.51204  0.93357  0.49059  1.0000
  C   C2677     1.0  0.47133  0.83542  0.92515  1.0000
  H   H2114     1.0  0.48402  0.84502  0.64845  1.0000
  H   H2115     1.0  0.41701  0.90979  0.49716  1.0000
  C   C2678     1.0  0.38178  0.87296  0.83942  1.0000
  C   C2679     1.0  0.55340  0.78923  0.86444  1.0000
  C   C2680     1.0  0.53007  0.78477  0.87107  1.0000
  C   C2681     1.0  0.40057  0.76898  0.76648  1.0000
  H   H2116     1.0  0.48198  0.98392  0.48994  1.0000
  C   C2682     1.0  0.54079  0.78219  0.88382  1.0000
  H   H2117     1.0  0.56171  0.78728  0.87446  1.0000
  H   H2118     1.0  0.52035  0.77924  0.88641  1.0000
  H   H2119     1.0  0.44976  0.93952  0.73909  1.0000
  H   H2120     1.0  0.51478  0.75649  0.78252  1.0000
  H   H2121     1.0  0.58106  0.99133  0.76684  1.0000
  C   C2683     1.0  0.50472  0.91604  0.77282  1.0000
  H   H2122     1.0  0.43983  0.89193  0.78733  1.0000
  C   C2684     1.0  0.43715  0.92100  0.74224  1.0000
  C   C2685     1.0  0.37178  0.87120  0.78771  1.0000
  C   C2686     1.0  0.48829  0.86215  0.49322  1.0000
  S   S368      1.0  0.36766  0.81404  0.82992  1.0000
  C   C2687     1.0  0.44218  0.90229  0.77635  1.0000
  H   H2123     1.0  0.49734  0.87747  0.77152  1.0000
  C   C2688     1.0  0.39178  0.76659  0.91499  1.0000
  H   H2124     1.0  0.37839  0.89880  0.83900  1.0000
  H   H2125     1.0  0.53933  0.77479  0.90890  1.0000
  C   C2689     1.0  0.50267  0.92404  0.79704  1.0000
  H   H2126     1.0  0.45899  0.90611  0.79882  1.0000
  H   H2127     1.0  0.42597  0.90129  0.75046  1.0000
  C   C2690     1.0  0.49602  0.91335  0.75076  1.0000
  H   H2128     1.0  0.49773  0.90731  0.73155  1.0000
  H   H2129     1.0  0.58117  0.97420  0.73229  1.0000
  H   H2130     1.0  0.47861  0.91643  0.73575  1.0000
  C   C2691     1.0  0.43431  0.90757  0.75579  1.0000
  C   C2692     1.0  0.45302  0.91037  0.78272  1.0000
  H   H2131     1.0  0.49284  0.96291  0.83989  1.0000
  H   H2132     1.0  0.47118  0.94253  0.69834  1.0000
  H   H2133     1.0  0.42760  0.85685  0.61270  1.0000
  H   H2134     1.0  0.38510  0.87565  0.67545  1.0000
  H   H2135     1.0  0.43104  0.92515  0.72634  1.0000
  C   C2693     1.0  0.42766  0.88240  0.54521  1.0000
  H   H2136     1.0  0.56476  0.98199  0.56081  1.0000
  H   H2137     1.0  0.46096  0.76390  0.91587  1.0000
  H   H2138     1.0  0.36783  0.85523  0.68557  1.0000
  H   H2139     1.0  0.57345  0.98962  0.94310  1.0000
  C   C2694     1.0  0.38212  0.84587  0.58227  1.0000
  H   H2140     1.0  0.38366  0.89482  0.91174  1.0000
  H   H2141     1.0  0.37104  0.82344  0.66492  1.0000
  H   H2142     1.0  0.41356  0.79031  0.89599  1.0000
  H   H2143     1.0  0.38340  0.90168  0.61045  1.0000
  H   H2144     1.0  0.43457  0.75239  0.75259  1.0000
  C   C2695     1.0  0.48231  0.96081  0.75482  1.0000
  C   C2696     1.0  0.45934  0.93102  0.88933  1.0000
  H   H2145     1.0  0.46839  0.92057  0.85385  1.0000
  C   C2697     1.0  0.43038  0.86568  0.82310  1.0000
  Fe  Fe188     1.0  0.37176  0.79499  0.82477  1.0000
  C   C2698     1.0  0.37435  0.84444  0.72891  1.0000
  C   C2699     1.0  0.38364  0.84502  0.75003  1.0000
  H   H2146     1.0  0.36548  0.80906  0.62356  1.0000
  S   S369      1.0  0.36181  0.83007  0.73529  1.0000
  C   C2700     1.0  0.40078  0.76146  0.89482  1.0000
  C   C2701     1.0  0.36315  0.85946  0.80830  1.0000
  H   H2147     1.0  0.38339  0.83655  0.77062  1.0000
  S   S370      1.0  0.47662  0.98556  0.82962  1.0000
  H   H2148     1.0  0.48023  0.96348  0.65292  1.0000
  C   C2702     1.0  0.36611  0.88587  0.63047  1.0000
  C   C2703     1.0  0.42400  0.86293  0.59305  1.0000
  H   H2149     1.0  0.42376  0.92562  0.81479  1.0000
  H   H2150     1.0  0.38077  0.84142  0.52952  1.0000
  C   C2704     1.0  0.41134  0.87217  0.80995  1.0000
  H   H2151     1.0  0.36072  0.89123  0.64605  1.0000
  H   H2152     1.0  0.35624  0.85407  0.79585  1.0000
  C   C2705     1.0  0.37283  0.86130  0.86026  1.0000
  C   C2706     1.0  0.36724  0.86627  0.60976  1.0000
  C   C2707     1.0  0.37019  0.81928  0.61198  1.0000
  H   H2153     1.0  0.39428  0.78957  0.67950  1.0000
  C   C2708     1.0  0.51708  0.97414  0.66910  1.0000
  H   H2154     1.0  0.37291  0.87711  0.52630  1.0000
  C   C2709     1.0  0.46419  0.92874  0.85496  1.0000
  S   S371      1.0  0.44632  0.97613  0.78984  1.0000
  H   H2155     1.0  0.45645  0.95330  0.80008  1.0000
  C   C2710     1.0  0.57307  0.99033  0.55427  1.0000
  C   C2711     1.0  0.41776  0.87479  0.86630  1.0000
  H   H2156     1.0  0.44821  0.95742  0.86032  1.0000
  C   C2712     1.0  0.46644  0.95182  0.51195  1.0000
  C   C2713     1.0  0.36813  0.75473  0.86965  1.0000
  C   C2714     1.0  0.36363  0.85455  0.84465  1.0000
  H   H2157     1.0  0.42196  0.99379  0.93734  1.0000
  C   C2715     1.0  0.38595  0.88489  0.59031  1.0000
  H   H2158     1.0  0.39224  0.82325  0.97392  1.0000
  H   H2159     1.0  0.48316  0.96028  0.78296  1.0000
  C   C2716     1.0  0.43773  0.99658  0.96455  1.0000
  C   C2717     1.0  0.41097  0.85937  0.59120  1.0000
  C   C2718     1.0  0.40547  0.78931  0.72073  1.0000
  C   C2719     1.0  0.39635  0.75639  0.97179  1.0000
  H   H2160     1.0  0.40474  0.85049  0.60963  1.0000
  C   C2720     1.0  0.35961  0.80050  0.94792  1.0000
  H   H2161     1.0  0.43849  0.97511  0.51990  1.0000
  H   H2162     1.0  0.41081  0.79942  0.71023  1.0000
  C   C2721     1.0  0.38437  0.88557  0.92677  1.0000
  C   C2722     1.0  0.46463  0.83748  0.95815  1.0000
  C   C2723     1.0  0.39449  0.82824  0.94513  1.0000
  H   H2163     1.0  0.37300  0.85723  0.88836  1.0000
  C   C2724     1.0  0.37890  0.83767  0.55902  1.0000
  P   P91       1.0  0.38927  0.86314  0.56399  1.0000
  H   H2164     1.0  0.45996  0.92474  0.91442  1.0000
  H   H2165     1.0  0.40209  0.76335  0.86511  1.0000
  H   H2166     1.0  0.43395  0.89161  0.52876  1.0000
  C   C2725     1.0  0.42013  0.79666  0.90703  1.0000
  C   C2726     1.0  0.48017  0.97373  0.48972  1.0000
  C   C2727     1.0  0.48726  0.97277  0.72906  1.0000
  H   H2167     1.0  0.37542  0.79624  0.97086  1.0000
  C   C2728     1.0  0.39004  0.86505  0.92859  1.0000
  H   H2168     1.0  0.50755  0.96185  0.50330  1.0000
  C   C2729     1.0  0.60910  0.97604  0.90948  1.0000
  H   H2169     1.0  0.49177  0.98128  0.73748  1.0000
  C   C2730     1.0  0.45267  0.94938  0.85905  1.0000
  C   C2731     1.0  0.36024  0.87316  0.62991  1.0000
  H   H2170     1.0  0.36241  0.85651  0.60931  1.0000
  C   C2732     1.0  0.43385  0.94820  0.48546  1.0000
  C   C2733     1.0  0.38898  0.77082  0.71776  1.0000
  H   H2171     1.0  0.34671  0.76656  0.95554  1.0000
  C   C2734     1.0  0.39110  0.76332  0.74948  1.0000
  S   S372      1.0  0.33824  0.80151  0.81890  1.0000
  H   H2172     1.0  0.36250  0.79713  0.92338  1.0000
  C   C2735     1.0  0.43312  0.95822  0.75788  1.0000
  C   C2736     1.0  0.39614  0.78376  0.70352  1.0000
  H   H2173     1.0  0.38810  0.88664  0.78579  1.0000
  H   H2174     1.0  0.49315  0.76051  0.88721  1.0000
  H   H2175     1.0  0.58686  0.97969  0.53714  1.0000
  C   C2737     1.0  0.44234  0.75640  0.90484  1.0000
  H   H2176     1.0  0.50732  0.95438  0.67223  1.0000
  H   H2177     1.0  0.49012  0.98308  0.67267  1.0000
  H   H2178     1.0  0.49557  0.84804  0.52583  1.0000
  C   C2738     1.0  0.38835  0.90450  0.83361  1.0000
  H   H2179     1.0  0.51312  0.91201  0.77068  1.0000
  H   H2180     1.0  0.37045  0.81817  0.55583  1.0000
  C   C2739     1.0  0.43093  0.95198  0.72924  1.0000
  H   H2181     1.0  0.53603  0.98382  0.72559  1.0000
  C   C2740     1.0  0.43204  0.79419  0.91063  1.0000
  C   C2741     1.0  0.41388  0.91969  0.82010  1.0000
  H   H2182     1.0  0.43485  0.78605  0.90187  1.0000
  C   C2742     1.0  0.45746  0.94709  0.82477  1.0000
  C   C2743     1.0  0.37333  0.82736  0.63527  1.0000
  H   H2183     1.0  0.45733  0.97022  0.66226  1.0000
  C   C2744     1.0  0.41104  0.90623  0.83385  1.0000
  H   H2184     1.0  0.37153  0.87492  0.75934  1.0000
  H   H2185     1.0  0.53362  0.92753  0.48667  1.0000
  C   C2745     1.0  0.43974  0.95612  0.69457  1.0000
  H   H2186     1.0  0.41123  0.88519  0.52365  1.0000
  H   H2187     1.0  0.45760  0.94505  0.52939  1.0000
  C   C2746     1.0  0.43278  0.95598  0.51072  1.0000
  C   C2747     1.0  0.45053  0.96677  0.68898  1.0000
  H   H2188     1.0  0.41885  0.90192  0.83922  1.0000
  H   H2189     1.0  0.61364  0.98208  0.85000  1.0000
  C   C2748     1.0  0.60531  0.99554  0.87528  1.0000
  H   H2190     1.0  0.51362  0.75354  0.88643  1.0000
  C   C2749     1.0  0.57111  0.99621  0.95988  1.0000
  C   C2750     1.0  0.38564  0.86160  0.96704  1.0000
  C   C2751     1.0  0.59960  0.99024  0.94246  1.0000
  C   C2752     1.0  0.38817  0.91731  0.49562  1.0000
  C   C2753     1.0  0.50621  0.74857  0.87473  1.0000
  C   C2754     1.0  0.36688  0.79996  0.97491  1.0000
  H   H2191     1.0  0.37426  0.82664  0.94518  1.0000
  C   C2755     1.0  0.43258  0.75712  0.77497  1.0000
  C   C2756     1.0  0.38006  0.88213  0.96529  1.0000
  H   H2192     1.0  0.45533  0.91136  0.49647  1.0000
  H   H2193     1.0  0.37597  0.76568  0.81378  1.0000
  H   H2194     1.0  0.50840  0.90991  0.50975  1.0000
  C   C2757     1.0  0.52830  0.96848  0.48846  1.0000
  S   S373      1.0  0.55958  0.94143  0.48878  1.0000
  H   H2195     1.0  0.47653  0.79493  0.94344  1.0000
  H   H2196     1.0  0.38244  0.76795  0.96887  1.0000
  H   H2197     1.0  0.46150  0.81115  0.97695  1.0000
  H   H2198     1.0  0.37612  0.88871  0.97960  1.0000
  H   H2199     1.0  0.52749  0.99281  0.67360  1.0000
  H   H2200     1.0  0.38593  0.85223  0.98262  1.0000
  H   H2201     1.0  0.48488  0.99585  0.98434  1.0000
  C   C2758     1.0  0.34521  0.81021  0.98403  1.0000
  P   P92       1.0  0.59351  0.99447  0.98509  1.0000
  C   C2759     1.0  0.71813  0.15768  0.41483  1.0000
  C   C2760     1.0  0.67100  0.18803  0.41074  1.0000
  C   C2761     1.0  0.71879  0.15352  0.47936  1.0000
  S   S374      1.0  0.68370  0.17028  0.16807  1.0000
  C   C2762     1.0  0.70598  0.12672  0.35214  1.0000
  H   H2202     1.0  0.72465  0.18593  0.44258  1.0000
  S   S375      1.0  0.67484  0.13569  0.24246  1.0000
  C   C2763     1.0  0.68093  0.15417  0.43453  1.0000
  H   H2203     1.0  0.68715  0.20916  0.00091  1.0000
  C   C2764     1.0  0.68538  0.11867  0.39733  1.0000
  C   C2765     1.0  0.68759  0.22081  0.04084  1.0000
  C   C2766     1.0  0.66832  0.18706  0.44875  1.0000
  C   C2767     1.0  0.72166  0.16687  0.47720  1.0000
  C   C2768     1.0  0.68221  0.21037  0.02714  1.0000
  S   S376      1.0  0.71476  0.22667  0.17291  1.0000
  H   H2204     1.0  0.67494  0.11464  0.40380  1.0000
  C   C2769     1.0  0.70496  0.12755  0.41617  1.0000
  H   H2205     1.0  0.72258  0.13417  0.37234  1.0000
  Fe  Fe189     1.0  0.72355  0.24309  0.12111  1.0000
  H   H2206     1.0  0.73920  0.14231  0.46242  1.0000
  C   C2770     1.0  0.72278  0.17562  0.44392  1.0000
  C   C2771     1.0  0.68125  0.22237  0.07470  1.0000
  H   H2207     1.0  0.68767  0.11899  0.33963  1.0000
  H   H2208     1.0  0.67952  0.18525  0.39824  1.0000
  H   H2209     1.0  0.71251  0.20739  0.30532  1.0000
  C   C2772     1.0  0.69148  0.12201  0.42477  1.0000
  C   C2773     1.0  0.70429  0.19948  0.30669  1.0000
  H   H2210     1.0  0.68557  0.12041  0.45236  1.0000
  H   H2211     1.0  0.67489  0.18387  0.46463  1.0000
  H   H2212     1.0  0.69025  0.20790  0.33459  1.0000
  H   H2213     1.0  0.71152  0.12872  0.32387  1.0000
  C   C2774     1.0  0.68302  0.17941  0.30833  1.0000
  C   C2775     1.0  0.69258  0.12115  0.36100  1.0000
  C   C2776     1.0  0.66979  0.14380  0.44752  1.0000
  C   C2777     1.0  0.69168  0.19974  0.32323  1.0000
  C   C2778     1.0  0.69125  0.18628  0.16995  1.0000
  C   C2779     1.0  0.69049  0.19013  0.20325  1.0000
  C   C2780     1.0  0.69751  0.20262  0.20377  1.0000
  C   C2781     1.0  0.70518  0.21145  0.17092  1.0000
  C   C2782     1.0  0.70547  0.20777  0.13746  1.0000
  C   C2783     1.0  0.69860  0.19524  0.13705  1.0000
  H   H2214     1.0  0.68470  0.18338  0.22858  1.0000
  H   H2215     1.0  0.69711  0.20540  0.22973  1.0000
  H   H2216     1.0  0.71130  0.21443  0.11198  1.0000
  H   H2217     1.0  0.69918  0.19239  0.11111  1.0000
  H   H2218     1.0  0.71598  0.18915  0.27725  1.0000
  C   C2784     1.0  0.74744  0.24535  0.24981  1.0000
  H   H2219     1.0  0.71647  0.15438  0.39062  1.0000
  C   C2785     1.0  0.67014  0.14122  0.38469  1.0000
  C   C2786     1.0  0.68663  0.15806  0.39634  1.0000
  C   C2787     1.0  0.68131  0.15157  0.37157  1.0000
  C   C2788     1.0  0.67128  0.24350  0.14421  1.0000
  H   H2220     1.0  0.69529  0.16603  0.38589  1.0000
  H   H2221     1.0  0.68605  0.15427  0.34255  1.0000
  C   C2789     1.0  0.68095  0.18967  0.32431  1.0000
  H   H2222     1.0  0.71992  0.10917  0.42778  1.0000
  S   S377      1.0  0.71682  0.24324  0.06868  1.0000
  H   H2223     1.0  0.66542  0.14052  0.47672  1.0000
  H   H2224     1.0  0.69669  0.22769  0.02531  1.0000
  C   C2790     1.0  0.73925  0.13354  0.45288  1.0000
  C   C2791     1.0  0.74288  0.24232  0.21963  1.0000
  H   H2225     1.0  0.67495  0.17167  0.30802  1.0000
  Fe  Fe190     1.0  0.67010  0.15410  0.21542  1.0000
  C   C2792     1.0  0.71218  0.12984  0.37964  1.0000
  S   S378      1.0  0.68819  0.16218  0.46517  1.0000
  H   H2226     1.0  0.67311  0.15715  0.10736  1.0000
  H   H2227     1.0  0.72158  0.17780  0.38723  1.0000
  H   H2228     1.0  0.72348  0.23127  0.00501  1.0000
  H   H2229     1.0  0.67149  0.23661  0.16859  1.0000
  H   H2230     1.0  0.68548  0.23041  0.08541  1.0000
  H   H2231     1.0  0.67107  0.17930  0.10707  1.0000
  H   H2232     1.0  0.74024  0.10203  0.41942  1.0000
  C   C2793     1.0  0.71694  0.14881  0.44821  1.0000
  C   C2794     1.0  0.70626  0.18921  0.29090  1.0000
  H   H2233     1.0  0.69712  0.17135  0.27886  1.0000
  C   C2795     1.0  0.69563  0.17918  0.29181  1.0000
  C   C2796     1.0  0.72106  0.17103  0.41274  1.0000
  C   C2797     1.0  0.75109  0.11806  0.43611  1.0000
  H   H2234     1.0  0.75999  0.11486  0.43254  1.0000
  C   C2798     1.0  0.72805  0.12637  0.44530  1.0000
  C   C2799     1.0  0.75072  0.12939  0.44823  1.0000
  H   H2235     1.0  0.74229  0.23279  0.21409  1.0000
  P   P93       1.0  0.71310  0.13151  0.45149  1.0000
  C   C2800     1.0  0.66956  0.21348  0.09503  1.0000
  C   C2801     1.0  0.67053  0.20145  0.04736  1.0000
  C   C2802     1.0  0.72848  0.11495  0.43334  1.0000
  C   C2803     1.0  0.73997  0.11084  0.42871  1.0000
  H   H2236     1.0  0.66552  0.22730  0.01394  1.0000
  H   H2237     1.0  0.75934  0.13497  0.45409  1.0000
  H   H2238     1.0  0.75056  0.23818  0.26762  1.0000
  H   H2239     1.0  0.66652  0.19338  0.03641  1.0000
  H   H2240     1.0  0.66495  0.21489  0.12129  1.0000
  C   C2804     1.0  0.66444  0.13742  0.42276  1.0000
  H   H2241     1.0  0.66739  0.19628  0.26287  1.0000
  P   P94       1.0  0.66473  0.19098  0.34220  1.0000
  C   C2805     1.0  0.66411  0.20291  0.08154  1.0000
  C   C2806     1.0  0.66465  0.20437  0.27234  1.0000
  C   C2807     1.0  0.66389  0.15941  0.10603  1.0000
  H   H2242     1.0  0.66416  0.21420  0.21784  1.0000
  S   S379      1.0  0.66362  0.13190  0.35556  1.0000
  H   H2243     1.0  0.66348  0.09663  0.46317  1.0000
  H   H2244     1.0  0.66821  0.15186  0.83076  1.0000
  C   C2808     1.0  0.76290  0.22431  0.87451  1.0000
  P   P95       1.0  0.77507  0.23425  0.83408  1.0000
  Fe  Fe191     1.0  0.67824  0.16902  0.59826  1.0000
  C   C2809     1.0  0.70461  0.11160  0.51634  1.0000
  S   S380      1.0  0.68512  0.18521  0.62745  1.0000
  C   C2810     1.0  0.75551  0.21767  0.94146  1.0000
  Fe  Fe192     1.0  0.67861  0.15859  0.52650  1.0000
  C   C2811     1.0  0.80443  0.21779  0.85594  1.0000
  H   H2245     1.0  0.69033  0.16115  0.69826  1.0000
  S   S381      1.0  0.68683  0.15379  0.57673  1.0000
  Fe  Fe193     1.0  0.72413  0.22824  0.74588  1.0000
  S   S382      1.0  0.70732  0.22639  0.79285  1.0000
  S   S383      1.0  0.72512  0.21222  0.71374  1.0000
  H   H2246     1.0  0.68809  0.17927  0.72708  1.0000
  C   C2812     1.0  0.67652  0.24247  0.78575  1.0000
  H   H2247     1.0  0.69809  0.09650  0.56678  1.0000
  Fe  Fe194     1.0  0.72167  0.23323  0.82491  1.0000
  S   S384      1.0  0.71649  0.22372  0.88610  1.0000
  C   C2813     1.0  0.73924  0.24311  0.95984  1.0000
  H   H2248     1.0  0.68428  0.19108  0.86398  1.0000
  S   S385      1.0  0.73857  0.23316  0.78058  1.0000
  C   C2814     1.0  0.76468  0.21636  0.75438  1.0000
  C   C2815     1.0  0.79212  0.22008  0.85700  1.0000
  C   C2816     1.0  0.68097  0.14635  0.74835  1.0000
  H   H2249     1.0  0.67745  0.12622  0.55982  1.0000
  C   C2817     1.0  0.74407  0.24645  0.92144  1.0000
  C   C2818     1.0  0.72501  0.23163  0.91416  1.0000
  C   C2819     1.0  0.79083  0.23125  0.83391  1.0000
  C   C2820     1.0  0.67467  0.14383  0.78562  1.0000
  C   C2821     1.0  0.70432  0.18652  0.78952  1.0000
  H   H2250     1.0  0.68603  0.20880  0.78793  1.0000
  C   C2822     1.0  0.69259  0.18611  0.81362  1.0000
  C   C2823     1.0  0.76582  0.22681  0.72499  1.0000
  H   H2251     1.0  0.71781  0.14689  0.50553  1.0000
  C   C2824     1.0  0.67542  0.23143  0.81337  1.0000
  H   H2252     1.0  0.68360  0.22665  0.74096  1.0000
  H   H2253     1.0  0.68351  0.23053  0.82560  1.0000
  H   H2254     1.0  0.66555  0.18760  0.94046  1.0000
  C   C2825     1.0  0.69671  0.19266  0.65033  1.0000
  C   C2826     1.0  0.70710  0.18763  0.65794  1.0000
  C   C2827     1.0  0.71563  0.19369  0.67737  1.0000
  C   C2828     1.0  0.71396  0.20488  0.68951  1.0000
  C   C2829     1.0  0.70369  0.20998  0.68147  1.0000
  C   C2830     1.0  0.69521  0.20396  0.66195  1.0000
  H   H2255     1.0  0.70855  0.17905  0.64897  1.0000
  H   H2256     1.0  0.72358  0.18967  0.68302  1.0000
  H   H2257     1.0  0.70239  0.21869  0.68984  1.0000
  H   H2258     1.0  0.68744  0.20814  0.65559  1.0000
  H   H2259     1.0  0.72524  0.19177  0.77844  1.0000
  C   C2831     1.0  0.68562  0.15914  0.72734  1.0000
  C   C2832     1.0  0.72720  0.23405  0.97540  1.0000
  H   H2260     1.0  0.72268  0.17041  0.50159  1.0000
  C   C2833     1.0  0.74378  0.21010  0.93843  1.0000
  C   C2834     1.0  0.74151  0.20971  0.90360  1.0000
  C   C2835     1.0  0.75090  0.21700  0.87173  1.0000
  C   C2836     1.0  0.66421  0.17654  0.84363  1.0000
  Fe  Fe195     1.0  0.66684  0.14006  0.60247  1.0000
  H   H2261     1.0  0.76306  0.22506  0.70000  1.0000
  C   C2837     1.0  0.70502  0.19505  0.85417  1.0000
  C   C2838     1.0  0.67808  0.16702  0.78130  1.0000
  C   C2839     1.0  0.76505  0.22473  0.90967  1.0000
  C   C2840     1.0  0.71625  0.19110  0.79785  1.0000
  H   H2262     1.0  0.80538  0.20916  0.87386  1.0000
  H   H2263     1.0  0.68081  0.10599  0.59469  1.0000
  H   H2264     1.0  0.70439  0.18375  0.76364  1.0000
  H   H2265     1.0  0.71105  0.22097  0.96478  1.0000
  C   C2841     1.0  0.68691  0.11070  0.56726  1.0000
  C   C2842     1.0  0.80192  0.23989  0.80910  1.0000
  C   C2843     1.0  0.71661  0.19538  0.83011  1.0000
  C   C2844     1.0  0.69306  0.19063  0.84579  1.0000
  C   C2845     1.0  0.67921  0.20632  0.92759  1.0000
  H   H2266     1.0  0.69058  0.22587  0.91637  1.0000
  C   C2846     1.0  0.81546  0.22654  0.83158  1.0000
  C   C2847     1.0  0.66475  0.16790  0.87561  1.0000
  H   H2267     1.0  0.76680  0.21044  0.80970  1.0000
  C   C2848     1.0  0.77148  0.23140  0.79129  1.0000
  H   H2268     1.0  0.73215  0.20434  0.90134  1.0000
  H   H2269     1.0  0.68213  0.13840  0.73559  1.0000
  C   C2849     1.0  0.68423  0.16941  0.74374  1.0000
  H   H2270     1.0  0.76123  0.20652  0.75183  1.0000
  H   H2271     1.0  0.74848  0.21725  0.84530  1.0000
  H   H2272     1.0  0.67097  0.13389  0.80183  1.0000
  H   H2273     1.0  0.77396  0.23080  0.91253  1.0000
  C   C2850     1.0  0.76769  0.21864  0.78722  1.0000
  H   H2274     1.0  0.72587  0.19929  0.83598  1.0000
  C   C2851     1.0  0.68501  0.12213  0.54764  1.0000
  C   C2852     1.0  0.69666  0.10538  0.55152  1.0000
  C   C2853     1.0  0.67889  0.21668  0.74207  1.0000
  C   C2854     1.0  0.68050  0.20655  0.76817  1.0000
  C   C2855     1.0  0.67493  0.19362  0.76880  1.0000
  C   C2856     1.0  0.77030  0.23952  0.72810  1.0000
  C   C2857     1.0  0.72019  0.22819  0.95261  1.0000
  H   H2275     1.0  0.70538  0.19860  0.87879  1.0000
  C   C2858     1.0  0.67315  0.15410  0.80202  1.0000
  H   H2276     1.0  0.71213  0.10734  0.50483  1.0000
  P   P96       1.0  0.67213  0.24143  0.93661  1.0000
  H   H2277     1.0  0.78367  0.21306  0.87557  1.0000
  H   H2278     1.0  0.82498  0.22472  0.83068  1.0000
  H   H2279     1.0  0.68762  0.20279  0.91863  1.0000
  S   S386      1.0  0.67196  0.17501  0.54551  1.0000
  H   H2280     1.0  0.74049  0.24354  0.86911  1.0000
  C   C2859     1.0  0.81420  0.23757  0.80809  1.0000
  P   P97       1.0  0.67716  0.18058  0.80228  1.0000
  C   C2860     1.0  0.68087  0.21953  0.92644  1.0000
  C   C2861     1.0  0.67014  0.22433  0.93823  1.0000
  H   H2281     1.0  0.69118  0.13714  0.49765  1.0000
  H   H2282     1.0  0.82273  0.24429  0.78890  1.0000
  C   C2862     1.0  0.66680  0.19780  0.94000  1.0000
  C   C2863     1.0  0.77329  0.24182  0.76091  1.0000
  C   C2864     1.0  0.70288  0.12323  0.49677  1.0000
  C   C2865     1.0  0.66566  0.24382  0.77168  1.0000
  C   C2866     1.0  0.69287  0.12832  0.51247  1.0000
  C   C2867     1.0  0.66379  0.22148  0.82522  1.0000
  C   C2868     1.0  0.66706  0.19094  0.74438  1.0000
  C   C2869     1.0  0.73684  0.24092  0.89864  1.0000
  H   H2283     1.0  0.67027  0.22183  0.69672  1.0000
  C   C2870     1.0  0.67137  0.21395  0.71713  1.0000
  H   H2284     1.0  0.66358  0.16412  0.69189  1.0000
  S   S387      1.0  0.66467  0.11983  0.63746  1.0000
  C   C2871     1.0  0.66546  0.20107  0.71828  1.0000
  H   H2285     1.0  0.75702  0.21841  0.96848  1.0000
  H   H2286     1.0  0.67277  0.16337  0.87549  1.0000
  H   H2287     1.0  0.66980  0.09968  0.52102  1.0000
  H   H2288     1.0  0.73623  0.20495  0.96304  1.0000
  C   C2872     1.0  0.98544  0.48357  0.08618  1.0000
  S   S388      1.0  0.73528  0.27337  0.03876  1.0000
  S   S389      1.0  0.96154  0.48541  0.22608  1.0000
  C   C2873     1.0  0.69215  0.27145  0.18160  1.0000
  H   H2289     1.0  0.79748  0.45504  0.18732  1.0000
  H   H2290     1.0  0.94198  0.49185  0.01796  1.0000
  H   H2291     1.0  0.76006  0.42467  0.02898  1.0000
  H   H2292     1.0  0.89781  0.41921  0.19357  1.0000
  Fe  Fe196     1.0  0.91923  0.40298  0.32199  1.0000
  S   S390      1.0  0.92210  0.38534  0.30113  1.0000
  S   S391      1.0  0.91387  0.40667  0.38003  1.0000
  Fe  Fe197     1.0  0.92140  0.41852  0.24338  1.0000
  S   S392      1.0  0.92437  0.40228  0.21689  1.0000
  S   S393      1.0  0.92028  0.43756  0.20968  1.0000
  Fe  Fe198     1.0  0.90836  0.38926  0.26426  1.0000
  S   S394      1.0  0.89024  0.37407  0.26133  1.0000
  Fe  Fe199     1.0  0.93786  0.39980  0.25485  1.0000
  H   H2293     1.0  0.68067  0.26480  0.23758  1.0000
  S   S395      1.0  0.90452  0.40591  0.28840  1.0000
  S   S396      1.0  0.93581  0.41700  0.27818  1.0000
  Fe  Fe200     1.0  0.84534  0.35542  0.11767  1.0000
  S   S397      1.0  0.83818  0.37241  0.09333  1.0000
  S   S398      1.0  0.86628  0.36037  0.12600  1.0000
  Fe  Fe201     1.0  0.81980  0.33567  0.11624  1.0000
  S   S399      1.0  0.81083  0.35148  0.09487  1.0000
  S   S400      1.0  0.80991  0.31426  0.12102  1.0000
  Fe  Fe202     1.0  0.83039  0.36046  0.05618  1.0000
  C   C2874     1.0  0.69002  0.48945  0.10185  1.0000
  Fe  Fe203     1.0  0.81939  0.36192  0.13386  1.0000
  S   S401      1.0  0.80864  0.37272  0.16851  1.0000
  S   S402      1.0  0.83938  0.34444  0.07575  1.0000
  S   S403      1.0  0.82658  0.34521  0.16000  1.0000
  Fe  Fe204     1.0  0.71164  0.43091  0.09748  1.0000
  S   S404      1.0  0.70217  0.44748  0.08824  1.0000
  S   S405      1.0  0.70263  0.40990  0.09860  1.0000
  Fe  Fe205     1.0  0.73896  0.44897  0.08785  1.0000
  S   S406      1.0  0.73158  0.46681  0.07776  1.0000
  S   S407      1.0  0.76005  0.44770  0.07704  1.0000
  Fe  Fe206     1.0  0.71431  0.45571  0.12461  1.0000
  S   S408      1.0  0.70841  0.46709  0.16668  1.0000
  Fe  Fe207     1.0  0.72008  0.45719  0.04256  1.0000
  H   H2294     1.0  0.75192  0.29655  0.29965  1.0000
  S   S409      1.0  0.72256  0.43829  0.13750  1.0000
  S   S410      1.0  0.72862  0.44019  0.04899  1.0000
  Fe  Fe208     1.0  0.85953  0.47510  0.10116  1.0000
  S   S411      1.0  0.84082  0.46638  0.14487  1.0000
  S   S412      1.0  0.88012  0.48520  0.10556  1.0000
  Fe  Fe209     1.0  0.84785  0.46156  0.04515  1.0000
  S   S413      1.0  0.82875  0.45149  0.08536  1.0000
  C   C2875     1.0  0.73978  0.28568  0.35228  1.0000
  Fe  Fe210     1.0  0.83024  0.47076  0.09982  1.0000
  S   S414      1.0  0.81231  0.47876  0.10812  1.0000
  Fe  Fe211     1.0  0.84064  0.44782  0.12664  1.0000
  S   S415      1.0  0.83649  0.42989  0.17271  1.0000
  S   S416      1.0  0.84895  0.48119  0.05713  1.0000
  S   S417      1.0  0.85970  0.45616  0.08528  1.0000
  C   C2876     1.0  0.68302  0.25088  0.11953  1.0000
  C   C2877     1.0  0.66631  0.30074  0.08113  1.0000
  C   C2878     1.0  0.72389  0.26623  0.35269  1.0000
  C   C2879     1.0  0.78487  0.39659  0.18840  1.0000
  H   H2295     1.0  0.94732  0.48098  0.44698  1.0000
  H   H2296     1.0  0.67214  0.30882  0.02231  1.0000
  C   C2880     1.0  0.67270  0.32269  0.19279  1.0000
  H   H2297     1.0  0.99096  0.45415  0.19953  1.0000
  C   C2881     1.0  0.77435  0.45719  0.08451  1.0000
  C   C2882     1.0  0.77419  0.46662  0.10504  1.0000
  C   C2883     1.0  0.78591  0.47337  0.11151  1.0000
  C   C2884     1.0  0.79783  0.47069  0.09774  1.0000
  C   C2885     1.0  0.79799  0.46163  0.07606  1.0000
  C   C2886     1.0  0.78632  0.45495  0.06950  1.0000
  H   H2298     1.0  0.76504  0.46851  0.11648  1.0000
  H   H2299     1.0  0.78570  0.48046  0.12798  1.0000
  H   H2300     1.0  0.80709  0.45978  0.06427  1.0000
  H   H2301     1.0  0.78654  0.44797  0.05271  1.0000
  C   C2887     1.0  0.81679  0.38871  0.16788  1.0000
  C   C2888     1.0  0.81511  0.39271  0.20094  1.0000
  C   C2889     1.0  0.82108  0.40539  0.20172  1.0000
  C   C2890     1.0  0.82855  0.41436  0.16926  1.0000
  C   C2891     1.0  0.82998  0.41057  0.13578  1.0000
  C   C2892     1.0  0.82434  0.39763  0.13522  1.0000
  H   H2302     1.0  0.80933  0.38588  0.22623  1.0000
  H   H2303     1.0  0.81990  0.40823  0.22767  1.0000
  H   H2304     1.0  0.83559  0.41754  0.11062  1.0000
  H   H2305     1.0  0.82561  0.39463  0.10955  1.0000
  H   H2306     1.0  0.92395  0.40207  0.06339  1.0000
  H   H2307     1.0  0.73236  0.46637  0.44601  1.0000
  C   C2893     1.0  0.78266  0.44315  0.16860  1.0000
  C   C2894     1.0  0.85417  0.31267  0.07800  1.0000
  C   C2895     1.0  0.98792  0.42029  0.43755  1.0000
  C   C2896     1.0  0.79405  0.30785  0.11477  1.0000
  H   H2308     1.0  0.89015  0.47735  0.21029  1.0000
  C   C2897     1.0  0.79054  0.29499  0.11092  1.0000
  C   C2898     1.0  0.90408  0.46405  0.27585  1.0000
  H   H2309     1.0  0.79761  0.28928  0.11094  1.0000
  H   H2310     1.0  0.70124  0.27916  0.12375  1.0000
  C   C2899     1.0  0.67892  0.40803  0.14414  1.0000
  H   H2311     1.0  0.68382  0.41648  0.15202  1.0000
  H   H2312     1.0  0.96170  0.39973  0.41219  1.0000
  H   H2313     1.0  0.68417  0.24983  0.99529  1.0000
  C   C2900     1.0  0.66949  0.46412  0.18180  1.0000
  C   C2901     1.0  0.68184  0.46176  0.17186  1.0000
  C   C2902     1.0  0.69275  0.46977  0.17804  1.0000
  C   C2903     1.0  0.69120  0.48006  0.19455  1.0000
  C   C2904     1.0  0.67889  0.48254  0.20403  1.0000
  H   H2314     1.0  0.90834  0.43887  0.45694  1.0000
  H   H2315     1.0  0.68293  0.45362  0.16008  1.0000
  H   H2316     1.0  0.67076  0.26842  0.05698  1.0000
  C   C2905     1.0  0.88378  0.37018  0.22344  1.0000
  C   C2906     1.0  0.87059  0.36348  0.22991  1.0000
  C   C2907     1.0  0.86509  0.36031  0.20075  1.0000
  C   C2908     1.0  0.87270  0.36382  0.16443  1.0000
  C   C2909     1.0  0.88596  0.37026  0.15814  1.0000
  C   C2910     1.0  0.89144  0.37345  0.18733  1.0000
  H   H2317     1.0  0.86456  0.36073  0.25773  1.0000
  H   H2318     1.0  0.85495  0.35512  0.20646  1.0000
  H   H2319     1.0  0.89205  0.37281  0.13046  1.0000
  H   H2320     1.0  0.90165  0.37821  0.18221  1.0000
  C   C2911     1.0  0.92081  0.40405  0.41893  1.0000
  C   C2912     1.0  0.91660  0.40915  0.44922  1.0000
  C   C2913     1.0  0.66555  0.30114  0.04458  1.0000
  P   P98       1.0  0.66422  0.46818  0.05541  1.0000
  H   H2321     1.0  0.81971  0.39864  0.04432  1.0000
  C   C2914     1.0  0.92992  0.39669  0.42109  1.0000
  H   H2322     1.0  0.82899  0.34191  0.00450  1.0000
  H   H2323     1.0  0.72073  0.31514  0.03899  1.0000
  C   C2915     1.0  0.92707  0.46785  0.34603  1.0000
  H   H2324     1.0  0.67612  0.45691  0.32984  1.0000
  H   H2325     1.0  0.76987  0.27840  0.21958  1.0000
  C   C2916     1.0  0.90874  0.35839  0.46924  1.0000
  C   C2917     1.0  0.77114  0.41887  0.06789  1.0000
  C   C2918     1.0  0.72812  0.26861  0.31432  1.0000
  C   C2919     1.0  0.70238  0.48033  0.05854  1.0000
  C   C2920     1.0  0.70188  0.48753  0.08529  1.0000
  H   H2326     1.0  0.90164  0.38310  0.01929  1.0000
  C   C2921     1.0  0.98729  0.48113  0.00238  1.0000
  H   H2327     1.0  0.74434  0.29225  0.36707  1.0000
  H   H2328     1.0  0.71573  0.28138  0.26880  1.0000
  H   H2329     1.0  0.88541  0.39621  0.21643  1.0000
  C   C2922     1.0  0.67093  0.26143  0.08124  1.0000
  C   C2923     1.0  0.95059  0.47249  0.21784  1.0000
  C   C2924     1.0  0.93855  0.47383  0.21170  1.0000
  C   C2925     1.0  0.92952  0.46316  0.20756  1.0000
  C   C2926     1.0  0.93231  0.45103  0.21095  1.0000
  C   C2927     1.0  0.94450  0.44978  0.21604  1.0000
  C   C2928     1.0  0.95371  0.46055  0.21899  1.0000
  H   H2330     1.0  0.93615  0.48307  0.21027  1.0000
  H   H2331     1.0  0.92021  0.46418  0.20275  1.0000
  H   H2332     1.0  0.94683  0.44051  0.21786  1.0000
  H   H2333     1.0  0.96308  0.45951  0.22327  1.0000
  C   C2929     1.0  0.78326  0.29712  0.20666  1.0000
  C   C2930     1.0  0.86219  0.32762  0.01738  1.0000
  H   H2334     1.0  0.66346  0.39355  0.04373  1.0000
  C   C2931     1.0  0.88142  0.44864  0.44208  1.0000
  C   C2932     1.0  0.89149  0.37366  0.48428  1.0000
  Fe  Fe212     1.0  0.74114  0.27135  0.09294  1.0000
  H   H2335     1.0  0.95954  0.48476  0.34055  1.0000
  C   C2933     1.0  0.91737  0.45814  0.37295  1.0000
  C   C2934     1.0  0.90070  0.47470  0.38423  1.0000
  C   C2935     1.0  0.90406  0.48773  0.38623  1.0000
  S   S418      1.0  0.69758  0.26974  0.05813  1.0000
  C   C2936     1.0  0.67891  0.47620  0.06661  1.0000
  C   C2937     1.0  0.88923  0.48062  0.33692  1.0000
  C   C2938     1.0  0.89330  0.47122  0.35930  1.0000
  C   C2939     1.0  0.91488  0.44528  0.36899  1.0000
  H   H2336     1.0  0.93554  0.47092  0.40639  1.0000
  C   C2940     1.0  0.74369  0.26685  0.23430  1.0000
  H   H2337     1.0  0.85187  0.41889  0.42676  1.0000
  C   C2941     1.0  0.68587  0.40290  0.11828  1.0000
  C   C2942     1.0  0.90219  0.47334  0.24787  1.0000
  H   H2338     1.0  0.70064  0.44458  0.00388  1.0000
  C   C2943     1.0  0.99243  0.46306  0.20884  1.0000
  C   C2944     1.0  0.73902  0.25161  0.19638  1.0000
  C   C2945     1.0  0.98240  0.45677  0.98599  1.0000
  H   H2339     1.0  0.87841  0.45661  0.42735  1.0000
  H   H2340     1.0  0.77479  0.38602  0.11701  1.0000
  H   H2341     1.0  0.94836  0.45164  0.10487  1.0000
  H   H2342     1.0  0.85599  0.30765  0.10327  1.0000
  C   C2946     1.0  0.73822  0.27958  0.29456  1.0000
  H   H2343     1.0  0.92012  0.43234  0.33547  1.0000
  H   H2344     1.0  0.80154  0.43562  0.06533  1.0000
  H   H2345     1.0  0.90723  0.43758  0.38834  1.0000
  C   C2947     1.0  0.93464  0.39435  0.45329  1.0000
  C   C2948     1.0  0.77792  0.28939  0.10737  1.0000
  H   H2346     1.0  0.94172  0.47225  0.29529  1.0000
  H   H2347     1.0  0.93309  0.39257  0.39827  1.0000
  H   H2348     1.0  0.78241  0.30635  0.02828  1.0000
  H   H2349     1.0  0.69976  0.26680  0.18706  1.0000
  H   H2350     1.0  0.73549  0.24919  0.17309  1.0000
  H   H2351     1.0  0.98857  0.47413  0.16082  1.0000
  H   H2352     1.0  0.87097  0.49574  0.16933  1.0000
  S   S419      1.0  0.72035  0.26264  0.12559  1.0000
  H   H2353     1.0  0.90667  0.49042  0.11110  1.0000
  C   C2949     1.0  0.75796  0.33057  0.00594  1.0000
  H   H2354     1.0  0.68486  0.38768  0.08894  1.0000
  C   C2950     1.0  0.67949  0.39174  0.10879  1.0000
  H   H2355     1.0  0.77138  0.25469  0.04215  1.0000
  H   H2356     1.0  0.68365  0.28887  0.11014  1.0000
  H   H2357     1.0  0.80744  0.49661  0.98938  1.0000
  H   H2358     1.0  0.75319  0.31054  0.23284  1.0000
  C   C2951     1.0  0.84934  0.32587  0.01334  1.0000
  H   H2359     1.0  0.69218  0.24963  0.12509  1.0000
  Fe  Fe213     1.0  0.73770  0.25324  0.04056  1.0000
  H   H2360     1.0  0.83332  0.30510  0.09620  1.0000
  C   C2952     1.0  0.81554  0.40667  0.04830  1.0000
  C   C2953     1.0  0.75986  0.29329  0.22863  1.0000
  C   C2954     1.0  0.76152  0.30668  0.22576  1.0000
  C   C2955     1.0  0.76578  0.48152  0.01043  1.0000
  C   C2956     1.0  0.74404  0.28810  0.31389  1.0000
  Fe  Fe214     1.0  0.71496  0.26321  0.07140  1.0000
  C   C2957     1.0  0.73111  0.31962  0.03011  1.0000
  H   H2361     1.0  0.82994  0.42080  0.00367  1.0000
  H   H2362     1.0  0.98731  0.41233  0.30310  1.0000
  C   C2958     1.0  0.91636  0.46975  0.43897  1.0000
  H   H2363     1.0  0.91552  0.35257  0.46337  1.0000
  C   C2959     1.0  0.89254  0.49355  0.33924  1.0000
  C   C2960     1.0  0.93933  0.48248  0.11032  1.0000
  C   C2961     1.0  0.66626  0.41101  0.25793  1.0000
  C   C2962     1.0  0.78470  0.31501  0.11534  1.0000
  C   C2963     1.0  0.80454  0.40457  0.07702  1.0000
  C   C2964     1.0  0.87186  0.43793  0.46532  1.0000
  C   C2965     1.0  0.68296  0.28398  0.13831  1.0000
  H   H2364     1.0  0.97509  0.46684  0.34005  1.0000
  H   H2365     1.0  0.96376  0.42259  0.31913  1.0000
  H   H2366     1.0  0.67822  0.45854  0.26280  1.0000
  C   C2966     1.0  0.86984  0.38580  0.02467  1.0000
  H   H2367     1.0  0.97609  0.48370  0.28745  1.0000
  C   C2967     1.0  0.68288  0.25994  0.08814  1.0000
  C   C2968     1.0  0.95234  0.43638  0.14204  1.0000
  H   H2368     1.0  0.75143  0.25978  0.28062  1.0000
  P   P99       1.0  0.97709  0.47047  0.46737  1.0000
  C   C2969     1.0  0.97205  0.40949  0.22351  1.0000
  H   H2369     1.0  0.72351  0.26187  0.30005  1.0000
  H   H2370     1.0  0.94605  0.44551  0.40953  1.0000
  H   H2371     1.0  0.78036  0.42384  0.04873  1.0000
  C   C2970     1.0  0.71946  0.28712  0.24075  1.0000
  H   H2372     1.0  0.73750  0.40303  0.13650  1.0000
  H   H2373     1.0  0.66760  0.42865  0.13774  1.0000
  H   H2374     1.0  0.77529  0.36384  0.22281  1.0000
  C   C2971     1.0  0.67050  0.31011  0.18711  1.0000
  C   C2972     1.0  0.89657  0.37457  0.01197  1.0000
  C   C2973     1.0  0.66824  0.47098  0.00563  1.0000
  H   H2375     1.0  0.78988  0.32755  0.04249  1.0000
  H   H2376     1.0  0.88586  0.48424  0.02570  1.0000
  C   C2974     1.0  0.97205  0.41927  0.24259  1.0000
  H   H2377     1.0  0.87057  0.38063  0.05134  1.0000
  C   C2975     1.0  0.98926  0.46994  0.42806  1.0000
  H   H2378     1.0  0.98367  0.43530  0.25704  1.0000
  C   C2976     1.0  0.88254  0.45822  0.24571  1.0000
  C   C2977     1.0  0.88405  0.44902  0.27493  1.0000
  C   C2978     1.0  0.89511  0.45189  0.28927  1.0000
  P   P100      1.0  0.87199  0.43362  0.29231  1.0000
  C   C2979     1.0  0.87150  0.42672  0.33995  1.0000
  C   C2980     1.0  0.85648  0.43664  0.28783  1.0000
  C   C2981     1.0  0.85272  0.44701  0.30025  1.0000
  C   C2982     1.0  0.84110  0.44995  0.29515  1.0000
  C   C2983     1.0  0.83315  0.44257  0.27761  1.0000
  C   C2984     1.0  0.83681  0.43224  0.26526  1.0000
  C   C2985     1.0  0.84846  0.42933  0.27002  1.0000
  C   C2986     1.0  0.86085  0.42597  0.36862  1.0000
  C   C2987     1.0  0.97445  0.43964  0.14920  1.0000
  H   H2379     1.0  0.82904  0.31663  0.03885  1.0000
  C   C2988     1.0  0.77838  0.26411  0.03343  1.0000
  C   C2989     1.0  0.88148  0.42108  0.34827  1.0000
  C   C2990     1.0  0.87592  0.42198  0.26686  1.0000
  C   C2991     1.0  0.88611  0.42574  0.23498  1.0000
  C   C2992     1.0  0.88953  0.41642  0.21698  1.0000
  C   C2993     1.0  0.88267  0.40340  0.23016  1.0000
  C   C2994     1.0  0.87249  0.39958  0.26174  1.0000
  C   C2995     1.0  0.86914  0.40882  0.28020  1.0000
  H   H2380     1.0  0.87444  0.45608  0.23292  1.0000
  H   H2381     1.0  0.89690  0.44484  0.31060  1.0000
  H   H2382     1.0  0.85891  0.45297  0.31326  1.0000
  H   H2383     1.0  0.83835  0.45809  0.30419  1.0000
  H   H2384     1.0  0.82426  0.44495  0.27298  1.0000
  H   H2385     1.0  0.83074  0.42668  0.25106  1.0000
  H   H2386     1.0  0.85124  0.42158  0.25895  1.0000
  H   H2387     1.0  0.85284  0.42990  0.36308  1.0000
  H   H2388     1.0  0.70861  0.30297  0.17116  1.0000
  H   H2389     1.0  0.92883  0.47793  0.34771  1.0000
  H   H2390     1.0  0.75766  0.40231  0.15746  1.0000
  H   H2391     1.0  0.73659  0.27091  0.18459  1.0000
  H   H2392     1.0  0.89170  0.43575  0.22449  1.0000
  H   H2393     1.0  0.86743  0.38938  0.27218  1.0000
  H   H2394     1.0  0.86138  0.40567  0.30508  1.0000
  H   H2395     1.0  0.96311  0.41953  0.26017  1.0000
  H   H2396     1.0  0.88839  0.36394  0.06846  1.0000
  C   C2996     1.0  0.95576  0.44852  0.11716  1.0000
  H   H2397     1.0  0.66826  0.34131  0.18051  1.0000
  C   C2997     1.0  0.93002  0.47279  0.43070  1.0000
  C   C2998     1.0  0.67320  0.40225  0.24743  1.0000
  H   H2398     1.0  0.75957  0.31558  0.04986  1.0000
  H   H2399     1.0  0.96145  0.48341  0.01624  1.0000
  H   H2400     1.0  0.78441  0.38411  0.24025  1.0000
  H   H2401     1.0  0.66990  0.38670  0.98610  1.0000
  C   C2999     1.0  0.78229  0.39725  0.15329  1.0000
  C   C3000     1.0  0.93058  0.39956  0.48336  1.0000
  C   C3001     1.0  0.78212  0.38458  0.21355  1.0000
  C   C3002     1.0  0.88795  0.49228  0.13726  1.0000
  C   C3003     1.0  0.79493  0.44667  0.17597  1.0000
  H   H2402     1.0  0.95856  0.37586  0.33459  1.0000
  C   C3004     1.0  0.72972  0.27476  0.37167  1.0000
  C   C3005     1.0  0.96332  0.38460  0.34161  1.0000
  H   H2403     1.0  0.77524  0.32551  0.21128  1.0000
  H   H2404     1.0  0.67444  0.45185  0.10780  1.0000
  H   H2405     1.0  0.97273  0.49512  0.10598  1.0000
  H   H2406     1.0  0.91262  0.46626  0.28675  1.0000
  H   H2407     1.0  0.80831  0.42409  0.14409  1.0000
  H   H2408     1.0  0.89097  0.46130  0.35653  1.0000
  H   H2409     1.0  0.77568  0.44877  0.17439  1.0000
  C   C3006     1.0  0.96822  0.49268  0.32905  1.0000
  H   H2410     1.0  0.67193  0.38338  0.23587  1.0000
  C   C3007     1.0  0.73262  0.28944  0.22273  1.0000
  H   H2411     1.0  0.79005  0.25911  0.07134  1.0000
  C   C3008     1.0  0.86364  0.37901  0.00242  1.0000
  H   H2412     1.0  0.84722  0.33084  0.98860  1.0000
  H   H2413     1.0  0.74775  0.48247  0.99496  1.0000
  H   H2414     1.0  0.72684  0.37422  0.99083  1.0000
  H   H2415     1.0  0.87968  0.40445  0.03013  1.0000
  C   C3009     1.0  0.75836  0.40685  0.12894  1.0000
  H   H2416     1.0  0.67891  0.32549  0.21073  1.0000
  C   C3010     1.0  0.95853  0.47799  0.07578  1.0000
  H   H2417     1.0  0.95900  0.42247  0.17708  1.0000
  C   C3011     1.0  0.97272  0.45721  0.33533  1.0000
  C   C3012     1.0  0.86023  0.41967  0.40491  1.0000
  C   C3013     1.0  0.77958  0.43278  0.15213  1.0000
  C   C3014     1.0  0.90161  0.44859  0.14235  1.0000
  C   C3015     1.0  0.89295  0.45604  0.15120  1.0000
  C   C3016     1.0  0.87990  0.45181  0.15044  1.0000
  C   C3017     1.0  0.87552  0.44016  0.14058  1.0000
  C   C3018     1.0  0.88415  0.43265  0.13128  1.0000
  C   C3019     1.0  0.89728  0.43699  0.13211  1.0000
  P   P101      1.0  0.87842  0.41793  0.11683  1.0000
  C   C3020     1.0  0.86676  0.40549  0.15385  1.0000
  C   C3021     1.0  0.87058  0.42192  0.07965  1.0000
  C   C3022     1.0  0.85964  0.41311  0.07573  1.0000
  C   C3023     1.0  0.85382  0.41626  0.04659  1.0000
  H   H2418     1.0  0.86166  0.43767  0.46789  1.0000
  C   C3024     1.0  0.86978  0.43700  0.02448  1.0000
  C   C3025     1.0  0.87556  0.43393  0.05378  1.0000
  C   C3026     1.0  0.86323  0.39274  0.14956  1.0000
  C   C3027     1.0  0.85250  0.38365  0.17422  1.0000
  C   C3028     1.0  0.84577  0.38689  0.20472  1.0000
  C   C3029     1.0  0.84963  0.39933  0.21031  1.0000
  C   C3030     1.0  0.85998  0.40866  0.18483  1.0000
  C   C3031     1.0  0.89232  0.41220  0.09915  1.0000
  C   C3032     1.0  0.89917  0.41684  0.06193  1.0000
  C   C3033     1.0  0.91043  0.41307  0.04898  1.0000
  C   C3034     1.0  0.91512  0.40487  0.07320  1.0000
  C   C3035     1.0  0.90851  0.40040  0.11031  1.0000
  C   C3036     1.0  0.89710  0.40395  0.12322  1.0000
  H   H2419     1.0  0.91168  0.45175  0.14368  1.0000
  H   H2420     1.0  0.89635  0.46513  0.15848  1.0000
  H   H2421     1.0  0.87321  0.45767  0.15690  1.0000
  H   H2422     1.0  0.86538  0.43701  0.14003  1.0000
  H   H2423     1.0  0.90422  0.43144  0.12535  1.0000
  H   H2424     1.0  0.85532  0.40385  0.09519  1.0000
  H   H2425     1.0  0.84527  0.40947  0.04425  1.0000
  H   H2426     1.0  0.87351  0.44639  0.00506  1.0000
  H   H2427     1.0  0.98389  0.40171  0.18568  1.0000
  H   H2428     1.0  0.88384  0.44100  0.05643  1.0000
  H   H2429     1.0  0.86824  0.38999  0.12595  1.0000
  H   H2430     1.0  0.84927  0.37410  0.16935  1.0000
  H   H2431     1.0  0.83741  0.37981  0.22358  1.0000
  H   H2432     1.0  0.84426  0.40191  0.23363  1.0000
  H   H2433     1.0  0.86239  0.41831  0.18932  1.0000
  H   H2434     1.0  0.89598  0.42349  0.04285  1.0000
  H   H2435     1.0  0.91567  0.41668  0.02028  1.0000
  H   H2436     1.0  0.91231  0.39423  0.12914  1.0000
  H   H2437     1.0  0.89212  0.40041  0.15207  1.0000
  H   H2438     1.0  0.78910  0.40525  0.19650  1.0000
  C   C3037     1.0  0.90146  0.49381  0.13288  1.0000
  C   C3038     1.0  0.99357  0.48598  0.19795  1.0000
  C   C3039     1.0  0.97352  0.39381  0.31541  1.0000
  H   H2439     1.0  0.99280  0.49456  0.17982  1.0000
  C   C3040     1.0  0.98257  0.49409  0.09963  1.0000
  C   C3041     1.0  0.77398  0.31518  0.21374  1.0000
  C   C3042     1.0  0.77058  0.41266  0.10433  1.0000
  H   H2440     1.0  0.88850  0.41034  0.39051  1.0000
  C   C3043     1.0  0.84140  0.31117  0.07399  1.0000
  H   H2441     1.0  0.96169  0.46215  0.29529  1.0000
  C   C3044     1.0  0.97752  0.44749  0.35361  1.0000
  C   C3045     1.0  0.97597  0.48696  0.46580  1.0000
  C   C3046     1.0  0.78892  0.26658  0.04968  1.0000
  C   C3047     1.0  0.88237  0.35276  0.03063  1.0000
  C   C3048     1.0  0.92151  0.40699  0.48118  1.0000
  C   C3049     1.0  0.96342  0.42196  0.47297  1.0000
  H   H2442     1.0  0.88382  0.47796  0.31702  1.0000
  C   C3050     1.0  0.79637  0.28838  0.01047  1.0000
  C   C3051     1.0  0.93635  0.48762  0.07728  1.0000
  C   C3052     1.0  0.97965  0.47016  0.02993  1.0000
  C   C3053     1.0  0.77686  0.38572  0.14391  1.0000
  H   H2443     1.0  0.80052  0.39493  0.09486  1.0000
  C   C3054     1.0  0.96169  0.43192  0.15795  1.0000
  H   H2444     1.0  0.94141  0.38835  0.45513  1.0000
  H   H2445     1.0  0.67505  0.30329  0.20092  1.0000
  C   C3055     1.0  0.88132  0.49673  0.16563  1.0000
  H   H2446     1.0  0.71161  0.47892  0.04552  1.0000
  H   H2447     1.0  0.86963  0.40891  0.44069  1.0000
  C   C3056     1.0  0.89149  0.47034  0.23260  1.0000
  C   C3057     1.0  0.72839  0.30170  0.16764  1.0000
  C   C3058     1.0  0.92212  0.44222  0.33885  1.0000
  C   C3059     1.0  0.88861  0.42796  0.48209  1.0000
  S   S420      1.0  0.75236  0.29008  0.10456  1.0000
  C   C3060     1.0  0.68139  0.27032  0.21001  1.0000
  C   C3061     1.0  0.79564  0.33823  0.98575  1.0000
  H   H2448     1.0  0.90915  0.48276  0.23745  1.0000
  C   C3062     1.0  0.88085  0.41485  0.38454  1.0000
  C   C3063     1.0  0.96856  0.45643  0.10844  1.0000
  H   H2449     1.0  0.98170  0.43610  0.16138  1.0000
  H   H2450     1.0  0.69159  0.46880  0.02906  1.0000
  C   C3064     1.0  0.79791  0.27872  0.03821  1.0000
  H   H2451     1.0  0.72647  0.27288  0.40145  1.0000
  C   C3065     1.0  0.75658  0.47922  0.98950  1.0000
  C   C3066     1.0  0.66619  0.38581  0.12490  1.0000
  H   H2452     1.0  0.75592  0.47065  0.44471  1.0000
  H   H2453     1.0  0.88965  0.42126  0.32657  1.0000
  C   C3067     1.0  0.89467  0.44899  0.43834  1.0000
  H   H2454     1.0  0.77017  0.43058  0.14554  1.0000
  C   C3068     1.0  0.67103  0.45056  0.28289  1.0000
  C   C3069     1.0  0.99121  0.47435  0.18678  1.0000
  H   H2455     1.0  0.76406  0.48644  0.03245  1.0000
  C   C3070     1.0  0.89818  0.43867  0.45901  1.0000
  H   H2456     1.0  0.90947  0.41473  0.44794  1.0000
  C   C3071     1.0  0.74905  0.47123  0.46875  1.0000
  H   H2457     1.0  0.79171  0.29354  0.19817  1.0000
  C   C3072     1.0  0.93182  0.45190  0.31253  1.0000
  H   H2458     1.0  0.80601  0.28071  0.05108  1.0000
  P   P102      1.0  0.97292  0.47198  0.07537  1.0000
  H   H2459     1.0  0.74095  0.35917  0.99786  1.0000
  C   C3073     1.0  0.97479  0.43504  0.34695  1.0000
  H   H2460     1.0  0.98380  0.48395  0.38904  1.0000
  C   C3074     1.0  0.87545  0.42758  0.48522  1.0000
  C   C3075     1.0  0.93680  0.47840  0.45400  1.0000
  C   C3076     1.0  0.95542  0.48311  0.04270  1.0000
  C   C3077     1.0  0.93806  0.44304  0.46753  1.0000
  C   C3078     1.0  0.69300  0.27843  0.14594  1.0000
  H   H2461     1.0  0.68375  0.40501  0.24055  1.0000
  H   H2462     1.0  0.70678  0.25869  0.99665  1.0000
  H   H2463     1.0  0.94239  0.43044  0.14935  1.0000
  C   C3079     1.0  0.89783  0.37462  0.44783  1.0000
  C   C3080     1.0  0.86454  0.32076  0.04969  1.0000
  C   C3081     1.0  0.78484  0.31039  0.20438  1.0000
  C   C3082     1.0  0.98373  0.42829  0.24046  1.0000
  C   C3083     1.0  0.93436  0.46470  0.31619  1.0000
  C   C3084     1.0  0.90649  0.36704  0.44031  1.0000
  C   C3085     1.0  0.96648  0.43223  0.32368  1.0000
  C   C3086     1.0  0.77205  0.30937  0.11229  1.0000
  C   C3087     1.0  0.66656  0.39003  0.24498  1.0000
  C   C3088     1.0  0.78878  0.42579  0.14316  1.0000
  P   P103      1.0  0.74373  0.28239  0.24500  1.0000
  C   C3089     1.0  0.77692  0.37315  0.20378  1.0000
  C   C3090     1.0  0.71532  0.29934  0.18568  1.0000
  H   H2464     1.0  0.70071  0.29022  0.23618  1.0000
  C   C3091     1.0  0.83899  0.31768  0.04157  1.0000
  H   H2465     1.0  0.69960  0.48615  0.19984  1.0000
  C   C3092     1.0  0.90961  0.47228  0.47108  1.0000
  C   C3093     1.0  0.97868  0.42212  0.41690  1.0000
  C   C3094     1.0  0.98481  0.41906  0.47574  1.0000
  C   C3095     1.0  0.79055  0.32697  0.01410  1.0000
  H   H2466     1.0  0.97132  0.44935  0.04205  1.0000
  H   H2467     1.0  0.73188  0.30711  0.13908  1.0000
  H   H2468     1.0  0.91154  0.36800  0.41202  1.0000
  H   H2469     1.0  0.95131  0.37955  0.39692  1.0000
  C   C3096     1.0  0.81618  0.42949  0.03168  1.0000
  C   C3097     1.0  0.71087  0.29212  0.22229  1.0000
  C   C3098     1.0  0.96507  0.45454  0.31051  1.0000
  C   C3099     1.0  0.77428  0.37372  0.16898  1.0000
  C   C3100     1.0  0.82133  0.41911  0.02560  1.0000
  C   C3101     1.0  0.73578  0.46881  0.46949  1.0000
  C   C3102     1.0  0.73960  0.31436  0.04823  1.0000
  C   C3103     1.0  0.87020  0.41406  0.41281  1.0000
  H   H2470     1.0  0.89909  0.47016  0.47773  1.0000
  C   C3104     1.0  0.75964  0.41923  0.05635  1.0000
  C   C3105     1.0  0.98379  0.40926  0.20058  1.0000
  H   H2471     1.0  0.78714  0.32482  0.11888  1.0000
  C   C3106     1.0  0.94436  0.48791  0.04352  1.0000
  C   C3107     1.0  0.85883  0.42822  0.02113  1.0000
  S   S421      1.0  0.74493  0.25166  0.09292  1.0000
  C   C3108     1.0  0.80521  0.42743  0.06038  1.0000
  C   C3109     1.0  0.74789  0.25758  0.25708  1.0000
  C   C3110     1.0  0.79925  0.41495  0.08322  1.0000
  H   H2472     1.0  0.89622  0.38142  0.42530  1.0000
  C   C3111     1.0  0.97523  0.40758  0.35877  1.0000
  C   C3112     1.0  0.88907  0.36377  0.03971  1.0000
  H   H2473     1.0  0.67170  0.42038  0.25950  1.0000
  C   C3113     1.0  0.69097  0.47463  0.04928  1.0000
  H   H2474     1.0  0.79449  0.31698  0.19436  1.0000
  H   H2475     1.0  0.95593  0.43989  0.28580  1.0000
  C   C3114     1.0  0.73701  0.29683  0.18612  1.0000
  H   H2476     1.0  0.74705  0.29855  0.17148  1.0000
  C   C3115     1.0  0.96184  0.44201  0.30504  1.0000
  C   C3116     1.0  0.97716  0.45796  0.02142  1.0000
  C   C3117     1.0  0.97765  0.49208  0.29909  1.0000
  C   C3118     1.0  0.96642  0.42303  0.43491  1.0000
  H   H2477     1.0  0.98786  0.45754  0.11827  1.0000
  C   C3119     1.0  0.73954  0.26388  0.20333  1.0000
  H   H2478     1.0  0.76489  0.31499  0.11333  1.0000
  C   C3120     1.0  0.74754  0.41345  0.08099  1.0000
  C   C3121     1.0  0.87493  0.39924  0.01273  1.0000
  P   P104      1.0  0.90728  0.46275  0.40910  1.0000
  C   C3122     1.0  0.67208  0.28283  0.16663  1.0000
  C   C3123     1.0  0.88172  0.48989  0.00651  1.0000
  C   C3124     1.0  0.96157  0.46022  0.46693  1.0000
  H   H2479     1.0  0.77047  0.36483  0.16123  1.0000
  C   C3125     1.0  0.80407  0.43966  0.16752  1.0000
  H   H2480     1.0  0.67357  0.30816  0.08676  1.0000
  C   C3126     1.0  0.75300  0.31990  0.03632  1.0000
  C   C3127     1.0  0.76856  0.29655  0.10816  1.0000
  C   C3128     1.0  0.99026  0.47766  0.39288  1.0000
  H   H2481     1.0  0.87439  0.32174  0.05315  1.0000
  H   H2482     1.0  0.82086  0.43922  0.01470  1.0000
  H   H2483     1.0  0.93309  0.48224  0.13650  1.0000
  H   H2484     1.0  0.98360  0.44970  0.37237  1.0000
  H   H2485     1.0  0.83250  0.47150  0.98973  1.0000
  H   H2486     1.0  0.72935  0.33401  0.98536  1.0000
  H   H2487     1.0  0.92917  0.43611  0.46808  1.0000
  C   C3129     1.0  0.77675  0.27378  0.00594  1.0000
  H   H2488     1.0  0.95257  0.47374  0.13552  1.0000
  C   C3130     1.0  0.77083  0.28859  0.21864  1.0000
  H   H2489     1.0  0.96654  0.46073  0.40865  1.0000
  H   H2490     1.0  0.85950  0.36861  0.01201  1.0000
  H   H2491     1.0  0.81363  0.44243  0.17295  1.0000
  H   H2492     1.0  0.97661  0.39224  0.28810  1.0000
  H   H2493     1.0  0.93719  0.44946  0.28902  1.0000
  H   H2494     1.0  0.73585  0.30579  0.07096  1.0000
  P   P105      1.0  0.98215  0.42297  0.36794  1.0000
  C   C3131     1.0  0.95036  0.47767  0.10963  1.0000
  P   P106      1.0  0.78524  0.41265  0.12070  1.0000
  S   S422      1.0  0.85260  0.45729  0.98876  1.0000
  H   H2495     1.0  0.91027  0.49088  0.40382  1.0000
  C   C3132     1.0  0.97952  0.40522  0.32399  1.0000
  C   C3133     1.0  0.74690  0.40723  0.11724  1.0000
  C   C3134     1.0  0.73604  0.33036  0.99985  1.0000
  H   H2496     1.0  0.77538  0.27951  0.10446  1.0000
  C   C3135     1.0  0.78652  0.31495  0.00582  1.0000
  C   C3136     1.0  0.97790  0.45185  0.12461  1.0000
  H   H2497     1.0  0.73865  0.41417  0.07239  1.0000
  H   H2498     1.0  0.87649  0.34469  0.05288  1.0000
  C   C3137     1.0  0.80103  0.42929  0.15104  1.0000
  S   S423      1.0  0.95765  0.39717  0.22934  1.0000
  C   C3138     1.0  0.66800  0.47458  0.19765  1.0000
  H   H2499     1.0  0.80342  0.29775  0.00204  1.0000
  C   C3139     1.0  0.96512  0.39819  0.38517  1.0000
  C   C3140     1.0  0.94762  0.44829  0.43463  1.0000
  C   C3141     1.0  0.95921  0.38672  0.37660  1.0000
  H   H2500     1.0  0.98924  0.49064  0.00824  1.0000
  H   H2501     1.0  0.76879  0.35751  0.00030  1.0000
  H   H2502     1.0  0.95902  0.42419  0.41979  1.0000
  C   C3142     1.0  0.66673  0.33162  0.17576  1.0000
  H   H2503     1.0  0.66407  0.44202  0.24152  1.0000
  C   C3143     1.0  0.95928  0.45691  0.43427  1.0000
  C   C3144     1.0  0.74953  0.33594  0.98760  1.0000
  H   H2504     1.0  0.82266  0.49549  0.03047  1.0000
  C   C3145     1.0  0.66987  0.44961  0.32063  1.0000
  H   H2505     1.0  0.71612  0.25773  0.36777  1.0000
  C   C3146     1.0  0.66629  0.44577  0.10139  1.0000
  H   H2506     1.0  0.92782  0.49139  0.07782  1.0000
  C   C3147     1.0  0.67146  0.27611  0.20269  1.0000
  H   H2507     1.0  0.67775  0.49046  0.21679  1.0000
  S   S424      1.0  0.74868  0.25015  0.98753  1.0000
  H   H2508     1.0  0.67042  0.49376  0.39430  1.0000
  H   H2509     1.0  0.85402  0.43084  0.99937  1.0000
  C   C3148     1.0  0.67857  0.48382  0.09263  1.0000
  S   S425      1.0  0.72108  0.46859  0.98546  1.0000
  H   H2510     1.0  0.79909  0.34748  0.99216  1.0000
  H   H2511     1.0  0.99536  0.49613  0.43093  1.0000
  H   H2512     1.0  0.66954  0.48524  0.10656  1.0000
  H   H2513     1.0  0.68968  0.49494  0.12280  1.0000
  C   C3149     1.0  0.77711  0.47725  0.00337  1.0000
  H   H2514     1.0  0.78419  0.47897  0.01979  1.0000
  H   H2515     1.0  0.76838  0.33422  0.99589  1.0000
  C   C3150     1.0  0.88338  0.35235  0.99346  1.0000
  S   S426      1.0  0.83039  0.36933  0.99727  1.0000
  H   H2516     1.0  0.79084  0.37089  0.99562  1.0000
  C   C3151     1.0  0.78574  0.28601  0.99412  1.0000
  H   H2517     1.0  0.76839  0.27160  0.99441  1.0000
  H   H2518     1.0  0.71067  0.49143  0.09360  1.0000
  C   C3152     1.0  0.66569  0.40204  0.16044  1.0000
  H   H2519     1.0  0.66797  0.45095  0.00441  1.0000
  C   C3153     1.0  0.99547  0.41862  0.19742  1.0000
  C   C3154     1.0  0.99551  0.42807  0.21792  1.0000
  H   H2520     1.0  0.67125  0.49180  0.99662  1.0000
  C   C3155     1.0  0.99578  0.46334  0.24247  1.0000
  C   C3156     1.0  0.66965  0.46078  0.98845  1.0000
  C   C3157     1.0  0.90175  0.35774  0.65051  1.0000
  H   H2521     1.0  0.83550  0.38936  0.69127  1.0000
  H   H2522     1.0  0.82571  0.29680  0.88057  1.0000
  S   S427      1.0  0.96535  0.48982  0.58505  1.0000
  H   H2523     1.0  0.73560  0.33684  0.91068  1.0000
  H   H2524     1.0  0.78772  0.45527  0.85279  1.0000
  H   H2525     1.0  0.77651  0.35544  0.82483  1.0000
  H   H2526     1.0  0.75523  0.31595  0.84323  1.0000
  C   C3158     1.0  0.78074  0.36388  0.90719  1.0000
  Fe  Fe215     1.0  0.92559  0.42476  0.60962  1.0000
  S   S428      1.0  0.92884  0.41689  0.66510  1.0000
  S   S429      1.0  0.91818  0.44245  0.59723  1.0000
  H   H2527     1.0  0.85594  0.48803  0.83478  1.0000
  Fe  Fe216     1.0  0.91902  0.39758  0.65628  1.0000
  S   S430      1.0  0.90390  0.38299  0.70426  1.0000
  H   H2528     1.0  0.87217  0.40590  0.76757  1.0000
  S   S431      1.0  0.91432  0.40589  0.60319  1.0000
  H   H2529     1.0  0.82891  0.37485  0.92159  1.0000
  C   C3159     1.0  0.75945  0.37526  0.78632  1.0000
  C   C3160     1.0  0.83592  0.43811  0.65519  1.0000
  H   H2530     1.0  0.84303  0.46125  0.86738  1.0000
  Fe  Fe217     1.0  0.82937  0.35203  0.74775  1.0000
  S   S432      1.0  0.80937  0.35443  0.74444  1.0000
  S   S433      1.0  0.84570  0.35937  0.69554  1.0000
  Fe  Fe218     1.0  0.82116  0.34178  0.83054  1.0000
  S   S434      1.0  0.80081  0.34365  0.83369  1.0000
  S   S435      1.0  0.82679  0.33383  0.88288  1.0000
  Fe  Fe219     1.0  0.80143  0.33482  0.78440  1.0000
  S   S436      1.0  0.78162  0.32138  0.78651  1.0000
  Fe  Fe220     1.0  0.81017  0.36286  0.79366  1.0000
  S   S437      1.0  0.80212  0.38028  0.79782  1.0000
  S   S438      1.0  0.82145  0.33164  0.78384  1.0000
  S   S439      1.0  0.83061  0.36175  0.79443  1.0000
  Fe  Fe221     1.0  0.70922  0.45926  0.74778  1.0000
  S   S440      1.0  0.71613  0.44321  0.72676  1.0000
  S   S441      1.0  0.71061  0.47819  0.70711  1.0000
  Fe  Fe222     1.0  0.69996  0.44291  0.82727  1.0000
  S   S442      1.0  0.70547  0.42559  0.81147  1.0000
  S   S443      1.0  0.68954  0.43989  0.88686  1.0000
  Fe  Fe223     1.0  0.72412  0.44000  0.77763  1.0000
  S   S444      1.0  0.74213  0.43342  0.78787  1.0000
  Fe  Fe224     1.0  0.69703  0.43037  0.76275  1.0000
  S   S445      1.0  0.68198  0.41837  0.74033  1.0000
  S   S446      1.0  0.71887  0.45718  0.79586  1.0000
  S   S447      1.0  0.68993  0.44654  0.78134  1.0000
  Fe  Fe225     1.0  0.83695  0.44967  0.78325  1.0000
  S   S448      1.0  0.85000  0.46774  0.78922  1.0000
  S   S449      1.0  0.84288  0.43126  0.79970  1.0000
  Fe  Fe226     1.0  0.81857  0.46388  0.75125  1.0000
  S   S450      1.0  0.83033  0.48319  0.75480  1.0000
  S   S451      1.0  0.80177  0.46356  0.72276  1.0000
  Fe  Fe227     1.0  0.84828  0.47685  0.73282  1.0000
  S   S452      1.0  0.86479  0.48713  0.68167  1.0000
  Fe  Fe228     1.0  0.83105  0.47224  0.81086  1.0000
  S   S453      1.0  0.82608  0.47863  0.86384  1.0000
  S   S454      1.0  0.83638  0.45825  0.72561  1.0000
  S   S455      1.0  0.81811  0.45342  0.80872  1.0000
  C   C3161     1.0  0.83202  0.47118  0.90016  1.0000
  C   C3162     1.0  0.86617  0.33992  0.88041  1.0000
  C   C3163     1.0  0.75835  0.44329  0.77240  1.0000
  C   C3164     1.0  0.76774  0.44039  0.79147  1.0000
  C   C3165     1.0  0.78103  0.44685  0.77742  1.0000
  C   C3166     1.0  0.78507  0.45625  0.74395  1.0000
  C   C3167     1.0  0.77564  0.45938  0.72538  1.0000
  C   C3168     1.0  0.76234  0.45300  0.73962  1.0000
  H   H2531     1.0  0.76476  0.43288  0.81674  1.0000
  H   H2532     1.0  0.78818  0.44426  0.79186  1.0000
  H   H2533     1.0  0.77868  0.46662  0.69945  1.0000
  H   H2534     1.0  0.75524  0.45527  0.72453  1.0000
  H   H2535     1.0  0.81064  0.29513  0.93940  1.0000
  C   C3169     1.0  0.71547  0.46527  0.92016  1.0000
  C   C3170     1.0  0.70867  0.45890  0.89794  1.0000
  C   C3171     1.0  0.69881  0.44749  0.91393  1.0000
  C   C3172     1.0  0.69591  0.44235  0.95222  1.0000
  C   C3173     1.0  0.82140  0.40955  0.92859  1.0000
  H   H2536     1.0  0.72298  0.47419  0.90767  1.0000
  H   H2537     1.0  0.71086  0.46303  0.86857  1.0000
  C   C3174     1.0  0.74235  0.29037  0.93916  1.0000
  C   C3175     1.0  0.71454  0.25927  0.93973  1.0000
  C   C3176     1.0  0.81352  0.39444  0.79826  1.0000
  C   C3177     1.0  0.82543  0.39382  0.80678  1.0000
  C   C3178     1.0  0.83440  0.40521  0.80686  1.0000
  C   C3179     1.0  0.83151  0.41725  0.79870  1.0000
  C   C3180     1.0  0.81959  0.41791  0.79036  1.0000
  C   C3181     1.0  0.81060  0.40650  0.79031  1.0000
  H   H2538     1.0  0.82768  0.38460  0.81378  1.0000
  H   H2539     1.0  0.84366  0.40474  0.81289  1.0000
  H   H2540     1.0  0.81733  0.42720  0.78376  1.0000
  H   H2541     1.0  0.80149  0.40710  0.78346  1.0000
  H   H2542     1.0  0.89826  0.38966  0.56837  1.0000
  H   H2543     1.0  0.85091  0.42238  0.86825  1.0000
  H   H2544     1.0  0.69456  0.44300  0.68759  1.0000
  H   H2545     1.0  0.97860  0.49649  0.85064  1.0000
  H   H2546     1.0  0.76394  0.41941  0.76097  1.0000
  C   C3182     1.0  0.82860  0.36466  0.92987  1.0000
  C   C3183     1.0  0.87098  0.40042  0.56787  1.0000
  H   H2547     1.0  0.75573  0.30689  0.79021  1.0000
  H   H2548     1.0  0.86657  0.33456  0.85906  1.0000
  C   C3184     1.0  0.82774  0.35691  0.90422  1.0000
  C   C3185     1.0  0.82760  0.34377  0.91454  1.0000
  C   C3186     1.0  0.82812  0.33842  0.95073  1.0000
  H   H2549     1.0  0.82730  0.36111  0.87645  1.0000
  H   H2550     1.0  0.86862  0.48783  0.93275  1.0000
  H   H2551     1.0  0.68335  0.26682  0.88285  1.0000
  H   H2552     1.0  0.66383  0.42018  0.62443  1.0000
  C   C3187     1.0  0.67892  0.39439  0.78662  1.0000
  C   C3188     1.0  0.67396  0.40199  0.76159  1.0000
  H   H2553     1.0  0.89190  0.36324  0.93682  1.0000
  H   H2554     1.0  0.72335  0.38289  0.92919  1.0000
  P   P107      1.0  0.84689  0.41697  0.65121  1.0000
  H   H2555     1.0  0.68754  0.39874  0.79481  1.0000
  Fe  Fe229     1.0  0.73922  0.25428  0.75886  1.0000
  H   H2556     1.0  0.78216  0.30442  0.88008  1.0000
  C   C3189     1.0  0.89372  0.36502  0.51356  1.0000
  C   C3190     1.0  0.84069  0.46350  0.89390  1.0000
  H   H2557     1.0  0.83937  0.41321  0.58281  1.0000
  C   C3191     1.0  0.76723  0.37068  0.80891  1.0000
  C   C3192     1.0  0.73394  0.47741  0.62393  1.0000
  C   C3193     1.0  0.90235  0.35733  0.50573  1.0000
  H   H2558     1.0  0.74726  0.27476  0.91650  1.0000
  H   H2559     1.0  0.71393  0.40060  0.87116  1.0000
  C   C3194     1.0  0.68455  0.47263  0.70589  1.0000
  C   C3195     1.0  0.69694  0.48095  0.69031  1.0000
  C   C3196     1.0  0.73572  0.37278  0.90120  1.0000
  H   H2560     1.0  0.68316  0.46437  0.72843  1.0000
  C   C3197     1.0  0.88769  0.37677  0.70150  1.0000
  C   C3198     1.0  0.88357  0.38009  0.66901  1.0000
  C   C3199     1.0  0.87066  0.37477  0.66763  1.0000
  C   C3200     1.0  0.86169  0.36626  0.69884  1.0000
  C   C3201     1.0  0.86572  0.36313  0.73159  1.0000
  C   C3202     1.0  0.87870  0.36827  0.73277  1.0000
  H   H2561     1.0  0.89037  0.38657  0.64480  1.0000
  H   H2562     1.0  0.86760  0.37735  0.64234  1.0000
  H   H2563     1.0  0.85892  0.35652  0.75574  1.0000
  H   H2564     1.0  0.88182  0.36559  0.75795  1.0000
  C   C3203     1.0  0.89081  0.44944  0.88283  1.0000
  H   H2565     1.0  0.71666  0.46765  0.50066  1.0000
  C   C3204     1.0  0.69884  0.25148  0.90600  1.0000
  H   H2566     1.0  0.72073  0.49365  0.50489  1.0000
  H   H2567     1.0  0.85198  0.49170  0.89750  1.0000
  C   C3205     1.0  0.69165  0.25162  0.97031  1.0000
  H   H2568     1.0  0.97889  0.43507  0.56800  1.0000
  H   H2569     1.0  0.99333  0.43214  0.65300  1.0000
  C   C3206     1.0  0.86738  0.39834  0.88048  1.0000
  C   C3207     1.0  0.75922  0.30281  0.96170  1.0000
  C   C3208     1.0  0.95212  0.47674  0.58849  1.0000
  C   C3209     1.0  0.95288  0.46406  0.60167  1.0000
  C   C3210     1.0  0.94232  0.45354  0.60522  1.0000
  C   C3211     1.0  0.93105  0.45565  0.59490  1.0000
  C   C3212     1.0  0.93028  0.46830  0.58155  1.0000
  C   C3213     1.0  0.94081  0.47882  0.57838  1.0000
  C   C3214     1.0  0.77007  0.35869  0.80858  1.0000
  H   H2570     1.0  0.87436  0.37810  0.80795  1.0000
  H   H2571     1.0  0.92160  0.46997  0.57352  1.0000
  H   H2572     1.0  0.94021  0.48847  0.56756  1.0000
  H   H2573     1.0  0.87844  0.33950  0.53712  1.0000
  C   C3215     1.0  0.69625  0.38575  0.87849  1.0000
  H   H2574     1.0  0.66992  0.40914  0.85892  1.0000
  C   C3216     1.0  0.80009  0.30330  0.84755  1.0000
  P   P108      1.0  0.86425  0.40770  0.91442  1.0000
  C   C3217     1.0  0.81605  0.29811  0.88074  1.0000
  C   C3218     1.0  0.73151  0.37139  0.96688  1.0000
  C   C3219     1.0  0.67621  0.39039  0.90697  1.0000
  H   H2575     1.0  0.85916  0.39588  0.67455  1.0000
  C   C3220     1.0  0.72237  0.39954  0.76520  1.0000
  C   C3221     1.0  0.71316  0.38763  0.78023  1.0000
  C   C3222     1.0  0.71690  0.37689  0.79723  1.0000
  C   C3223     1.0  0.72989  0.37800  0.79882  1.0000
  C   C3224     1.0  0.73937  0.38979  0.78224  1.0000
  C   C3225     1.0  0.73542  0.40064  0.76611  1.0000
  P   P109      1.0  0.75622  0.39114  0.78399  1.0000
  C   C3226     1.0  0.75963  0.39825  0.82169  1.0000
  C   C3227     1.0  0.77234  0.40092  0.82687  1.0000
  C   C3228     1.0  0.77540  0.40725  0.85413  1.0000
  C   C3229     1.0  0.76581  0.41120  0.87607  1.0000
  C   C3230     1.0  0.75318  0.40888  0.87056  1.0000
  C   C3231     1.0  0.75012  0.40254  0.84330  1.0000
  C   C3232     1.0  0.76675  0.40235  0.74236  1.0000
  C   C3233     1.0  0.77323  0.39794  0.71345  1.0000
  C   C3234     1.0  0.78126  0.40683  0.68154  1.0000
  H   H2576     1.0  0.71941  0.40797  0.75275  1.0000
  H   H2577     1.0  0.70312  0.38671  0.77870  1.0000
  H   H2578     1.0  0.70969  0.36768  0.80904  1.0000
  H   H2579     1.0  0.73252  0.36959  0.81259  1.0000
  H   H2580     1.0  0.74231  0.41000  0.75443  1.0000
  H   H2581     1.0  0.77138  0.37631  0.82632  1.0000
  H   H2582     1.0  0.77997  0.39833  0.80926  1.0000
  H   H2583     1.0  0.78529  0.40933  0.85760  1.0000
  H   H2584     1.0  0.76824  0.41637  0.89661  1.0000
  H   H2585     1.0  0.74588  0.41242  0.88651  1.0000
  H   H2586     1.0  0.74043  0.40138  0.83858  1.0000
  H   H2587     1.0  0.77223  0.38771  0.71530  1.0000
  H   H2588     1.0  0.78625  0.40337  0.65942  1.0000
  C   C3235     1.0  0.77196  0.35834  0.94173  1.0000
  H   H2589     1.0  0.96995  0.41841  0.52324  1.0000
  C   C3236     1.0  0.83432  0.39059  0.66322  1.0000
  H   H2590     1.0  0.86981  0.39115  0.72557  1.0000
  C   C3237     1.0  0.78450  0.25745  0.85357  1.0000
  S   S456      1.0  0.69144  0.25445  0.76734  1.0000
  C   C3238     1.0  0.82873  0.47363  0.93524  1.0000
  H   H2591     1.0  0.95440  0.41839  0.72096  1.0000
  C   C3239     1.0  0.79445  0.48712  0.80909  1.0000
  H   H2592     1.0  0.78918  0.42707  0.65364  1.0000
  C   C3240     1.0  0.77909  0.28851  0.74653  1.0000
  C   C3241     1.0  0.86707  0.39922  0.95681  1.0000
  H   H2593     1.0  0.76743  0.34186  0.78578  1.0000
  H   H2594     1.0  0.98663  0.44970  0.60627  1.0000
  C   C3242     1.0  0.83816  0.40171  0.95321  1.0000
  C   C3243     1.0  0.68268  0.38213  0.89103  1.0000
  H   H2595     1.0  0.79953  0.47052  0.79327  1.0000
  H   H2596     1.0  0.86437  0.44973  0.53159  1.0000
  C   C3244     1.0  0.72957  0.37630  0.93214  1.0000
  C   C3245     1.0  0.85675  0.43543  0.58343  1.0000
  C   C3246     1.0  0.75642  0.45007  0.91632  1.0000
  C   C3247     1.0  0.77397  0.27512  0.84964  1.0000
  P   P110      1.0  0.71978  0.47387  0.57073  1.0000
  C   C3248     1.0  0.87240  0.38366  0.82831  1.0000
  H   H2597     1.0  0.67703  0.37500  0.81820  1.0000
  S   S457      1.0  0.94480  0.42364  0.57764  1.0000
  C   C3249     1.0  0.67493  0.26168  0.87524  1.0000
  H   H2598     1.0  0.89107  0.38525  0.84152  1.0000
  C   C3250     1.0  0.98088  0.44550  0.55769  1.0000
  C   C3251     1.0  0.79304  0.32546  0.94058  1.0000
  C   C3252     1.0  0.79150  0.30246  0.88088  1.0000
  C   C3253     1.0  0.77555  0.36125  0.97350  1.0000
  H   H2599     1.0  0.76141  0.45415  0.85637  1.0000
  H   H2600     1.0  0.74796  0.44452  0.97527  1.0000
  H   H2601     1.0  0.99069  0.47360  0.58364  1.0000
  H   H2602     1.0  0.98966  0.46028  0.74651  1.0000
  H   H2603     1.0  0.67167  0.43461  0.68910  1.0000
  H   H2604     1.0  0.87514  0.32791  0.91343  1.0000
  C   C3254     1.0  0.66779  0.24917  0.89577  1.0000
  H   H2605     1.0  0.85202  0.42984  0.71003  1.0000
  C   C3255     1.0  0.71169  0.25675  0.90704  1.0000
  C   C3256     1.0  0.78097  0.48309  0.87082  1.0000
  H   H2606     1.0  0.74451  0.48002  0.66587  1.0000
  C   C3257     1.0  0.74543  0.35903  0.93993  1.0000
  C   C3258     1.0  0.76312  0.28502  0.93501  1.0000
  H   H2607     1.0  0.73314  0.46707  0.62933  1.0000
  C   C3259     1.0  0.91501  0.36332  0.63520  1.0000
  C   C3260     1.0  0.67381  0.47513  0.69285  1.0000
  C   C3261     1.0  0.84665  0.45900  0.92173  1.0000
  H   H2608     1.0  0.85352  0.45328  0.91635  1.0000
  H   H2609     1.0  0.95670  0.48994  0.73249  1.0000
  C   C3262     1.0  0.87095  0.33614  0.91144  1.0000
  C   C3263     1.0  0.79683  0.37398  0.93661  1.0000
  C   C3264     1.0  0.75720  0.29017  0.76843  1.0000
  H   H2610     1.0  0.87947  0.49478  0.73492  1.0000
  P   P111      1.0  0.78401  0.29849  0.95761  1.0000
  H   H2611     1.0  0.79104  0.27498  0.87100  1.0000
  C   C3265     1.0  0.87928  0.39492  0.87346  1.0000
  C   C3266     1.0  0.78391  0.26973  0.85901  1.0000
  C   C3267     1.0  0.79316  0.37155  0.90472  1.0000
  C   C3268     1.0  0.97670  0.48453  0.68358  1.0000
  C   C3269     1.0  0.78294  0.42017  0.67827  1.0000
  C   C3270     1.0  0.86721  0.40784  0.74571  1.0000
  C   C3271     1.0  0.96467  0.42260  0.71758  1.0000
  P   P112      1.0  0.87567  0.33789  0.98065  1.0000
  H   H2612     1.0  0.97491  0.44407  0.50762  1.0000
  C   C3272     1.0  0.76871  0.41577  0.73899  1.0000
  H   H2613     1.0  0.90126  0.40140  0.75113  1.0000
  C   C3273     1.0  0.76504  0.35106  0.78631  1.0000
  C   C3274     1.0  0.87114  0.33924  0.56117  1.0000
  C   C3275     1.0  0.98228  0.48844  0.71155  1.0000
  C   C3276     1.0  0.85095  0.32766  0.60605  1.0000
  C   C3277     1.0  0.82548  0.38102  0.61769  1.0000
  C   C3278     1.0  0.74054  0.48474  0.64445  1.0000
  C   C3279     1.0  0.77536  0.43449  0.95285  1.0000
  C   C3280     1.0  0.97867  0.45062  0.52350  1.0000
  H   H2614     1.0  0.89466  0.46368  0.59004  1.0000
  H   H2615     1.0  0.66930  0.44631  0.62890  1.0000
  C   C3281     1.0  0.70559  0.45631  0.63653  1.0000
  H   H2616     1.0  0.86368  0.42536  0.75856  1.0000
  H   H2617     1.0  0.70409  0.42591  0.59624  1.0000
  P   P113      1.0  0.75596  0.34828  0.94494  1.0000
  C   C3282     1.0  0.93002  0.48082  0.48601  1.0000
  H   H2618     1.0  0.84276  0.31916  0.61680  1.0000
  C   C3283     1.0  0.77672  0.42463  0.70711  1.0000
  H   H2619     1.0  0.81908  0.30197  0.82155  1.0000
  H   H2620     1.0  0.77808  0.36224  0.88208  1.0000
  H   H2621     1.0  0.67708  0.27715  0.82773  1.0000
  H   H2622     1.0  0.78781  0.46693  0.97182  1.0000
  C   C3284     1.0  0.70346  0.39762  0.88176  1.0000
  H   H2623     1.0  0.82087  0.40657  0.70004  1.0000
  H   H2624     1.0  0.89829  0.35384  0.68009  1.0000
  C   C3285     1.0  0.73129  0.47283  0.53090  1.0000
  C   C3286     1.0  0.75390  0.44973  0.88149  1.0000
  H   H2625     1.0  0.78564  0.28339  0.73424  1.0000
  C   C3287     1.0  0.86242  0.41883  0.74065  1.0000
  C   C3288     1.0  0.96947  0.42542  0.74811  1.0000
  H   H2626     1.0  0.90377  0.44271  0.84514  1.0000
  C   C3289     1.0  0.87678  0.46523  0.82146  1.0000
  C   C3290     1.0  0.87307  0.45261  0.81685  1.0000
  C   C3291     1.0  0.88144  0.49468  0.67773  1.0000
  H   H2627     1.0  0.79998  0.37558  0.87802  1.0000
  C   C3292     1.0  0.75442  0.36746  0.76398  1.0000
  C   C3293     1.0  0.82232  0.41692  0.68978  1.0000
  C   C3294     1.0  0.98282  0.43085  0.74455  1.0000
  C   C3295     1.0  0.88931  0.45666  0.68381  1.0000
  C   C3296     1.0  0.75596  0.33879  0.91075  1.0000
  C   C3297     1.0  0.74444  0.33426  0.89989  1.0000
  C   C3298     1.0  0.74630  0.44426  0.94812  1.0000
  C   C3299     1.0  0.85580  0.42132  0.71296  1.0000
  H   H2628     1.0  0.74856  0.37081  0.74585  1.0000
  C   C3300     1.0  0.71262  0.46014  0.95837  1.0000
  C   C3301     1.0  0.83419  0.42462  0.66630  1.0000
  H   H2629     1.0  0.72453  0.26288  0.94094  1.0000
  H   H2630     1.0  0.85288  0.38306  0.82234  1.0000
  C   C3302     1.0  0.86587  0.39954  0.72203  1.0000
  H   H2631     1.0  0.77810  0.43497  0.70489  1.0000
  S   S458      1.0  0.75958  0.26856  0.74031  1.0000
  C   C3303     1.0  0.79654  0.33751  0.94908  1.0000
  H   H2632     1.0  0.75343  0.25330  0.90939  1.0000
  C   C3304     1.0  0.67522  0.48574  0.66350  1.0000
  C   C3305     1.0  0.98095  0.46409  0.51039  1.0000
  C   C3306     1.0  0.83476  0.46920  0.96313  1.0000
  C   C3307     1.0  0.85424  0.41292  0.68931  1.0000
  C   C3308     1.0  0.70290  0.44859  0.97438  1.0000
  C   C3309     1.0  0.72692  0.46958  0.50046  1.0000
  C   C3310     1.0  0.98658  0.43036  0.67943  1.0000
  H   H2633     1.0  0.75659  0.27206  0.82919  1.0000
  C   C3311     1.0  0.85963  0.40217  0.69346  1.0000
  C   C3312     1.0  0.75715  0.35541  0.76418  1.0000
  H   H2634     1.0  0.87646  0.43943  0.78303  1.0000
  H   H2635     1.0  0.88972  0.48432  0.79843  1.0000
  C   C3313     1.0  0.88706  0.47443  0.79546  1.0000
  C   C3314     1.0  0.87969  0.44915  0.78643  1.0000
  H   H2636     1.0  0.73532  0.32265  0.86696  1.0000
  C   C3315     1.0  0.96504  0.48927  0.48724  1.0000
  H   H2637     1.0  0.90273  0.41418  0.79855  1.0000
  H   H2638     1.0  0.76489  0.43096  0.95900  1.0000
  C   C3316     1.0  0.74419  0.32611  0.87542  1.0000
  H   H2639     1.0  0.93265  0.44253  0.52543  1.0000
  H   H2640     1.0  0.88743  0.44981  0.53035  1.0000
  H   H2641     1.0  0.86096  0.37007  0.55522  1.0000
  H   H2642     1.0  0.97640  0.49007  0.79279  1.0000
  C   C3317     1.0  0.75060  0.28269  0.92879  1.0000
  H   H2643     1.0  0.82796  0.42317  0.87551  1.0000
  C   C3318     1.0  0.95174  0.45514  0.49966  1.0000
  C   C3319     1.0  0.86032  0.38651  0.83629  1.0000
  H   H2644     1.0  0.94294  0.44382  0.61620  1.0000
  C   C3320     1.0  0.73380  0.43857  0.94508  1.0000
  C   C3321     1.0  0.91643  0.47774  0.49458  1.0000
  C   C3322     1.0  0.81387  0.43591  0.68878  1.0000
  C   C3323     1.0  0.76233  0.30176  0.77834  1.0000
  C   C3324     1.0  0.77586  0.30680  0.77264  1.0000
  H   H2645     1.0  0.80611  0.44032  0.69793  1.0000
  C   C3325     1.0  0.81222  0.42256  0.70090  1.0000
  C   C3326     1.0  0.82567  0.44366  0.66569  1.0000
  H   H2646     1.0  0.80315  0.41660  0.71933  1.0000
  C   C3327     1.0  0.74139  0.44398  0.87860  1.0000
  H   H2647     1.0  0.73941  0.44409  0.85162  1.0000
  C   C3328     1.0  0.76969  0.46763  0.95577  1.0000
  C   C3329     1.0  0.89014  0.45828  0.76030  1.0000
  H   H2648     1.0  0.91122  0.47974  0.51928  1.0000
  C   C3330     1.0  0.82880  0.34614  0.97650  1.0000
  C   C3331     1.0  0.89367  0.47101  0.76492  1.0000
  C   C3332     1.0  0.76704  0.33466  0.89784  1.0000
  C   C3333     1.0  0.87075  0.43366  0.91711  1.0000
  C   C3334     1.0  0.83639  0.40394  0.60253  1.0000
  C   C3335     1.0  0.89193  0.30783  0.96617  1.0000
  H   H2649     1.0  0.84675  0.43549  0.58346  1.0000
  S   S459      1.0  0.72299  0.25441  0.80547  1.0000
  C   C3336     1.0  0.91944  0.36880  0.59731  1.0000
  C   C3337     1.0  0.79503  0.29922  0.91458  1.0000
  H   H2650     1.0  0.89815  0.41136  0.69036  1.0000
  C   C3338     1.0  0.76675  0.32654  0.87340  1.0000
  H   H2651     1.0  0.80054  0.34623  0.92703  1.0000
  C   C3339     1.0  0.83080  0.41715  0.89723  1.0000
  S   S460      1.0  0.96785  0.42108  0.64368  1.0000
  C   C3340     1.0  0.97549  0.47190  0.67905  1.0000
  H   H2652     1.0  0.88268  0.35351  0.64090  1.0000
  C   C3341     1.0  0.83898  0.40274  0.63777  1.0000
  H   H2653     1.0  0.92181  0.36365  0.65284  1.0000
  H   H2654     1.0  0.77589  0.33759  0.90682  1.0000
  H   H2655     1.0  0.81128  0.40959  0.93099  1.0000
  H   H2656     1.0  0.87070  0.45455  0.72097  1.0000
  C   C3342     1.0  0.89863  0.41696  0.71113  1.0000
  H   H2657     1.0  0.89678  0.43406  0.67607  1.0000
  C   C3343     1.0  0.79622  0.43045  0.95822  1.0000
  C   C3344     1.0  0.87003  0.34284  0.93966  1.0000
  H   H2658     1.0  0.86738  0.40884  0.57061  1.0000
  C   C3345     1.0  0.90078  0.33444  0.96088  1.0000
  H   H2659     1.0  0.90136  0.47842  0.74481  1.0000
  H   H2660     1.0  0.84825  0.39552  0.86863  1.0000
  H   H2661     1.0  0.79728  0.30578  0.82170  1.0000
  H   H2662     1.0  0.82172  0.47921  0.94054  1.0000
  C   C3346     1.0  0.75536  0.32228  0.86215  1.0000
  C   C3347     1.0  0.78423  0.30008  0.75664  1.0000
  H   H2663     1.0  0.91819  0.41094  0.50425  1.0000
  C   C3348     1.0  0.90037  0.41132  0.74549  1.0000
  C   C3349     1.0  0.67392  0.46329  0.95006  1.0000
  H   H2664     1.0  0.90859  0.48103  0.67757  1.0000
  C   C3350     1.0  0.89778  0.42984  0.70325  1.0000
  C   C3351     1.0  0.71092  0.44677  0.58478  1.0000
  C   C3352     1.0  0.84756  0.40886  0.92108  1.0000
  C   C3353     1.0  0.69851  0.43305  0.64436  1.0000
  C   C3354     1.0  0.76554  0.28342  0.75255  1.0000
  C   C3355     1.0  0.87603  0.45632  0.69260  1.0000
  H   H2665     1.0  0.85944  0.45888  0.67129  1.0000
  C   C3356     1.0  0.92936  0.48493  0.66820  1.0000
  H   H2666     1.0  0.89708  0.45920  0.87608  1.0000
  H   H2667     1.0  0.67879  0.40902  0.92156  1.0000
  C   C3357     1.0  0.66612  0.45721  0.83256  1.0000
  C   C3358     1.0  0.89850  0.43714  0.73000  1.0000
  H   H2668     1.0  0.84516  0.44442  0.63897  1.0000
  H   H2669     1.0  0.89281  0.43582  0.58173  1.0000
  C   C3359     1.0  0.90028  0.43140  0.76445  1.0000
  C   C3360     1.0  0.86954  0.45864  0.66444  1.0000
  Fe  Fe230     1.0  0.93376  0.40396  0.57521  1.0000
  P   P114      1.0  0.89802  0.45399  0.71951  1.0000
  H   H2670     1.0  0.80023  0.46158  0.91169  1.0000
  C   C3361     1.0  0.90527  0.31379  0.95591  1.0000
  C   C3362     1.0  0.82785  0.37977  0.65287  1.0000
  H   H2671     1.0  0.80103  0.24840  0.79048  1.0000
  H   H2672     1.0  0.79199  0.25325  0.86218  1.0000
  H   H2673     1.0  0.76928  0.27880  0.92743  1.0000
  H   H2674     1.0  0.71546  0.44759  0.55628  1.0000
  C   C3363     1.0  0.75347  0.47438  0.49902  1.0000
  H   H2675     1.0  0.73426  0.37663  0.87429  1.0000
  C   C3364     1.0  0.80744  0.29719  0.91417  1.0000
  C   C3365     1.0  0.68354  0.40229  0.91022  1.0000
  H   H2676     1.0  0.74828  0.47763  0.55313  1.0000
  C   C3366     1.0  0.98593  0.46704  0.72919  1.0000
  C   C3367     1.0  0.87284  0.42775  0.61189  1.0000
  C   C3368     1.0  0.91669  0.47705  0.68228  1.0000
  H   H2677     1.0  0.86153  0.43136  0.93710  1.0000
  C   C3369     1.0  0.89092  0.36331  0.96569  1.0000
  C   C3370     1.0  0.78096  0.46990  0.87705  1.0000
  C   C3371     1.0  0.82959  0.39315  0.59267  1.0000
  H   H2678     1.0  0.82698  0.45407  0.65714  1.0000
  C   C3372     1.0  0.85972  0.42759  0.61300  1.0000
  H   H2679     1.0  0.70259  0.41520  0.89977  1.0000
  C   C3373     1.0  0.91450  0.46413  0.70200  1.0000
  H   H2680     1.0  0.87122  0.46353  0.60586  1.0000
  C   C3374     1.0  0.76755  0.29514  0.95141  1.0000
  C   C3375     1.0  0.87448  0.42416  0.90006  1.0000
  P   P115      1.0  0.77216  0.45871  0.92045  1.0000
  C   C3376     1.0  0.87622  0.46137  0.62749  1.0000
  H   H2681     1.0  0.67362  0.45938  0.84750  1.0000
  S   S461      1.0  0.98828  0.43389  0.78450  1.0000
  H   H2682     1.0  0.90423  0.35061  0.52787  1.0000
  H   H2683     1.0  0.92972  0.37327  0.58542  1.0000
  H   H2684     1.0  0.79446  0.32507  0.91188  1.0000
  H   H2685     1.0  0.85718  0.38028  0.95209  1.0000
  H   H2686     1.0  0.74871  0.36195  0.88054  1.0000
  C   C3377     1.0  0.78769  0.46542  0.84882  1.0000
  H   H2687     1.0  0.82750  0.39415  0.56562  1.0000
  C   C3378     1.0  0.67127  0.26772  0.84432  1.0000
  H   H2688     1.0  0.74678  0.28646  0.77302  1.0000
  H   H2689     1.0  0.96278  0.42336  0.77477  1.0000
  H   H2690     1.0  0.77536  0.32352  0.86303  1.0000
  C   C3379     1.0  0.88182  0.38774  0.84717  1.0000
  C   C3380     1.0  0.89590  0.45916  0.64662  1.0000
  H   H2691     1.0  0.69361  0.42348  0.66201  1.0000
  H   H2692     1.0  0.85649  0.35309  0.85373  1.0000
  C   C3381     1.0  0.98762  0.46720  0.56646  1.0000
  C   C3382     1.0  0.88940  0.46157  0.61859  1.0000
  C   C3383     1.0  0.98546  0.47237  0.53216  1.0000
  H   H2693     1.0  0.82464  0.37037  0.67232  1.0000
  C   C3384     1.0  0.89455  0.44013  0.86532  1.0000
  C   C3385     1.0  0.93791  0.46710  0.69246  1.0000
  H   H2694     1.0  0.90126  0.43697  0.78499  1.0000
  C   C3386     1.0  0.84382  0.41675  0.89332  1.0000
  C   C3387     1.0  0.90117  0.41852  0.77218  1.0000
  H   H2695     1.0  0.90610  0.45929  0.63927  1.0000
  C   C3388     1.0  0.92524  0.45918  0.70678  1.0000
  H   H2696     1.0  0.92395  0.44919  0.72093  1.0000
  C   C3389     1.0  0.87890  0.44621  0.90869  1.0000
  C   C3390     1.0  0.87777  0.48499  0.97783  1.0000
  C   C3391     1.0  0.86156  0.49672  0.84005  1.0000
  H   H2697     1.0  0.79465  0.30380  0.75192  1.0000
  C   C3392     1.0  0.86671  0.44349  0.55388  1.0000
  C   C3393     1.0  0.84395  0.46211  0.95606  1.0000
  C   C3394     1.0  0.69502  0.47847  0.57847  1.0000
  H   H2698     1.0  0.87557  0.42183  0.63397  1.0000
  C   C3395     1.0  0.81235  0.30110  0.84747  1.0000
  C   C3396     1.0  0.69844  0.49166  0.66089  1.0000
  C   C3397     1.0  0.93996  0.47998  0.67333  1.0000
  H   H2699     1.0  0.82034  0.37259  0.61009  1.0000
  H   H2700     1.0  0.72154  0.43446  0.90789  1.0000
  S   S462      1.0  0.93798  0.39423  0.62832  1.0000
  C   C3398     1.0  0.71156  0.45782  0.59930  1.0000
  C   C3399     1.0  0.98529  0.45376  0.57927  1.0000
  C   C3400     1.0  0.78773  0.49167  0.83696  1.0000
  H   H2701     1.0  0.97895  0.45331  0.69862  1.0000
  H   H2702     1.0  0.91220  0.30812  0.94997  1.0000
  Fe  Fe231     1.0  0.70960  0.24754  0.77050  1.0000
  H   H2703     1.0  0.86481  0.44559  0.83631  1.0000
  H   H2704     1.0  0.73257  0.28841  0.93488  1.0000
  H   H2705     1.0  0.86307  0.35833  0.95832  1.0000
  H   H2706     1.0  0.94617  0.46317  0.69556  1.0000
  H   H2707     1.0  0.87724  0.41641  0.97095  1.0000
  P   P116      1.0  0.88580  0.36392  0.56085  1.0000
  H   H2708     1.0  0.96155  0.46232  0.60961  1.0000
  H   H2709     1.0  0.75335  0.34951  0.74665  1.0000
  C   C3401     1.0  0.99003  0.46771  0.95885  1.0000
  H   H2710     1.0  0.80186  0.42404  0.96839  1.0000
  C   C3402     1.0  0.86288  0.38949  0.56215  1.0000
  H   H2711     1.0  0.88658  0.39778  0.88837  1.0000
  H   H2712     1.0  0.67517  0.45542  0.93703  1.0000
  C   C3403     1.0  0.87969  0.44359  0.55317  1.0000
  C   C3404     1.0  0.73132  0.43850  0.91031  1.0000
  C   C3405     1.0  0.89725  0.36318  0.58985  1.0000
  H   H2713     1.0  0.67596  0.48198  0.58419  1.0000
  H   H2714     1.0  0.87145  0.46795  0.84466  1.0000
  H   H2715     1.0  0.70597  0.46465  0.64842  1.0000
  C   C3406     1.0  0.74381  0.36435  0.90492  1.0000
  H   H2716     1.0  0.70114  0.37941  0.86580  1.0000
  C   C3407     1.0  0.88273  0.43567  0.58206  1.0000
  H   H2717     1.0  0.80653  0.37976  0.93468  1.0000
  H   H2718     1.0  0.74022  0.30628  0.96409  1.0000
  C   C3408     1.0  0.77907  0.47031  0.97622  1.0000
  S   S463      1.0  0.93715  0.39643  0.52278  1.0000
  Fe  Fe232     1.0  0.94746  0.41431  0.63334  1.0000
  H   H2719     1.0  0.69228  0.47179  0.60531  1.0000
  C   C3409     1.0  0.69906  0.44401  0.65883  1.0000
  C   C3410     1.0  0.88643  0.42753  0.87386  1.0000
  C   C3411     1.0  0.70444  0.43443  0.60733  1.0000
  C   C3412     1.0  0.88003  0.37824  0.56320  1.0000
  C   C3413     1.0  0.78155  0.44740  0.93367  1.0000
  C   C3414     1.0  0.79520  0.45165  0.92631  1.0000
  C   C3415     1.0  0.69710  0.40584  0.89785  1.0000
  H   H2720     1.0  0.88956  0.42055  0.85988  1.0000
  C   C3416     1.0  0.85779  0.39374  0.86240  1.0000
  C   C3417     1.0  0.97322  0.42494  0.68302  1.0000
  C   C3418     1.0  0.97997  0.46311  0.70210  1.0000
  C   C3419     1.0  0.76456  0.26814  0.83533  1.0000
  C   C3420     1.0  0.99135  0.43338  0.70984  1.0000
  H   H2721     1.0  0.77344  0.28463  0.85361  1.0000
  H   H2722     1.0  0.99414  0.46671  0.93151  1.0000
  H   H2723     1.0  0.94977  0.48606  0.66175  1.0000
  H   H2724     1.0  0.82781  0.32823  0.95895  1.0000
  H   H2725     1.0  0.97118  0.46897  0.65743  1.0000
  C   C3421     1.0  0.88832  0.38947  0.56705  1.0000
  C   C3422     1.0  0.68764  0.49402  0.64730  1.0000
  C   C3423     1.0  0.78798  0.36894  0.97094  1.0000
  C   C3424     1.0  0.70769  0.48153  0.55606  1.0000
  C   C3425     1.0  0.75859  0.47246  0.96197  1.0000
  H   H2726     1.0  0.86804  0.41927  0.50307  1.0000
  H   H2727     1.0  0.87595  0.45343  0.92227  1.0000
  C   C3426     1.0  0.72816  0.48335  0.59748  1.0000
  H   H2728     1.0  0.72591  0.43459  0.96965  1.0000
  H   H2729     1.0  0.93096  0.49487  0.65291  1.0000
  C   C3427     1.0  0.67595  0.48621  0.94542  1.0000
  H   H2730     1.0  0.81297  0.44664  0.93318  1.0000
  H   H2731     1.0  0.66637  0.25239  0.75072  1.0000
  C   C3428     1.0  0.79439  0.47401  0.81502  1.0000
  C   C3429     1.0  0.91061  0.36887  0.57477  1.0000
  C   C3430     1.0  0.78811  0.31407  0.96887  1.0000
  C   C3431     1.0  0.76533  0.25606  0.82886  1.0000
  H   H2732     1.0  0.97340  0.49130  0.66496  1.0000
  C   C3432     1.0  0.85191  0.33797  0.62333  1.0000
  H   H2733     1.0  0.87267  0.31039  0.98147  1.0000
  C   C3433     1.0  0.86056  0.35043  0.87724  1.0000
  H   H2734     1.0  0.77575  0.48679  0.89193  1.0000
  C   C3434     1.0  0.85974  0.35720  0.90506  1.0000
  H   H2735     1.0  0.67728  0.37298  0.88780  1.0000
  H   H2736     1.0  0.93528  0.48525  0.50392  1.0000
  C   C3435     1.0  0.74463  0.47517  0.53002  1.0000
  C   C3436     1.0  0.86055  0.32830  0.57497  1.0000
  C   C3437     1.0  0.78268  0.42606  0.96504  1.0000
  C   C3438     1.0  0.67290  0.38102  0.80005  1.0000
  C   C3439     1.0  0.99251  0.47987  0.96705  1.0000
  C   C3440     1.0  0.80247  0.44321  0.93858  1.0000
  C   C3441     1.0  0.82915  0.35930  0.96603  1.0000
  H   H2737     1.0  0.85518  0.36518  0.90294  1.0000
  C   C3442     1.0  0.89290  0.35762  0.62801  1.0000
  C   C3443     1.0  0.88375  0.40047  0.56991  1.0000
  H   H2738     1.0  0.89011  0.40896  0.57406  1.0000
  H   H2739     1.0  0.76237  0.31059  0.97445  1.0000
  H   H2740     1.0  0.85980  0.32028  0.56159  1.0000
  C   C3444     1.0  0.98721  0.47972  0.73371  1.0000
  C   C3445     1.0  0.86739  0.37846  0.55957  1.0000
  H   H2741     1.0  0.88850  0.29753  0.96813  1.0000
  H   H2742     1.0  0.85304  0.38943  0.56016  1.0000
  H   H2743     1.0  0.86297  0.35678  0.62347  1.0000
  H   H2744     1.0  0.68826  0.43353  0.96476  1.0000
  H   H2745     1.0  0.75131  0.47085  0.94607  1.0000
  H   H2746     1.0  0.84452  0.33752  0.64759  1.0000
  C   C3446     1.0  0.87219  0.34966  0.57839  1.0000
  C   C3447     1.0  0.77530  0.25061  0.83788  1.0000
  C   C3448     1.0  0.94006  0.44659  0.49988  1.0000
  C   C3449     1.0  0.86244  0.34892  0.60955  1.0000
  H   H2747     1.0  0.91425  0.37363  0.54573  1.0000
  H   H2748     1.0  0.98698  0.48278  0.52347  1.0000
  H   H2749     1.0  0.95318  0.45753  0.52531  1.0000
  H   H2750     1.0  0.66992  0.47693  0.80141  1.0000
  C   C3450     1.0  0.74666  0.30042  0.95565  1.0000
  C   C3451     1.0  0.90969  0.32709  0.95321  1.0000
  H   H2751     1.0  0.68078  0.47790  0.89894  1.0000
  C   C3452     1.0  0.86429  0.35332  0.93635  1.0000
  H   H2752     1.0  0.71949  0.25847  0.88277  1.0000
  C   C3453     1.0  0.68568  0.48428  0.56666  1.0000
  H   H2753     1.0  0.99221  0.48268  0.75404  1.0000
  C   C3454     1.0  0.88735  0.32850  0.97160  1.0000
  C   C3455     1.0  0.97251  0.41974  0.49349  1.0000
  C   C3456     1.0  0.68868  0.24881  0.93770  1.0000
  H   H2754     1.0  0.77783  0.41618  0.98037  1.0000
  H   H2755     1.0  0.89143  0.41994  0.49747  1.0000
  C   C3457     1.0  0.66406  0.43964  0.68812  1.0000
  H   H2756     1.0  0.92005  0.33171  0.94513  1.0000
  H   H2757     1.0  0.79971  0.49372  0.78281  1.0000
  C   C3458     1.0  0.86236  0.38566  0.96849  1.0000
  C   C3459     1.0  0.88299  0.31515  0.97386  1.0000
  C   C3460     1.0  0.82509  0.40184  0.95658  1.0000
  H   H2758     1.0  0.77671  0.25177  0.76254  1.0000
  C   C3461     1.0  0.66399  0.46708  0.80670  1.0000
  H   H2759     1.0  0.95728  0.48129  0.50505  1.0000
  H   H2760     1.0  0.76376  0.47625  0.49846  1.0000
  H   H2761     1.0  0.90322  0.38276  0.95340  1.0000
  C   C3462     1.0  0.70454  0.25676  0.97126  1.0000
  C   C3463     1.0  0.73947  0.36283  0.97078  1.0000
  C   C3464     1.0  0.87198  0.49206  0.95390  1.0000
  H   H2762     1.0  0.90446  0.34471  0.95850  1.0000
  H   H2763     1.0  0.88673  0.49602  0.61927  1.0000
  H   H2764     1.0  0.99183  0.41733  0.49179  1.0000
  H   H2765     1.0  0.87880  0.47551  0.97485  1.0000
  H   H2766     1.0  0.98074  0.44733  0.97952  1.0000
  C   C3465     1.0  0.67162  0.48374  0.98381  1.0000
  C   C3466     1.0  0.87351  0.40597  0.97904  1.0000
  H   H2767     1.0  0.84080  0.39587  0.97552  1.0000
  C   C3467     1.0  0.89742  0.37438  0.97494  1.0000
  H   H2768     1.0  0.69686  0.24925  0.88062  1.0000
  H   H2769     1.0  0.88497  0.37977  0.48934  1.0000
  C   C3468     1.0  0.71094  0.49080  0.52220  1.0000
  H   H2770     1.0  0.93624  0.49678  0.73576  1.0000
  C   C3469     1.0  0.72949  0.49680  0.59099  1.0000
  C   C3470     1.0  0.68893  0.49325  0.53263  1.0000
  C   C3471     1.0  0.67710  0.47599  0.92856  1.0000
  C   C3472     1.0  0.70154  0.49655  0.51047  1.0000
  H   H2771     1.0  0.66431  0.46879  0.70574  1.0000
  H   H2772     1.0  0.75800  0.25090  0.81726  1.0000
  S   S464      1.0  0.72588  0.24935  0.72131  1.0000
  H   H2773     1.0  0.95386  0.42239  0.48685  1.0000
  H   H2774     1.0  0.81782  0.39580  0.98079  1.0000
  H   H2775     1.0  0.77106  0.24766  0.70551  1.0000
  H   H2776     1.0  0.67873  0.49609  0.92877  1.0000
  H   H2777     1.0  0.71377  0.51416  0.01524  1.0000
  C   C3473     1.0  0.92486  0.54954  0.39250  1.0000
  S   S465      1.0  0.93298  0.49897  0.27010  1.0000
  S   S466      1.0  0.97381  0.54971  0.18177  1.0000
  H   H2778     1.0  0.69214  0.63769  0.09067  1.0000
  C   C3474     1.0  0.69074  0.53640  0.18724  1.0000
  C   C3475     1.0  0.90169  0.50425  0.18444  1.0000
  C   C3476     1.0  0.70686  0.52728  0.08922  1.0000
  H   H2779     1.0  0.97165  0.52178  0.09596  1.0000
  C   C3477     1.0  0.97824  0.55453  0.08389  1.0000
  H   H2780     1.0  0.97447  0.56185  0.09505  1.0000
  C   C3478     1.0  0.95624  0.56142  0.25626  1.0000
  C   C3479     1.0  0.90828  0.49962  0.15641  1.0000
  Fe  Fe233     1.0  0.93041  0.51424  0.22503  1.0000
  H   H2781     1.0  0.87220  0.51793  0.99289  1.0000
  C   C3480     1.0  0.91708  0.59693  0.34084  1.0000
  P   P117      1.0  0.92607  0.55704  0.34472  1.0000
  H   H2782     1.0  0.67529  0.50677  0.15294  1.0000
  C   C3481     1.0  0.69702  0.51673  0.17966  1.0000
  C   C3482     1.0  0.92291  0.53838  0.46705  1.0000
  C   C3483     1.0  0.66769  0.50975  0.41831  1.0000
  H   H2783     1.0  0.73789  0.52486  0.08803  1.0000
  C   C3484     1.0  0.95228  0.53119  0.43971  1.0000
  Fe  Fe234     1.0  0.95277  0.50196  0.23419  1.0000
  C   C3485     1.0  0.69350  0.52161  0.23989  1.0000
  C   C3486     1.0  0.88817  0.50277  0.18874  1.0000
  H   H2784     1.0  0.90185  0.56025  0.32233  1.0000
  C   C3487     1.0  0.95275  0.52998  0.37557  1.0000
  C   C3488     1.0  0.95730  0.53639  0.40151  1.0000
  H   H2785     1.0  0.95663  0.53413  0.34630  1.0000
  H   H2786     1.0  0.96467  0.54552  0.39197  1.0000
  C   C3489     1.0  0.66492  0.50809  0.35673  1.0000
  H   H2787     1.0  0.91064  0.51982  0.29299  1.0000
  H   H2788     1.0  0.66528  0.50290  0.33506  1.0000
  C   C3490     1.0  0.98822  0.53551  0.05688  1.0000
  C   C3491     1.0  0.69568  0.54943  0.10102  1.0000
  C   C3492     1.0  0.96704  0.56240  0.27168  1.0000
  S   S467      1.0  0.96257  0.51685  0.26059  1.0000
  S   S468      1.0  0.93881  0.53053  0.25006  1.0000
  H   H2789     1.0  0.67782  0.57178  0.10505  1.0000
  C   C3493     1.0  0.91671  0.53562  0.31803  1.0000
  H   H2790     1.0  0.67885  0.53869  0.06102  1.0000
  H   H2791     1.0  0.73465  0.51580  0.03421  1.0000
  C   C3494     1.0  0.68301  0.63027  0.09854  1.0000
  C   C3495     1.0  0.67447  0.62846  0.13272  1.0000
  C   C3496     1.0  0.94386  0.55981  0.27845  1.0000
  C   C3497     1.0  0.69690  0.51352  0.21724  1.0000
  C   C3498     1.0  0.91019  0.58626  0.36988  1.0000
  C   C3499     1.0  0.98963  0.55817  0.05579  1.0000
  H   H2792     1.0  0.72037  0.53226  0.12292  1.0000
  H   H2793     1.0  0.98199  0.51072  0.21041  1.0000
  H   H2794     1.0  0.69923  0.50464  0.22902  1.0000
  C   C3500     1.0  0.94217  0.55913  0.31644  1.0000
  C   C3501     1.0  0.94287  0.51927  0.45169  1.0000
  S   S469      1.0  0.67244  0.50362  0.45894  1.0000
  C   C3502     1.0  0.70517  0.52228  0.05844  1.0000
  C   C3503     1.0  0.94291  0.51841  0.38758  1.0000
  H   H2795     1.0  0.69304  0.51896  0.26922  1.0000
  H   H2796     1.0  0.98928  0.54184  0.23395  1.0000
  H   H2797     1.0  0.92494  0.53227  0.32475  1.0000
  H   H2798     1.0  0.90747  0.56598  0.39362  1.0000
  C   C3504     1.0  0.99482  0.54868  0.04228  1.0000
  H   H2799     1.0  0.68753  0.53915  0.24278  1.0000
  H   H2800     1.0  0.95219  0.56007  0.36060  1.0000
  C   C3505     1.0  0.68492  0.55460  0.10955  1.0000
  C   C3506     1.0  0.92972  0.55133  0.45159  1.0000
  C   C3507     1.0  0.70776  0.55783  0.08121  1.0000
  C   C3508     1.0  0.91813  0.53647  0.40819  1.0000
  H   H2801     1.0  0.97658  0.56342  0.25438  1.0000
  Fe  Fe235     1.0  0.95857  0.53111  0.21594  1.0000
  H   H2802     1.0  0.93598  0.56698  0.40309  1.0000
  H   H2803     1.0  0.68811  0.54519  0.17674  1.0000
  H   H2804     1.0  0.68639  0.62389  0.04803  1.0000
  C   C3509     1.0  0.95313  0.56044  0.33157  1.0000
  H   H2805     1.0  0.88753  0.54748  0.29169  1.0000
  C   C3510     1.0  0.90858  0.52849  0.30030  1.0000
  H   H2806     1.0  0.69610  0.52132  0.04987  1.0000
  C   C3511     1.0  0.99081  0.55388  0.18049  1.0000
  Fe  Fe236     1.0  0.94245  0.51517  0.29316  1.0000
  C   C3512     1.0  0.97672  0.53193  0.08466  1.0000
  C   C3513     1.0  0.69826  0.57624  0.07851  1.0000
  H   H2807     1.0  0.71622  0.55413  0.07437  1.0000
  C   C3514     1.0  0.72697  0.51913  0.04930  1.0000
  C   C3515     1.0  0.87401  0.50893  0.98768  1.0000
  H   H2808     1.0  0.69926  0.58658  0.06978  1.0000
  H   H2809     1.0  0.96303  0.53871  0.12034  1.0000
  H   H2810     1.0  0.93882  0.51518  0.48092  1.0000
  C   C3516     1.0  0.98043  0.51439  0.32658  1.0000
  C   C3517     1.0  0.66786  0.50295  0.39024  1.0000
  C   C3518     1.0  0.71520  0.51823  0.03859  1.0000
  C   C3519     1.0  0.93812  0.51302  0.42574  1.0000
  S   S470      1.0  0.93599  0.51048  0.35628  1.0000
  H   H2811     1.0  0.84634  0.50292  0.00439  1.0000
  H   H2812     1.0  0.67551  0.54831  0.12506  1.0000
  S   S471      1.0  0.94986  0.51614  0.18721  1.0000
  H   H2813     1.0  0.95746  0.56174  0.22707  1.0000
  H   H2814     1.0  0.97388  0.56277  0.32126  1.0000
  C   C3520     1.0  0.98551  0.51029  0.44506  1.0000
  H   H2815     1.0  0.71837  0.57763  0.05468  1.0000
  C   C3521     1.0  0.89810  0.53278  0.29074  1.0000
  C   C3522     1.0  0.99250  0.50359  0.10494  1.0000
  C   C3523     1.0  0.91449  0.54719  0.32600  1.0000
  C   C3524     1.0  0.96550  0.56201  0.30928  1.0000
  C   C3525     1.0  0.87981  0.50183  0.01148  1.0000
  C   C3526     1.0  0.67850  0.52380  0.10857  1.0000
  C   C3527     1.0  0.98872  0.50248  0.28325  1.0000
  P   P118      1.0  0.69382  0.53214  0.11575  1.0000
  C   C3528     1.0  0.97179  0.54144  0.09827  1.0000
  C   C3529     1.0  0.69391  0.52819  0.16429  1.0000
  C   C3530     1.0  0.99261  0.52620  0.16347  1.0000
  H   H2816     1.0  0.99432  0.56841  0.04480  1.0000
  H   H2817     1.0  0.91376  0.53042  0.39199  1.0000
  H   H2818     1.0  0.93044  0.50413  0.43528  1.0000
  C   C3531     1.0  0.97439  0.51248  0.46549  1.0000
  S   S472      1.0  0.90972  0.51175  0.21509  1.0000
  H   H2819     1.0  0.90272  0.58735  0.39162  1.0000
  H   H2820     1.0  0.93205  0.60379  0.29029  1.0000
  H   H2821     1.0  0.98393  0.52787  0.15532  1.0000
  H   H2822     1.0  0.69941  0.51017  0.16277  1.0000
  H   H2823     1.0  0.93563  0.55901  0.26585  1.0000
  C   C3532     1.0  0.93063  0.55692  0.41457  1.0000
  C   C3533     1.0  0.69046  0.53305  0.22489  1.0000
  C   C3534     1.0  0.68621  0.56794  0.09832  1.0000
  H   H2824     1.0  0.93698  0.58259  0.29182  1.0000
  C   C3535     1.0  0.92671  0.59552  0.31282  1.0000
  H   H2825     1.0  0.91497  0.60630  0.34005  1.0000
  C   C3536     1.0  0.71880  0.52834  0.09946  1.0000
  H   H2826     1.0  0.91208  0.52084  0.45724  1.0000
  C   C3537     1.0  0.92949  0.58345  0.31383  1.0000
  C   C3538     1.0  0.90380  0.55135  0.31680  1.0000
  C   C3539     1.0  0.89563  0.54413  0.29931  1.0000
  H   H2827     1.0  0.98123  0.52320  0.33649  1.0000
  C   C3540     1.0  0.91293  0.57418  0.37098  1.0000
  C   C3541     1.0  0.92265  0.57270  0.34303  1.0000
  H   H2828     1.0  0.89205  0.52738  0.27614  1.0000
  C   C3542     1.0  0.70903  0.57119  0.07000  1.0000
  C   C3543     1.0  0.67359  0.52938  0.07941  1.0000
  C   C3544     1.0  0.72877  0.52422  0.07966  1.0000
  C   C3545     1.0  0.98978  0.51385  0.29631  1.0000
  C   C3546     1.0  0.91708  0.53097  0.44541  1.0000
  H   H2829     1.0  0.99184  0.52796  0.04693  1.0000
  H   H2830     1.0  0.99581  0.56703  0.12671  1.0000
  H   H2831     1.0  0.88247  0.50536  0.03461  1.0000
  C   C3547     1.0  0.67161  0.51150  0.13091  1.0000
  H   H2832     1.0  0.93460  0.55691  0.46817  1.0000
  C   C3548     1.0  0.99582  0.54860  0.20964  1.0000
  H   H2833     1.0  0.90281  0.50716  0.36519  1.0000
  H   H2834     1.0  0.97378  0.52232  0.46556  1.0000
  H   H2835     1.0  0.99021  0.51163  0.11527  1.0000
  C   C3549     1.0  0.96971  0.50377  0.34313  1.0000
  C   C3550     1.0  0.99151  0.51678  0.19536  1.0000
  S   S473      1.0  0.95738  0.54034  0.47110  1.0000
  C   C3551     1.0  0.67976  0.62249  0.07453  1.0000
  H   H2836     1.0  0.96227  0.50436  0.36584  1.0000
  H   H2837     1.0  0.91864  0.50063  0.15261  1.0000
  H   H2838     1.0  0.66447  0.52709  0.43384  1.0000
  H   H2839     1.0  0.99354  0.51847  0.42946  1.0000
  H   H2840     1.0  0.88293  0.50630  0.21021  1.0000
  C   C3552     1.0  0.82643  0.49925  0.00087  1.0000
  H   H2841     1.0  0.88963  0.50087  0.32128  1.0000
  H   H2842     1.0  0.67701  0.63446  0.15140  1.0000
  C   C3553     1.0  0.66449  0.52169  0.41266  1.0000
  C   C3554     1.0  0.83988  0.50334  0.98593  1.0000
  C   C3555     1.0  0.98641  0.49758  0.44561  1.0000
  C   C3556     1.0  0.66796  0.61294  0.08458  1.0000
  H   H2843     1.0  0.66567  0.60700  0.06560  1.0000
  H   H2844     1.0  0.70398  0.50362  0.48422  1.0000
  H   H2845     1.0  0.66639  0.57357  0.21105  1.0000
  H   H2846     1.0  0.66420  0.59350  0.17191  1.0000
  C   C3557     1.0  0.89992  0.49709  0.36397  1.0000
  H   H2847     1.0  0.83973  0.51221  0.89492  1.0000
  C   C3558     1.0  0.87028  0.50422  0.95817  1.0000
  Fe  Fe237     1.0  0.97096  0.53610  0.59417  1.0000
  H   H2848     1.0  0.90232  0.50760  0.72605  1.0000
  S   S474      1.0  0.97403  0.52713  0.54526  1.0000
  S   S475      1.0  0.95378  0.54275  0.57868  1.0000
  H   H2849     1.0  0.74634  0.50365  0.65513  1.0000
  H   H2850     1.0  0.88092  0.52838  0.85787  1.0000
  C   C3559     1.0  0.83617  0.50866  0.92455  1.0000
  P   P119      1.0  0.86227  0.51317  0.92840  1.0000
  C   C3560     1.0  0.94549  0.50402  0.72808  1.0000
  C   C3561     1.0  0.81785  0.49992  0.97773  1.0000
  H   H2851     1.0  0.66379  0.55798  0.64173  1.0000
  C   C3562     1.0  0.99235  0.55408  0.95839  1.0000
  H   H2852     1.0  0.97951  0.55506  0.92141  1.0000
  H   H2853     1.0  0.97848  0.53003  0.69924  1.0000
  S   S476      1.0  0.92349  0.51900  0.66203  1.0000
  Fe  Fe238     1.0  0.95606  0.53227  0.53235  1.0000
  H   H2854     1.0  0.98511  0.55460  0.98160  1.0000
  C   C3563     1.0  0.96422  0.50198  0.48684  1.0000
  C   C3564     1.0  0.96916  0.50958  0.71394  1.0000
  S   S477      1.0  0.95836  0.51717  0.63108  1.0000
  H   H2855     1.0  0.95585  0.50373  0.50379  1.0000
  C   C3565     1.0  0.88563  0.54917  0.92001  1.0000
  H   H2856     1.0  0.88807  0.52994  0.92185  1.0000
  C   C3566     1.0  0.99379  0.52156  0.75681  1.0000
  H   H2857     1.0  0.92251  0.53399  0.49552  1.0000
  C   C3567     1.0  0.94575  0.51720  0.72060  1.0000
  H   H2858     1.0  0.90970  0.50836  0.61051  1.0000
  Fe  Fe239     1.0  0.96013  0.50894  0.58144  1.0000
  C   C3568     1.0  0.84487  0.50790  0.94762  1.0000
  H   H2859     1.0  0.98770  0.56111  0.72225  1.0000
  C   C3569     1.0  0.98913  0.55436  0.92428  1.0000
  C   C3570     1.0  0.98848  0.55509  0.67094  1.0000
  S   S478      1.0  0.94222  0.51350  0.56633  1.0000
  H   H2860     1.0  0.88036  0.56730  0.91860  1.0000
  H   H2861     1.0  0.95788  0.53680  0.70409  1.0000
  H   H2862     1.0  0.97838  0.55469  0.67134  1.0000
  C   C3571     1.0  0.86794  0.53033  0.92543  1.0000
  C   C3572     1.0  0.96932  0.52276  0.70694  1.0000
  C   C3573     1.0  0.87083  0.50594  0.81125  1.0000
  H   H2863     1.0  0.87242  0.50439  0.78359  1.0000
  C   C3574     1.0  0.86373  0.55158  0.92326  1.0000
  H   H2864     1.0  0.73679  0.51441  0.60720  1.0000
  H   H2865     1.0  0.99603  0.55456  0.86694  1.0000
  C   C3575     1.0  0.82272  0.50471  0.93960  1.0000
  C   C3576     1.0  0.86606  0.51029  0.88262  1.0000
  C   C3577     1.0  0.89900  0.50492  0.70275  1.0000
  C   C3578     1.0  0.90321  0.50536  0.63770  1.0000
  C   C3579     1.0  0.87691  0.55701  0.92046  1.0000
  C   C3580     1.0  0.88118  0.53588  0.92244  1.0000
  H   H2866     1.0  0.98501  0.51623  0.63790  1.0000
  H   H2867     1.0  0.78775  0.50183  0.83228  1.0000
  H   H2868     1.0  0.89585  0.55338  0.91777  1.0000
  C   C3581     1.0  0.98744  0.50877  0.75744  1.0000
  C   C3582     1.0  0.87549  0.51946  0.85356  1.0000
  S   S479      1.0  0.99014  0.54802  0.60310  1.0000
  C   C3583     1.0  0.90761  0.50896  0.66755  1.0000
  C   C3584     1.0  0.95714  0.50019  0.72539  1.0000
  H   H2869     1.0  0.93674  0.52017  0.72224  1.0000
  H   H2870     1.0  0.98996  0.51912  0.84898  1.0000
  Fe  Fe240     1.0  0.94125  0.52312  0.61378  1.0000
  C   C3585     1.0  0.95767  0.52658  0.71022  1.0000
  C   C3586     1.0  0.99476  0.52525  0.78969  1.0000
  C   C3587     1.0  0.98922  0.51624  0.82353  1.0000
  H   H2871     1.0  0.88502  0.52440  0.79559  1.0000
  C   C3588     1.0  0.85925  0.53829  0.92569  1.0000
  H   H2872     1.0  0.67324  0.54222  0.61366  1.0000
  C   C3589     1.0  0.99384  0.55881  0.69976  1.0000
  C   C3590     1.0  0.98182  0.49980  0.79154  1.0000
  H   H2873     1.0  0.81607  0.50504  0.92156  1.0000
  S   S480      1.0  0.67101  0.51811  0.55331  1.0000
  H   H2874     1.0  0.85697  0.55766  0.92356  1.0000
  C   C3591     1.0  0.87786  0.51725  0.81805  1.0000
  H   H2875     1.0  0.84901  0.53431  0.92775  1.0000
  C   C3592     1.0  0.74154  0.49806  0.63846  1.0000
  H   H2876     1.0  0.68891  0.50231  0.62478  1.0000
  C   C3593     1.0  0.73611  0.50411  0.61156  1.0000
  P   P120      1.0  0.98416  0.50500  0.71536  1.0000
  C   C3594     1.0  0.99488  0.51780  0.64137  1.0000
  C   C3595     1.0  0.98285  0.50350  0.82445  1.0000
  C   C3596     1.0  0.99622  0.55211  0.64141  1.0000
  H   H2877     1.0  0.72522  0.50165  0.57062  1.0000
  C   C3597     1.0  0.89017  0.49836  0.64276  1.0000
  C   C3598     1.0  0.66556  0.53879  0.63878  1.0000
  C   C3599     1.0  0.85925  0.49887  0.87556  1.0000
  H   H2878     1.0  0.66482  0.51860  0.64228  1.0000
  H   H2879     1.0  0.70798  0.49821  0.64876  1.0000
  C   C3600     1.0  0.88603  0.49769  0.70791  1.0000
  H   H2880     1.0  0.68172  0.49776  0.52351  1.0000
