data_image0
_chemical_formula_structural       H2SH2CFeCSHCH4FeS2CSCFeSFePSC8H2SC2PC3H4CHCHCHC7H4C6H4CHCH3CFeHCHCH2CFeC3HCH2Fe2C2PC2HCH2C2HC2HCHCHCHCHC3HCHSCPCSCHCH2C7HCHC2SCH5C2SCHC3H4CH2CHC2H2FeC2HCHC3H3SH3C4HC15H2CHCSC2HC2HCH2CSH4SH3CHSCHC3HCH2C6HC2HC3H3SHSHCHFeCH2C2HPC2HSHC2H2CH3C2H4C2HC2H2SHCSH3CSHSFeS2FeS2FeSFeS3FeS2FeH2FeSHSHFeS2FeS2FeSFeS3H2SC2S2C3HFeS2FeS2FeSFeS3Fe2S2FeS2CFeS2FeS2FeSFeS3FeCHFeS2FeSCSHFeSFeSHSC4H2CPH5C6H4C6H4C6H4C6H5C6H2C7H4C4SCH4C6H4CFeH2C7H4C6H4C6H4C6H7C3SC2H3C4H4C6H5C6PC8H8C3H4CHC2HC3H2CH2C5P2CHC10PC18H20C6PC12H16SC2PC9H2C7H7FeHCH6CH2C6PC18H20C6PC18H17SC2S2FeH2C3HSHCHC3HC2H2C2HPCHCH2C2H3C2HC3HC2H2C6H2CH3CH3C3H2C2HFeHC2H2C2H2C5H3CH2CHC4HC2HCFeHC3HSHPCSHCH3CHC3H2C5HCH4CH3C3SFeHC3H2C3HCH2C5H2CHC2HCH2FeH3CFeC3HC4HFeH2C2H2C6H3C2H3C3H4C5HC4SCHC4H3CH3CHCH2C2HC2HSH3C6FeH2C2HC2PH4CSH3C2HC2HC2H2CH2C2H2CHCHCHC2HC2HCHC2H2C2PCH3C2H2CHC4HC2H3CHC2H3C4HCH2CHC3HC2H2CH2C4HCHCH2CHC2HCH3SPC7SH4CSC3SCHC2HC3H3SC3H3PCFePHCH2FeSH3CHCHC4H3C2HC4H3CH2CHC5HC2H2C2H2C3PCHCHFeC3SC2H2PC2HCH3CSCH3C2FeC4HCHCH3SC2H2C2SH2SCHC2HSC2HCSCHC4HPC4H2CH2C2H2C4H3CH2C2HC7H2C2HC2SH2C2HC2HC3H3CH2C2HCHCH3CH5C3H2C3HC2HFeH2CH2SH3CHCFeCH4FeHCS2FeCFeCSPHCH2CHS2C3HCHC7HC6H2CH5C4H3SFeCHC2H2C2HCHC3SH2CH2CH5SC2HC3HC2SH2C2HC5HC2H4C2H4CHC3SC2HC2HCSC2H2C3PCHCHCH2CH5CSHC2H2SH2C4HSCFeS2FeSHFeSHCSHFeS2FeS2FeCFeS3C6H4CHC4H4CH2C2HCHC8H4C6H5C5HCHSHC2HC3HC2HCHC3HC2PHCSH3PC6H5C2H3C2SC2HCH2CHCH2FeH3CH2CH3CPCHCH3CHCHC3S2CH2CH2CH2CFeC6HCHC4HC2HCH2C3HC3HC4HCH5SHCHCHCFeHC2HC4HC2HFeH3CHC3H3CSCHSCHCH2PC6H2C4H3CHCFeHSHCS2HCSCFeS2FeS2FeSFeS3FeS2FeS2FeSFeS3CHSH2SFeS2FeS2FeHFeS3FeS2FeS2FeSFeS3FeCSFeS2HFeS2FeS2FeSFeS3H2CH2C3HCHFeS2FeS2FeSFeS3CPC5H3C5H2C8H4C6H4FeC10H3C6H4C6H4C6H4C6H4C6H4C6H4C6H4C6HCH2C2H3CH2CHC6H4C6H4C6H4C6H4C6PC2H3C4H9CHC6H8CPC13H10CHCHCHCHFeH2CH3CHC2HCH2C4SCH3C2HC3H2C2HC2HC2H2C5HCH4CFeC2H2C4PH3C3HC2HC2HCHCHCHSHC2HCPC2H2CPC6H6C2H2C4HC2H2CHC3HC7H3CH3C2HC2H2CHC2H3C2HCH2CHPC7HCH2C2H3CHCHCH2CHC3HC2HC2SH2C5H2CH3C4PCHCHCHC4H3CH2C4H3C5H4CH3CHC2PC4HC7H3PH3CH2C2HC2H3C2H3CSC2HCH2C2HC2HC4HC3H3C3HC2H4C3HC5HPHC3HCHC2HCHC4H2C4H2CHCHC3HC2H7CHC3HC3HCHC2H2CH2CH2C2HFeHSHC2HC2H2C2H3C3PCHCH2CHC2HCHC7HPCHC5PC3HCHCPHFeC2SPC2H2C2H3C2HC3HCSCHCSCHC4H5C6H2C2HCHPHC4HCHC2HC3HCHC3H3CHC11H2CHCH2PCHSHCHCHCH3C2PCH2C5HPH4CHS2CHC3HC2HC2HSCH5C3H2C3H2C6HC2HC2HC2H3C2HC5H2C2HCHC2H6C2H5C2H2C4H2CH2SH2C2H2C3HC2H4CHCPSCH5CHC3H2SH3C3H3CHC2HCSHC2H2CHC2HC2FeHCH3CHC4H2C2H3C6HCFeSCH3CH5C3H2CPHCH2CHC4FeH3C2HCH2C2H2CHC4HCHC3H5C4HCHC5HC2FeH4PHCSH3CH2CHC4HCSHC2PH2CSFeH2CSHCHC2HFeCHC2SHCHC2H2CHC2FeHC3HCSHCSCHC3H8CH2FeS2FeS2FeSFeS3HFeSHFeS2FeS2FeS2FeSFeS2FeS2FeS2FeHFeS3CSC2HSFeSH4FeS2FeS2FeSFeS3H2C3SHC2HCHC4H3CH3CH2SC2HC7H3C6H4C7H4C3HCHC6H4CHC2H4CHCHCH2C6H2CHC2HC2H2C2HC6H4C6H4C6H4C6H4C4H2CSHC5SH2C2HC3H3PCSHC4H2C3H2CH8CFeHSC6PC18H20C14H11C2HCHC6PC12H13CHC3PC14H12FeHC2HC2HCH3CH2CH2C2HCH2CHC2H2CHC4HC6H4C3HCFeH2CPC2H3C2HCHCSC3HC3SH2CH3CHC4HCHC3H3CHC8H2C4H2CPHCHC3HCH3CH2C2H2CHCHFeCHC2HPH3C3HCHCHC4H3SCSC2HC2HCH3CH2CH2CHCHCHC4HCHC5H2PH3C4SCHCH2C2H3CHC2HC2FeCH2PCPH3C2HC2FeCHCH2C3PC2HFeHCH5SHCH2CHC3H3C6H3C3HC2H2CPCSC2HC5H2SHPH3C2H4C4H2C3HCHC4HC4SH4CHCH3C3HCH4C4H2C2HPHCHCHCH2C2HC3H3CSH3C4HC3HFeC3HCSHC3HC2H2CHCHSH2SH2CHC3SCH3C6SC3FeC5HCH2SHC2H3C4HSCH2CHCHCHCHCH2CHSHC5SHFeCSHS2FeSCHC2H2CH2C2SFeHFeS2FeS2FeSFeS3CFeHC2HCSC4FeS2FeS2FeSFeS3C3FeS2HCHPC2S3C3SHFeSC2H2C3HC2HC2HC6H4C6H4C6H4C6HC2HCHC8H4C6H4Fe2C2H2C2FeCHC4HC7H4FeC6H6C6H4C3HC3H3C2HC5H4C3SC3HC6PC14HPHSH14C2HCHC2HCHCH2C2H2CH3CH4CHC8SC2HSH2CHC2H10C2H2C6PC18H22CHC2PC7HCH3C6HCSC2H6C2HCH5C6PC18H20CFeCFeCHC4HCH3C5HS2CH2CH2S2HC3FeC3FeSH2CPHCHC2HS3CSH2CHCH2C2HS2C3H2SC2HC2HCHCHCFeC2H3FeHCFe2CH2PHCH2CHC4SHSH3PH2CH5CHC2H2CHCHC2H3SCH2CHCHCHC2PHC2H2C4H3CHCHCH5CHC3HC7HCHC2HCHC4HC10HPSCHC3H3CHC2HCHC5H5FeH2CH2CPH3CFeH2CHC3H2SC3H4C2HCH3CHCHCHCSHC4HCFeC3PCH3CHCH3C2H7C3SC4HC2HCHCHFeC3FeS2FeH2FeSH2S2FeS2FeS2FeCFeS3FeS2FeS2Fe2S3FeSFeS2FeSFeS3FeS2FeS2FeSFeS3CH2FeS2FeCFeS4FeSCFeSFeS2FeS2CSH3FeSCSCHCH2C6H4C6H5C6H4C6H4C6H4C7H3C6H2CHC6H4C6H6CFeSHCH2CHCH2C6H4C6H4C2HCHCHC2HC2HCHCH3CHC6PC17H12CH5CHCH2CHC6PC18H16CH3C6PC18H20C8HC3H2CHCPC3HCHSCH8C5HCHC6PC18H20C4PC10H12C13H8P2CSC6H2CHC2H2CPCH2CPFeHCH2CH2CHCH2CHC5H2C2H2SCHC2HC2PSCH3CHFeSC2HCH2CH6C6HCHC3HC4HC2H4C7H2CH3C2H4C2HCH2C10HCH2CHC2H4S2CHCHCH2CH4CH2CH5CH7C2H2C3H5C3H3C3HCH2C2H4SC5PHC3FeCH2CHC2PCHC6H2C6HSCHCFeC5HC2H3CHCHC6HCH3C2H2C2HC3H4SHCHC7H4CHC3HC3HC2PCSH2CH3CH3C3H2CH2CH2C2H2CHPC4HC9HSHCHC3FeCH2C4HCHC3H2CH2CFeHC2HCHCHC2H4SCH2CH2CH2CH2FeCHC2HC3H2CHC2H2CHCHCH2CSC3HCH2CPHSC3H3C2H2C2SHCHFeCSCH2CHFeS2FeS2FeSFeS3FeS2FeS2FeSFeS3FeS2FeS2FeSFeS3FeS2FeS2FeSFeS3CHFeSHCH2CH4C2H3C2H2C4H2C6H4C6H4C6H4CHCH2CHCHC6H4C6H4C4H2CH2PC4HCHC6H4C6HCH3C4H2C6H2PHCHC9H6CHC3HC3PC4H5CHCHCHCHSCH3C2H2SHCHC2HC7H2CH5C7PC18H20C6PC3H2C7H2CH3C3H5SC2HSH3CHC3HCHCHC2HCH2CHCH2CHC3H2C2PHC3H2C2HCPC3H2C3H2C3HCFeC2HC3PCHC2SHSC2HCHC4HC3H2C4HCHC3H2C2SHC6H3CH2CHC3H3C3H2CFeCH2C2HC2HC4HC2SCPCH4CH3FeH2CH2C2SH2C3FeHCHC3SCHCH2C3H2CH4C2H2C6H2CH2PCHC2HC3HC2HC3FeH4CHCHFeCSHC2HC5HC5HCH2SC2HC2HSPC2H2PHCHC2PC2HCH2CH3C2HCH2C5HCHC2HCH3SC5H3C2H3CH3C4HC5HC3H3CHCPCHCHCHC7H4CHC5H4C4HC2H2CHCHC4H6C2H4CH3C2SC2HC3H2C4HC2SCH8C3H2C2PH5CHC2H2C2H2CHCHC2SCH2CHC3HC4H2C2HC2H2CHC4HC2H2C3H3C3H2CH2C2HCHC3HPFeC2HC3H2CHCH5FeS2CSHFeSFeS3FeS2FeS2FeS2FeS2FeSFeS3FeS2FeS2FeSFeS3FeS2FeS2FeCFeS3Fe2S2FeS3FeS2FeS2FeSFeS3FeS2FeS2FeSFeHS2CFeS2FeS2Fe2S3FeS2FeS2FeSFeHS2CH2C2HCH2C7H4CH2CHCH2C4HFeCH3C7H4C6H4C6H4C6H5C6H4C6H4C8H4C6H4C6H4C6H4FeHC8H4C6PCH2C6H4C6H4SC5PC6HC4H7CH2C5H6C9H10C9H7C4PC18H2SH15C6PCSHC2H4CH8CH2CH3C4HCHC2HCHC7H3C2HC3PH2C2HCPC13H9CHC2HCH4C3HCHC2HCHC3HC3H2C3HC2H2CHC2H2C5H2CH2C7H2C2HCFeCH2CH2C2H5PHCH3CPC2H2CHC6H2SC7HCH2CHC3H2C2HCHCHC2HCH4C2HCHC2H3C2HCPC4H2C2HCHCH4C3HCH3CH4CHC2HC3HC5H3CH2PCHC2H3C2HCHCHC2PCHCHC3H3CSC2H2CH3CHC2H2CSH2C2HC9HCH4CH3CHC2H2CHCHCPHC2HC3H2C2HCH3C6HC3H2CHC7PC4H2CHCH2C3PC2HCSHC2HCH2C4H2C3H2CH2CH2C2HCSC2HCHC2H4C2HCHC6H2C4HC4H4CH3CH2CSH2CHC2H4CHCH4C4HC3HCHCHCH2C2H2PC2H2CHC4H2C2HC2HC4HC2HC2HCSHC2HC4HC6H6C4HCH4CH4C2HC2H4C3H2SH2C3HCHCPC3HC2H3C6HC4HC5HCHC2HC2HCHC2PCHCH3CHC4H4C5PHCH4CH2C2HC2HCHC2H3CH5CH2C6H2CHCH4CHC2HCHC5H2CHC2HC3HCHCH2CHCHCH6C2HC2HCH2C3H3CHC2H2PHCSHCHC2H2C5H2SH2C4HCH2C2HCH2CH4C2H2CHC4HC5HC5H2CH3CHCH4CHPH2C3H3PC2SH2CHCS2HCHFeS2FeHFeC2FeS3FeSCFeS2FeCFeSHSC6H4SC3H2CH3C3HCHC7H4C6H6C2HC3H2CH2CSC2HC2HSHC5H3C4H2C2HC2H2CHC2HCHCHC5HPHCH4C7HSH2CH2C3HPCH6CHCH2CH2CH3CHC2SCH2C2HSHC4H2CHC2HPH2C4H2CHC2HCHCHCFeHFeHCH3CH2C4SCH2FeS2FeSFeS3HFeHFePSCH2SFeCHC7H2SHCPH4CSHC2HC3PC2HC6HCH3C3H2SCHCHC3HC2H2CH3CSC2HC2HCHC4HCH3C2H2CSHC3HSH2C4SH5CH2CH9C3HCHC6PC8H2C8H2SC3SH2CFeH2CFeH2CHC3HC2H2C2HFeCH3C2H2C2HSH7C2HC2H2CHC3HC2H2CHC2H4C4HC3FeC2H2CHCSPHFeSCFeS2FeHFeS4CH3C2HCHFeS2FeSCFeSFeS3C2HC3H2C5H2CHPHSHCH2CHCHC2HC2H2CH6CH3C6H5C3HC3HCPC3HCHC2HCH2C2HC6H2CHC6H4C2H2C3HC2H2CHCPCHC2HCHCHCSC2SH10C4HSC5HCH3CHC4H2PC4SCHCHCH3C5HCH2S2FeSFeSFeS2FeCFeS3FeS2FeS2FeSFeS3FeS2FeH4FeS3FeS2FeS2FeSFeS3FeS2FeS2Fe3S3FeS2FeS2FeSFeS3HFeS2FeS2FeSFeS3H2C8H4CH2CHC2H3C3HCH2C6H4C6H4C6H4CPC3H4CH3C3H4C5H4C6H4C3H2C6H4C2HC8H4C6H5CSHC7H4C4HC5HC4PC5HC2H2C8HCHCHC2H4CHCH7SC5HPSC2H2CH2C2FeH4CHC6PC15H7CH9C6PHC14H5CH3C3H4C6PC18H18SCHC4H2CH2CHC2FeH2FeC2H5C10PC15H17C6H7C2HCHC2H2CHC3HC6HC7PH2CHC2PHC2H3CH2C2H3CH5CHSC3H2CH3C5H4C3HCHCH2CSH5SHCHC3H3SH3CH2PSC9HC4H3CHC3H4CH3C3H2CHCH2SC2PCH2CH2C3HCH3C2HCH2C3PCHC2HC3HC4FeC6H3C3HC2SCH3CH2PH2CHCHCHCH2CH4C10H6C2HC4HCHCHCH2PCH2CH4C3H2CH2C3H2CHSHC2HCHCFeCHC3HFeHSHCH3CH2C3HCH2C3HC2H2C3HCH2C5H2CHCH2C2HC2SHCHSCH2CH3CHCH2C2HC5HCFeHCHC3H3C3H2CH2C2SH2C4HCHC2H2C3H3C3H3SC2HC8H4CH4CH2C6H2C4HC3FeH2SHC2HFeC3HSHCHC2H3CPCH2C2FeHC2HCH3CH3CSH6CH3CHC3SCHCH3CSC7SCFeC2HC4FeHCHC2HC6PSHCH3CHCSH3C8HPH2C7H2CHCHPC2H2CHCHC3PHCHC3H4CHCH2CHCHC5HC2HC2H2CH2C2HCSCH8SC2H2CHSCHPH2C3HC2H2C5HFeH2C5FeCHCHC2HC2H4CFeHC2HC5HSHC3HC4SH2CH2C2H3S2C7HCHCHC2HC3H2C2H3C6HC4H2CH2CH2C6PC2HCHCH3CH2SHCHCPH
_chemical_formula_sum              "H4032 S672 C5040 Fe336 P168"
_cell_length_a       146.343
_cell_length_b       145.435
_cell_length_c       36.081
_cell_angle_alpha    74.4032
_cell_angle_beta     74.5199
_cell_angle_gamma    98.6836

_space_group_name_H-M_alt    "P 1"
_space_group_IT_number       1

loop_
  _space_group_symop_operation_xyz
  'x, y, z'

loop_
  _atom_site_type_symbol
  _atom_site_label
  _atom_site_symmetry_multiplicity
  _atom_site_fract_x
  _atom_site_fract_y
  _atom_site_fract_z
  _atom_site_occupancy
  H   H1        1.0  0.09597  0.48195  0.78198  1.0000
  H   H2        1.0  0.04564  0.39745  0.47937  1.0000
  S   S1        1.0  0.04829  0.47862  0.90313  1.0000
  H   H3        1.0  0.02014  0.42935  0.43102  1.0000
  H   H4        1.0  0.07123  0.40856  0.37334  1.0000
  C   C1        1.0  0.03977  0.48404  0.39158  1.0000
  Fe  Fe1       1.0  0.00985  0.44484  0.39543  1.0000
  C   C2        1.0  0.00543  0.50049  0.86473  1.0000
  S   S2        1.0  0.02557  0.44689  0.35621  1.0000
  H   H5        1.0  0.09222  0.47403  0.98179  1.0000
  C   C3        1.0  0.03667  0.49332  0.43818  1.0000
  H   H6        1.0  0.00533  0.47837  0.27980  1.0000
  H   H7        1.0  0.02830  0.43225  0.53387  1.0000
  H   H8        1.0  0.01109  0.48923  0.79336  1.0000
  H   H9        1.0  0.07442  0.46118  0.28761  1.0000
  Fe  Fe2       1.0  0.01629  0.44956  0.79124  1.0000
  S   S3        1.0  0.01969  0.45528  0.72320  1.0000
  S   S4        1.0  0.02830  0.45025  0.82157  1.0000
  C   C4        1.0  0.00276  0.47659  0.25642  1.0000
  S   S5        1.0  0.08913  0.49520  0.16746  1.0000
  C   C5        1.0  0.05088  0.40360  0.45486  1.0000
  Fe  Fe3       1.0  0.00917  0.44162  0.72878  1.0000
  S   S6        1.0  0.01248  0.43501  0.67756  1.0000
  Fe  Fe4       1.0  0.00630  0.46102  0.73728  1.0000
  P   P1        1.0  0.08042  0.48976  0.75727  1.0000
  S   S7        1.0  0.00705  0.43499  0.79585  1.0000
  C   C6        1.0  0.04892  0.49049  0.37036  1.0000
  C   C7        1.0  0.07047  0.47686  0.49604  1.0000
  C   C8        1.0  0.04259  0.45225  0.57788  1.0000
  C   C9        1.0  0.06609  0.44928  0.34259  1.0000
  C   C10       1.0  0.01529  0.48473  0.70312  1.0000
  C   C11       1.0  0.02061  0.48186  0.72938  1.0000
  C   C12       1.0  0.00565  0.45693  0.91802  1.0000
  C   C13       1.0  0.03034  0.43211  0.50288  1.0000
  H   H10       1.0  0.06210  0.46849  0.55807  1.0000
  H   H11       1.0  0.01963  0.47417  0.74546  1.0000
  S   S8        1.0  0.00672  0.47593  0.69735  1.0000
  C   C14       1.0  0.07616  0.48785  0.68852  1.0000
  C   C15       1.0  0.06499  0.45019  0.27594  1.0000
  P   P2        1.0  0.05539  0.43361  0.41416  1.0000
  C   C16       1.0  0.00652  0.43725  0.64017  1.0000
  C   C17       1.0  0.01147  0.43794  0.59993  1.0000
  C   C18       1.0  0.00674  0.43931  0.57014  1.0000
  H   H12       1.0  0.07745  0.47687  0.50104  1.0000
  H   H13       1.0  0.08793  0.47455  0.05229  1.0000
  H   H14       1.0  0.01900  0.43748  0.59174  1.0000
  H   H15       1.0  0.01334  0.47347  0.35653  1.0000
  C   C19       1.0  0.01154  0.49700  0.02935  1.0000
  H   H16       1.0  0.08155  0.45284  0.47721  1.0000
  C   C20       1.0  0.06339  0.43929  0.43649  1.0000
  H   H17       1.0  0.04895  0.48965  0.12078  1.0000
  C   C21       1.0  0.07995  0.47361  0.72890  1.0000
  H   H18       1.0  0.01270  0.49687  0.66118  1.0000
  C   C22       1.0  0.00890  0.49010  0.82305  1.0000
  C   C23       1.0  0.04272  0.47062  0.88073  1.0000
  C   C24       1.0  0.04556  0.46198  0.87809  1.0000
  C   C25       1.0  0.04108  0.45595  0.85986  1.0000
  C   C26       1.0  0.03364  0.45837  0.84388  1.0000
  C   C27       1.0  0.03072  0.46699  0.84659  1.0000
  C   C28       1.0  0.03518  0.47301  0.86511  1.0000
  H   H19       1.0  0.05108  0.45977  0.89070  1.0000
  H   H20       1.0  0.04336  0.44929  0.85835  1.0000
  H   H21       1.0  0.02501  0.46899  0.83459  1.0000
  H   H22       1.0  0.03275  0.47956  0.86726  1.0000
  C   C29       1.0  0.05228  0.46574  0.36774  1.0000
  C   C30       1.0  0.05208  0.46526  0.32978  1.0000
  C   C31       1.0  0.04386  0.45947  0.32660  1.0000
  C   C32       1.0  0.03550  0.45469  0.36077  1.0000
  C   C33       1.0  0.03549  0.45568  0.39827  1.0000
  C   C34       1.0  0.04393  0.46096  0.40187  1.0000
  H   H23       1.0  0.05843  0.46894  0.30319  1.0000
  H   H24       1.0  0.04400  0.45868  0.29750  1.0000
  H   H25       1.0  0.02915  0.45196  0.42483  1.0000
  H   H26       1.0  0.02645  0.48059  0.44119  1.0000
  C   C35       1.0  0.00392  0.47962  0.18577  1.0000
  H   H27       1.0  0.06716  0.45410  0.24362  1.0000
  C   C36       1.0  0.06909  0.45416  0.30069  1.0000
  H   H28       1.0  0.08194  0.46987  0.75476  1.0000
  H   H29       1.0  0.07143  0.42792  0.44417  1.0000
  H   H30       1.0  0.06930  0.45269  0.36078  1.0000
  C   C37       1.0  0.09204  0.49870  0.73671  1.0000
  Fe  Fe5       1.0  0.08537  0.49394  0.23449  1.0000
  H   H31       1.0  0.04680  0.45876  0.63845  1.0000
  C   C38       1.0  0.06119  0.48144  0.45067  1.0000
  H   H32       1.0  0.09604  0.47005  0.84485  1.0000
  C   C39       1.0  0.03885  0.47908  0.60091  1.0000
  H   H33       1.0  0.07908  0.46106  0.70794  1.0000
  H   H34       1.0  0.06748  0.46860  0.14813  1.0000
  C   C40       1.0  0.03673  0.43574  0.62668  1.0000
  Fe  Fe6       1.0  0.06065  0.48328  0.92849  1.0000
  C   C41       1.0  0.07246  0.48167  0.09560  1.0000
  C   C42       1.0  0.02312  0.43059  0.48502  1.0000
  C   C43       1.0  0.06432  0.41946  0.39137  1.0000
  H   H35       1.0  0.03635  0.45896  0.49918  1.0000
  C   C44       1.0  0.01390  0.46368  0.52495  1.0000
  H   H36       1.0  0.02158  0.45845  0.47821  1.0000
  H   H37       1.0  0.00788  0.46843  0.57583  1.0000
  Fe  Fe7       1.0  0.06869  0.48393  0.00035  1.0000
  Fe  Fe8       1.0  0.07447  0.48421  0.32470  1.0000
  C   C45       1.0  0.02572  0.43039  0.44518  1.0000
  C   C46       1.0  0.03365  0.48546  0.42542  1.0000
  P   P3        1.0  0.04170  0.46488  0.56289  1.0000
  C   C47       1.0  0.09689  0.47923  0.98950  1.0000
  C   C48       1.0  0.09448  0.47953  0.02923  1.0000
  H   H38       1.0  0.04402  0.46133  0.43122  1.0000
  C   C49       1.0  0.07639  0.44898  0.46653  1.0000
  H   H39       1.0  0.01827  0.48731  0.92602  1.0000
  H   H40       1.0  0.11305  0.48045  0.15428  1.0000
  C   C50       1.0  0.04284  0.43317  0.44069  1.0000
  C   C51       1.0  0.04961  0.43896  0.56340  1.0000
  H   H41       1.0  0.09801  0.48685  0.06953  1.0000
  C   C52       1.0  0.00794  0.50098  0.05991  1.0000
  C   C53       1.0  0.01800  0.46358  0.00763  1.0000
  H   H42       1.0  0.05167  0.47833  0.17931  1.0000
  C   C54       1.0  0.07886  0.48329  0.72222  1.0000
  H   H43       1.0  0.06878  0.46058  0.45738  1.0000
  C   C55       1.0  0.04446  0.46554  0.63620  1.0000
  H   H44       1.0  0.03098  0.44805  0.63516  1.0000
  C   C56       1.0  0.05250  0.49262  0.13921  1.0000
  H   H45       1.0  0.08271  0.43644  0.47087  1.0000
  C   C57       1.0  0.03030  0.46135  0.51532  1.0000
  H   H46       1.0  0.11423  0.48452  0.08191  1.0000
  C   C58       1.0  0.07169  0.47614  0.13532  1.0000
  C   C59       1.0  0.04135  0.47840  0.66525  1.0000
  C   C60       1.0  0.02256  0.46696  0.57047  1.0000
  H   H47       1.0  0.06024  0.48499  0.22056  1.0000
  C   C61       1.0  0.04909  0.44879  0.55157  1.0000
  H   H48       1.0  0.06523  0.46649  0.89739  1.0000
  S   S9        1.0  0.06306  0.47138  0.37458  1.0000
  C   C62       1.0  0.00020  0.49000  0.57228  1.0000
  P   P4        1.0  0.01881  0.49120  0.20051  1.0000
  C   C63       1.0  0.02623  0.49386  0.14818  1.0000
  S   S10       1.0  0.08027  0.49721  0.34193  1.0000
  C   C64       1.0  0.05894  0.48997  0.19526  1.0000
  H   H49       1.0  0.13236  0.49685  0.04092  1.0000
  C   C65       1.0  0.01164  0.48043  0.35698  1.0000
  H   H50       1.0  0.07863  0.49576  0.04898  1.0000
  H   H51       1.0  0.03723  0.43171  0.39207  1.0000
  C   C66       1.0  0.02740  0.48619  0.13198  1.0000
  C   C67       1.0  0.03298  0.48824  0.09128  1.0000
  C   C68       1.0  0.00014  0.49074  0.35945  1.0000
  C   C69       1.0  0.02645  0.48755  0.23103  1.0000
  C   C70       1.0  0.02557  0.47757  0.25098  1.0000
  C   C71       1.0  0.03107  0.47485  0.27653  1.0000
  C   C72       1.0  0.03767  0.48203  0.28165  1.0000
  H   H52       1.0  0.07590  0.47592  0.18873  1.0000
  C   C73       1.0  0.03335  0.49471  0.23521  1.0000
  H   H53       1.0  0.04182  0.47992  0.30192  1.0000
  C   C74       1.0  0.11397  0.49023  0.09596  1.0000
  C   C75       1.0  0.08206  0.48998  0.14187  1.0000
  S   S11       1.0  0.07029  0.49302  0.27347  1.0000
  C   C76       1.0  0.01667  0.49469  0.68210  1.0000
  H   H54       1.0  0.02406  0.47860  0.15089  1.0000
  H   H55       1.0  0.03391  0.48228  0.07897  1.0000
  H   H56       1.0  0.00394  0.48640  0.55228  1.0000
  H   H57       1.0  0.02053  0.47185  0.24754  1.0000
  H   H58       1.0  0.03006  0.46714  0.29291  1.0000
  C   C77       1.0  0.06177  0.47217  0.52822  1.0000
  C   C78       1.0  0.05902  0.44028  0.36017  1.0000
  S   S12       1.0  0.00668  0.45566  0.42831  1.0000
  C   C79       1.0  0.07177  0.47663  0.83642  1.0000
  H   H59       1.0  0.05371  0.45365  0.52187  1.0000
  C   C80       1.0  0.08059  0.46733  0.87470  1.0000
  C   C81       1.0  0.05659  0.42119  0.41930  1.0000
  C   C82       1.0  0.11344  0.48791  0.13682  1.0000
  H   H60       1.0  0.04997  0.42915  0.34709  1.0000
  H   H61       1.0  0.06493  0.47842  0.83495  1.0000
  H   H62       1.0  0.10693  0.48573  0.92846  1.0000
  H   H63       1.0  0.03213  0.48652  0.95200  1.0000
  C   C83       1.0  0.03551  0.43173  0.42301  1.0000
  H   H64       1.0  0.03224  0.47138  0.00306  1.0000
  H   H65       1.0  0.04201  0.49952  0.03531  1.0000
  C   C84       1.0  0.08917  0.47862  0.80682  1.0000
  H   H66       1.0  0.07689  0.48487  0.43188  1.0000
  C   C85       1.0  0.07017  0.48138  0.45714  1.0000
  C   C86       1.0  0.06262  0.44841  0.44147  1.0000
  H   H67       1.0  0.05363  0.48936  0.34414  1.0000
  H   H68       1.0  0.01010  0.44519  0.89755  1.0000
  Fe  Fe9       1.0  0.08264  0.49256  0.91331  1.0000
  C   C87       1.0  0.01681  0.49733  0.35448  1.0000
  C   C88       1.0  0.07187  0.46975  0.87173  1.0000
  H   H69       1.0  0.07423  0.46917  0.64882  1.0000
  C   C89       1.0  0.02813  0.49897  0.71600  1.0000
  H   H70       1.0  0.00969  0.48911  0.03552  1.0000
  C   C90       1.0  0.02583  0.48032  0.96418  1.0000
  C   C91       1.0  0.03884  0.49196  0.26085  1.0000
  C   C92       1.0  0.08285  0.49548  0.10214  1.0000
  H   H71       1.0  0.03105  0.48673  0.75647  1.0000
  H   H72       1.0  0.01816  0.45687  0.02943  1.0000
  H   H73       1.0  0.00733  0.46314  0.51635  1.0000
  S   S13       1.0  0.05606  0.48858  0.98252  1.0000
  H   H74       1.0  0.05712  0.45189  0.43290  1.0000
  H   H75       1.0  0.01297  0.46011  0.91661  1.0000
  H   H76       1.0  0.05485  0.43813  0.27379  1.0000
  C   C93       1.0  0.10518  0.48581  0.95951  1.0000
  C   C94       1.0  0.07797  0.49141  0.07936  1.0000
  C   C95       1.0  0.01007  0.46393  0.99302  1.0000
  C   C96       1.0  0.11104  0.49273  0.96914  1.0000
  H   H77       1.0  0.04393  0.49751  0.26502  1.0000
  C   C97       1.0  0.04151  0.47011  0.60323  1.0000
  C   C98       1.0  0.03081  0.46463  0.54809  1.0000
  C   C99       1.0  0.00998  0.47250  0.96370  1.0000
  C   C100      1.0  0.07557  0.47313  0.66909  1.0000
  C   C101      1.0  0.05855  0.40193  0.42681  1.0000
  C   C102      1.0  0.03628  0.44560  0.61510  1.0000
  C   C103      1.0  0.02712  0.48898  0.73541  1.0000
  C   C104      1.0  0.05517  0.43621  0.33477  1.0000
  C   C105      1.0  0.03860  0.48311  0.63221  1.0000
  C   C106      1.0  0.05270  0.47196  0.52165  1.0000
  C   C107      1.0  0.07063  0.43494  0.44761  1.0000
  C   C108      1.0  0.01898  0.48833  0.35356  1.0000
  C   C109      1.0  0.06528  0.40986  0.39512  1.0000
  C   C110      1.0  0.02194  0.46100  0.50350  1.0000
  C   C111      1.0  0.00405  0.44844  0.90719  1.0000
  H   H78       1.0  0.02629  0.48744  0.35080  1.0000
  H   H79       1.0  0.04628  0.46593  0.69320  1.0000
  C   C112      1.0  0.07831  0.46856  0.70239  1.0000
  H   H80       1.0  0.05476  0.43638  0.54329  1.0000
  C   C113      1.0  0.00215  0.48159  0.36076  1.0000
  S   S14       1.0  0.07941  0.49845  0.96557  1.0000
  C   C114      1.0  0.01793  0.48071  0.94944  1.0000
  C   C115      1.0  0.01421  0.46662  0.55851  1.0000
  H   H81       1.0  0.02022  0.49994  0.96752  1.0000
  C   C116      1.0  0.05247  0.47682  0.48274  1.0000
  C   C117      1.0  0.05805  0.44121  0.29298  1.0000
  H   H82       1.0  0.03176  0.43067  0.65553  1.0000
  C   C118      1.0  0.04990  0.41320  0.45123  1.0000
  H   H83       1.0  0.03609  0.48977  0.63146  1.0000
  H   H84       1.0  0.04555  0.43412  0.49589  1.0000
  C   C119      1.0  0.04342  0.43242  0.60096  1.0000
  S   S15       1.0  0.08938  0.48425  0.28517  1.0000
  H   H85       1.0  0.06961  0.42553  0.36667  1.0000
  H   H86       1.0  0.08065  0.46213  0.90247  1.0000
  H   H87       1.0  0.02239  0.46879  0.59775  1.0000
  H   H88       1.0  0.03733  0.47805  0.38133  1.0000
  S   S16       1.0  0.06673  0.47606  0.06682  1.0000
  H   H89       1.0  0.01066  0.44004  0.53919  1.0000
  H   H90       1.0  0.04388  0.41432  0.47326  1.0000
  H   H91       1.0  0.04565  0.47698  0.47662  1.0000
  C   C120      1.0  0.10866  0.49311  0.00901  1.0000
  H   H92       1.0  0.03677  0.48288  0.57535  1.0000
  S   S17       1.0  0.07265  0.47744  0.94947  1.0000
  C   C121      1.0  0.06919  0.45331  0.45571  1.0000
  H   H93       1.0  0.05928  0.39448  0.42959  1.0000
  C   C122      1.0  0.02591  0.47175  0.99302  1.0000
  C   C123      1.0  0.08924  0.47178  0.84228  1.0000
  C   C124      1.0  0.04014  0.43330  0.48099  1.0000
  H   H94       1.0  0.06101  0.48496  0.42044  1.0000
  C   C125      1.0  0.04432  0.46965  0.66714  1.0000
  H   H95       1.0  0.01549  0.42954  0.50192  1.0000
  H   H96       1.0  0.04106  0.48146  0.68969  1.0000
  C   C126      1.0  0.07707  0.43976  0.46279  1.0000
  C   C127      1.0  0.10028  0.48648  0.03895  1.0000
  C   C128      1.0  0.08045  0.48119  0.80383  1.0000
  C   C129      1.0  0.00657  0.48194  0.85790  1.0000
  C   C130      1.0  0.07643  0.48029  0.15847  1.0000
  C   C131      1.0  0.05407  0.48622  0.17214  1.0000
  H   H97       1.0  0.04370  0.42477  0.61008  1.0000
  C   C132      1.0  0.07034  0.49558  0.76681  1.0000
  C   C133      1.0  0.07451  0.48278  0.66214  1.0000
  H   H98       1.0  0.11263  0.49336  0.18733  1.0000
  C   C134      1.0  0.00742  0.49857  0.35668  1.0000
  C   C135      1.0  0.00786  0.48163  0.21507  1.0000
  C   C136      1.0  0.04585  0.49994  0.41672  1.0000
  H   H99       1.0  0.11722  0.49795  0.94500  1.0000
  H   H100      1.0  0.07674  0.49964  0.47516  1.0000
  H   H101      1.0  0.00712  0.47486  0.85437  1.0000
  S   S18       1.0  0.00344  0.45628  0.80467  1.0000
  H   H102      1.0  0.00324  0.49620  0.08976  1.0000
  S   S19       1.0  0.09800  0.49593  0.86820  1.0000
  H   H103      1.0  0.03172  0.49417  0.46441  1.0000
  C   C137      1.0  0.11326  0.49519  0.15542  1.0000
  H   H104      1.0  0.01569  0.49896  0.26928  1.0000
  Fe  Fe10      1.0  0.09489  0.49813  0.29839  1.0000
  C   C138      1.0  0.05195  0.49842  0.38274  1.0000
  H   H105      1.0  0.07231  0.48630  0.63650  1.0000
  H   H106      1.0  0.00737  0.48377  0.15386  1.0000
  C   C139      1.0  0.05349  0.49568  0.77088  1.0000
  C   C140      1.0  0.00305  0.49236  0.89971  1.0000
  H   H107      1.0  0.07522  0.49530  0.68300  1.0000
  P   P5        1.0  0.00015  0.47254  0.94205  1.0000
  C   C141      1.0  0.00832  0.49936  0.82641  1.0000
  C   C142      1.0  0.00354  0.48301  0.89654  1.0000
  H   H108      1.0  0.00414  0.45743  0.00373  1.0000
  S   S20       1.0  0.07105  0.49784  0.88923  1.0000
  H   H109      1.0  0.05977  0.48352  0.76580  1.0000
  C   C143      1.0  0.11420  0.49984  0.07346  1.0000
  C   C144      1.0  0.06110  0.49088  0.76781  1.0000
  H   H110      1.0  0.00027  0.47945  0.62697  1.0000
  H   H111      1.0  0.04642  0.49210  0.77100  1.0000
  C   C145      1.0  0.03757  0.49795  0.06669  1.0000
  H   H112      1.0  0.04290  0.49559  0.85283  1.0000
  H   H113      1.0  0.00078  0.49336  0.92919  1.0000
  H   H114      1.0  0.09544  0.49771  0.67578  1.0000
  C   C146      1.0  0.13483  0.50148  0.00949  1.0000
  C   C147      1.0  0.06230  0.50013  0.18527  1.0000
  H   H115      1.0  0.05945  0.49823  0.47881  1.0000
  H   H116      1.0  0.00244  0.49891  0.75353  1.0000
  H   H117      1.0  0.14971  0.50033  0.00107  1.0000
  H   H118      1.0  0.09139  0.50098  0.79430  1.0000
  C   C148      1.0  0.09797  0.50084  0.69629  1.0000
  C   C149      1.0  0.04029  0.50090  0.86636  1.0000
  H   H119      1.0  0.02858  0.50162  0.84086  1.0000
  C   C150      1.0  0.01462  0.50177  0.20853  1.0000
  C   C151      1.0  0.02301  0.50183  0.68888  1.0000
  H   H120      1.0  0.05137  0.50182  0.89502  1.0000
  H   H121      1.0  0.99909  0.50171  0.52347  1.0000
  S   S21       1.0  0.99912  0.43167  0.44652  1.0000
  H   H122      1.0  0.02929  0.51103  0.45957  1.0000
  C   C152      1.0  0.12534  0.51223  0.32294  1.0000
  S   S22       1.0  0.07017  0.51861  0.28738  1.0000
  H   H123      1.0  0.02219  0.51304  0.87472  1.0000
  H   H124      1.0  0.09256  0.54876  0.77641  1.0000
  H   H125      1.0  0.00600  0.54046  0.84039  1.0000
  C   C153      1.0  0.20942  0.66303  0.34504  1.0000
  S   S23       1.0  0.00808  0.52359  0.50342  1.0000
  H   H126      1.0  0.18978  0.64988  0.56859  1.0000
  S   S24       1.0  0.09205  0.50768  0.24430  1.0000
  Fe  Fe11      1.0  0.15094  0.53837  0.47965  1.0000
  S   S25       1.0  0.16194  0.55135  0.43057  1.0000
  S   S26       1.0  0.14618  0.53714  0.54710  1.0000
  Fe  Fe12      1.0  0.14280  0.53105  0.41759  1.0000
  S   S27       1.0  0.15327  0.54369  0.36474  1.0000
  S   S28       1.0  0.12901  0.52042  0.41988  1.0000
  Fe  Fe13      1.0  0.16477  0.54104  0.39499  1.0000
  S   S29       1.0  0.18024  0.54320  0.35251  1.0000
  Fe  Fe14      1.0  0.14989  0.55311  0.40393  1.0000
  S   S30       1.0  0.14654  0.56765  0.37945  1.0000
  S   S31       1.0  0.15450  0.52755  0.44617  1.0000
  S   S32       1.0  0.13870  0.54095  0.45452  1.0000
  Fe  Fe15      1.0  0.16204  0.61381  0.42556  1.0000
  S   S33       1.0  0.16188  0.62258  0.36453  1.0000
  S   S34       1.0  0.16625  0.59941  0.44158  1.0000
  Fe  Fe16      1.0  0.15407  0.62769  0.46852  1.0000
  H   H127      1.0  0.05402  0.50762  0.10515  1.0000
  H   H128      1.0  0.07326  0.54316  0.97830  1.0000
  Fe  Fe17      1.0  0.14691  0.62350  0.39803  1.0000
  S   S35       1.0  0.13295  0.61932  0.38121  1.0000
  H   H129      1.0  0.10571  0.52361  0.80755  1.0000
  S   S36       1.0  0.14694  0.61406  0.45875  1.0000
  H   H130      1.0  0.05887  0.51669  0.23047  1.0000
  Fe  Fe18      1.0  0.09932  0.57027  0.24386  1.0000
  S   S37       1.0  0.09611  0.57679  0.29398  1.0000
  S   S38       1.0  0.10339  0.55576  0.25427  1.0000
  Fe  Fe19      1.0  0.09757  0.58793  0.18121  1.0000
  S   S39       1.0  0.09423  0.59604  0.22693  1.0000
  S   S40       1.0  0.09890  0.59423  0.11424  1.0000
  Fe  Fe20      1.0  0.10635  0.59088  0.24879  1.0000
  S   S41       1.0  0.12014  0.59916  0.25743  1.0000
  Fe  Fe21      1.0  0.08431  0.58129  0.26893  1.0000
  S   S42       1.0  0.06912  0.57803  0.31472  1.0000
  S   S43       1.0  0.11026  0.58382  0.19978  1.0000
  S   S44       1.0  0.08692  0.57376  0.22179  1.0000
  H   H131      1.0  0.16627  0.64434  0.50909  1.0000
  H   H132      1.0  0.18532  0.58669  0.04363  1.0000
  S   S45       1.0  0.03545  0.50778  0.72731  1.0000
  C   C154      1.0  0.01017  0.53715  0.85875  1.0000
  C   C155      1.0  0.02864  0.51077  0.87909  1.0000
  S   S46       1.0  0.06288  0.51686  0.94209  1.0000
  S   S47       1.0  0.04572  0.54757  0.76134  1.0000
  C   C156      1.0  0.20848  0.66367  0.30687  1.0000
  C   C157      1.0  0.03668  0.50561  0.08291  1.0000
  C   C158      1.0  0.03917  0.54006  0.92347  1.0000
  H   H133      1.0  0.01578  0.57847  0.18257  1.0000
  Fe  Fe22      1.0  0.16433  0.54271  0.72830  1.0000
  S   S48       1.0  0.14971  0.54640  0.74270  1.0000
  S   S49       1.0  0.17024  0.53863  0.67082  1.0000
  Fe  Fe23      1.0  0.16900  0.54809  0.80065  1.0000
  S   S50       1.0  0.15461  0.55211  0.81844  1.0000
  S   S51       1.0  0.17838  0.54807  0.84321  1.0000
  Fe  Fe24      1.0  0.14780  0.53844  0.80792  1.0000
  S   S52       1.0  0.13330  0.52953  0.85690  1.0000
  Fe  Fe25      1.0  0.15778  0.55950  0.75209  1.0000
  S   S53       1.0  0.15495  0.57427  0.72645  1.0000
  S   S54       1.0  0.16203  0.53384  0.79370  1.0000
  S   S55       1.0  0.17262  0.55644  0.73398  1.0000
  Fe  Fe26      1.0  0.22745  0.60319  0.91584  1.0000
  Fe  Fe27      1.0  0.17725  0.62152  0.74792  1.0000
  S   S56       1.0  0.17306  0.62499  0.80614  1.0000
  S   S57       1.0  0.18376  0.60867  0.74294  1.0000
  Fe  Fe28      1.0  0.16002  0.62855  0.78870  1.0000
  S   S58       1.0  0.14517  0.62286  0.83831  1.0000
  S   S59       1.0  0.16359  0.62366  0.73373  1.0000
  C   C159      1.0  0.09291  0.52907  0.16652  1.0000
  Fe  Fe29      1.0  0.09251  0.56674  0.87505  1.0000
  S   S60       1.0  0.08942  0.57827  0.82846  1.0000
  S   S61       1.0  0.09824  0.55424  0.86093  1.0000
  Fe  Fe30      1.0  0.08526  0.57509  0.94308  1.0000
  S   S62       1.0  0.08104  0.58724  0.90165  1.0000
  S   S63       1.0  0.08313  0.56985  0.01123  1.0000
  Fe  Fe31      1.0  0.07512  0.57567  0.87661  1.0000
  S   S64       1.0  0.06061  0.57355  0.86272  1.0000
  Fe  Fe32      1.0  0.09573  0.58876  0.85630  1.0000
  S   S65       1.0  0.10696  0.60242  0.81064  1.0000
  S   S66       1.0  0.07799  0.56355  0.92226  1.0000
  S   S67       1.0  0.10011  0.57728  0.89869  1.0000
  Fe  Fe33      1.0  0.24513  0.58838  0.20901  1.0000
  C   C160      1.0  0.01088  0.51213  0.25053  1.0000
  H   H134      1.0  0.08974  0.51323  0.42077  1.0000
  Fe  Fe34      1.0  0.23172  0.58159  0.29630  1.0000
  S   S68       1.0  0.23892  0.59489  0.30794  1.0000
  S   S69       1.0  0.21886  0.57102  0.35018  1.0000
  Fe  Fe35      1.0  0.23871  0.60349  0.24707  1.0000
  S   S70       1.0  0.23471  0.61807  0.23618  1.0000
  C   C161      1.0  0.01278  0.52447  0.57140  1.0000
  S   S71       1.0  0.23033  0.59051  0.23752  1.0000
  H   H135      1.0  0.23873  0.63099  0.32880  1.0000
  Fe  Fe36      1.0  0.22440  0.58496  0.98698  1.0000
  S   S72       1.0  0.21894  0.57984  0.05599  1.0000
  Fe  Fe37      1.0  0.22022  0.58281  0.90922  1.0000
  S   S73       1.0  0.21058  0.57852  0.87195  1.0000
  H   H136      1.0  0.06327  0.53996  0.10545  1.0000
  S   S74       1.0  0.21448  0.59068  0.95308  1.0000
  C   C162      1.0  0.24117  0.58407  0.12295  1.0000
  C   C163      1.0  0.23113  0.58130  0.14394  1.0000
  C   C164      1.0  0.22439  0.57987  0.12324  1.0000
  C   C165      1.0  0.22762  0.58140  0.08125  1.0000
  H   H137      1.0  0.22854  0.58012  0.17623  1.0000
  H   H138      1.0  0.21664  0.57764  0.13976  1.0000
  C   C166      1.0  0.09153  0.52134  0.15089  1.0000
  P   P6        1.0  0.06396  0.51967  0.14357  1.0000
  H   H139      1.0  0.21716  0.56738  0.49669  1.0000
  H   H140      1.0  0.24026  0.58517  0.02811  1.0000
  H   H141      1.0  0.07115  0.53513  0.17396  1.0000
  H   H142      1.0  0.22183  0.55174  0.51904  1.0000
  H   H143      1.0  0.01006  0.50567  0.79935  1.0000
  C   C167      1.0  0.05655  0.56613  0.83505  1.0000
  C   C168      1.0  0.04700  0.56531  0.83277  1.0000
  C   C169      1.0  0.04349  0.55958  0.81107  1.0000
  C   C170      1.0  0.04953  0.55463  0.79084  1.0000
  C   C171      1.0  0.05906  0.55541  0.79337  1.0000
  C   C172      1.0  0.06251  0.56103  0.81550  1.0000
  H   H144      1.0  0.04228  0.56919  0.84779  1.0000
  H   H145      1.0  0.03618  0.55917  0.80942  1.0000
  H   H146      1.0  0.06383  0.55162  0.77821  1.0000
  H   H147      1.0  0.06981  0.56144  0.81729  1.0000
  C   C173      1.0  0.13453  0.61762  0.82950  1.0000
  C   C174      1.0  0.13487  0.61644  0.79200  1.0000
  C   C175      1.0  0.12641  0.61170  0.78679  1.0000
  C   C176      1.0  0.11751  0.60804  0.81897  1.0000
  C   C177      1.0  0.11712  0.60936  0.85630  1.0000
  C   C178      1.0  0.12558  0.61420  0.86139  1.0000
  H   H148      1.0  0.14167  0.61911  0.76706  1.0000
  H   H149      1.0  0.12685  0.61071  0.75788  1.0000
  H   H150      1.0  0.11027  0.60681  0.88102  1.0000
  H   H151      1.0  0.12519  0.61527  0.89027  1.0000
  C   C179      1.0  0.18703  0.55686  0.85125  1.0000
  C   C180      1.0  0.19072  0.55372  0.88363  1.0000
  C   C181      1.0  0.19777  0.56023  0.89080  1.0000
  C   C182      1.0  0.20135  0.57003  0.86542  1.0000
  C   C183      1.0  0.19754  0.57324  0.83344  1.0000
  C   C184      1.0  0.19042  0.56674  0.82645  1.0000
  H   H152      1.0  0.18820  0.54613  0.90309  1.0000
  H   H153      1.0  0.20058  0.55760  0.91551  1.0000
  H   H154      1.0  0.20015  0.58081  0.81374  1.0000
  H   H155      1.0  0.18767  0.56935  0.80154  1.0000
  C   C185      1.0  0.17603  0.59919  0.73664  1.0000
  C   C186      1.0  0.16939  0.60124  0.71579  1.0000
  C   C187      1.0  0.16298  0.59355  0.71241  1.0000
  C   C188      1.0  0.16320  0.58378  0.72988  1.0000
  C   C189      1.0  0.16997  0.58171  0.75006  1.0000
  C   C190      1.0  0.17644  0.58943  0.75313  1.0000
  H   H156      1.0  0.16925  0.60876  0.70196  1.0000
  H   H157      1.0  0.15780  0.59516  0.69657  1.0000
  H   H158      1.0  0.17015  0.57418  0.76372  1.0000
  H   H159      1.0  0.18159  0.58781  0.76920  1.0000
  H   H160      1.0  0.24273  0.65568  0.54198  1.0000
  C   C191      1.0  0.11671  0.50780  0.83354  1.0000
  C   C192      1.0  0.12455  0.51536  0.82975  1.0000
  C   C193      1.0  0.12352  0.52051  0.85767  1.0000
  C   C194      1.0  0.11452  0.51813  0.88884  1.0000
  C   C195      1.0  0.10665  0.51072  0.89218  1.0000
  C   C196      1.0  0.00535  0.53055  0.89794  1.0000
  H   H161      1.0  0.13146  0.51701  0.80593  1.0000
  H   H162      1.0  0.11364  0.52204  0.91067  1.0000
  C   C197      1.0  0.21401  0.63267  0.21437  1.0000
  C   C198      1.0  0.07281  0.52713  0.91802  1.0000
  C   C199      1.0  0.08223  0.52627  0.91740  1.0000
  C   C200      1.0  0.09007  0.53458  0.89944  1.0000
  C   C201      1.0  0.08853  0.54377  0.88155  1.0000
  C   C202      1.0  0.07914  0.54460  0.88145  1.0000
  C   C203      1.0  0.07128  0.53629  0.89977  1.0000
  H   H163      1.0  0.08347  0.51924  0.93147  1.0000
  H   H164      1.0  0.09724  0.53390  0.90049  1.0000
  H   H165      1.0  0.07791  0.55164  0.86707  1.0000
  H   H166      1.0  0.06405  0.53696  0.89929  1.0000
  C   C204      1.0  0.05877  0.57059  0.31119  1.0000
  C   C205      1.0  0.05873  0.56878  0.27513  1.0000
  C   C206      1.0  0.05010  0.56361  0.27247  1.0000
  C   C207      1.0  0.21462  0.60382  0.81982  1.0000
  S   S75       1.0  0.00393  0.51481  0.41790  1.0000
  C   C208      1.0  0.07969  0.51961  0.39424  1.0000
  H   H167      1.0  0.06523  0.57168  0.24882  1.0000
  H   H168      1.0  0.05012  0.56233  0.24447  1.0000
  H   H169      1.0  0.17909  0.56442  0.17115  1.0000
  H   H170      1.0  0.00494  0.50767  0.86723  1.0000
  C   C209      1.0  0.09446  0.58734  0.08608  1.0000
  C   C210      1.0  0.09024  0.57723  0.10303  1.0000
  C   C211      1.0  0.08674  0.57202  0.07984  1.0000
  C   C212      1.0  0.08747  0.57683  0.03936  1.0000
  C   C213      1.0  0.09166  0.58694  0.02242  1.0000
  C   C214      1.0  0.09515  0.59215  0.04566  1.0000
  H   H171      1.0  0.08968  0.57342  0.13399  1.0000
  H   H172      1.0  0.08348  0.56421  0.09333  1.0000
  H   H173      1.0  0.09226  0.59076  0.99136  1.0000
  H   H174      1.0  0.09840  0.59997  0.03221  1.0000
  C   C215      1.0  0.07131  0.53868  0.00987  1.0000
  Fe  Fe38      1.0  0.99976  0.52570  0.37173  1.0000
  H   H175      1.0  0.12992  0.51208  0.29421  1.0000
  H   H176      1.0  0.06765  0.55024  0.03349  1.0000
  C   C216      1.0  0.06556  0.53675  0.08170  1.0000
  C   C217      1.0  0.12350  0.60473  0.29236  1.0000
  C   C218      1.0  0.13344  0.60728  0.28927  1.0000
  C   C219      1.0  0.13647  0.61157  0.31633  1.0000
  C   C220      1.0  0.12961  0.61357  0.34673  1.0000
  C   C221      1.0  0.11967  0.61104  0.34974  1.0000
  C   C222      1.0  0.11663  0.60662  0.32308  1.0000
  H   H177      1.0  0.13887  0.60592  0.26576  1.0000
  H   H178      1.0  0.14413  0.61346  0.31330  1.0000
  H   H179      1.0  0.11427  0.61256  0.37287  1.0000
  H   H180      1.0  0.10897  0.60478  0.32604  1.0000
  C   C223      1.0  0.15321  0.53779  0.58007  1.0000
  C   C224      1.0  0.16313  0.53772  0.56929  1.0000
  C   C225      1.0  0.16823  0.53788  0.59744  1.0000
  C   C226      1.0  0.16352  0.53824  0.63639  1.0000
  C   C227      1.0  0.15365  0.53845  0.64678  1.0000
  C   C228      1.0  0.14853  0.53817  0.61891  1.0000
  H   H181      1.0  0.16681  0.53737  0.53961  1.0000
  H   H182      1.0  0.17586  0.53771  0.58900  1.0000
  H   H183      1.0  0.14990  0.53868  0.67651  1.0000
  H   H184      1.0  0.14087  0.53818  0.62768  1.0000
  C   C229      1.0  0.19073  0.55152  0.35085  1.0000
  C   C230      1.0  0.19918  0.55461  0.31648  1.0000
  C   C231      1.0  0.20777  0.56083  0.31514  1.0000
  C   C232      1.0  0.20805  0.56385  0.34864  1.0000
  C   C233      1.0  0.19960  0.56075  0.38294  1.0000
  C   C234      1.0  0.19097  0.55474  0.38381  1.0000
  H   H185      1.0  0.19911  0.55211  0.29087  1.0000
  H   H186      1.0  0.21422  0.56306  0.28864  1.0000
  H   H187      1.0  0.19975  0.56290  0.40925  1.0000
  H   H188      1.0  0.18458  0.55228  0.41048  1.0000
  C   C235      1.0  0.15157  0.57652  0.39770  1.0000
  C   C236      1.0  0.15486  0.57369  0.43102  1.0000
  C   C237      1.0  0.15918  0.58077  0.44474  1.0000
  C   C238      1.0  0.16022  0.59074  0.42527  1.0000
  C   C239      1.0  0.15665  0.59362  0.39271  1.0000
  C   C240      1.0  0.15236  0.58651  0.37877  1.0000
  H   H189      1.0  0.15379  0.56602  0.44715  1.0000
  H   H190      1.0  0.16157  0.57851  0.47094  1.0000
  H   H191      1.0  0.15730  0.60132  0.37791  1.0000
  H   H192      1.0  0.14972  0.58874  0.35320  1.0000
  H   H193      1.0  0.07096  0.51904  0.65760  1.0000
  H   H194      1.0  0.04005  0.51814  0.98545  1.0000
  H   H195      1.0  0.12695  0.51451  0.93570  1.0000
  C   C241      1.0  0.03872  0.54096  0.47441  1.0000
  C   C242      1.0  0.21625  0.63141  0.79800  1.0000
  C   C243      1.0  0.01264  0.52995  0.53299  1.0000
  S   S76       1.0  0.17268  0.64652  0.63453  1.0000
  C   C244      1.0  0.07674  0.53118  0.16784  1.0000
  C   C245      1.0  0.24893  0.66038  0.15303  1.0000
  H   H196      1.0  0.10053  0.53668  0.97228  1.0000
  H   H197      1.0  0.23813  0.61914  0.04868  1.0000
  H   H198      1.0  0.20569  0.64278  0.73141  1.0000
  C   C246      1.0  0.12967  0.51623  0.34768  1.0000
  C   C247      1.0  0.12391  0.51626  0.38550  1.0000
  C   C248      1.0  0.11373  0.51235  0.39768  1.0000
  C   C249      1.0  0.10938  0.50851  0.37261  1.0000
  H   H199      1.0  0.00749  0.51426  0.07543  1.0000
  H   H200      1.0  0.13749  0.51908  0.33791  1.0000
  H   H201      1.0  0.10919  0.51223  0.42694  1.0000
  H   H202      1.0  0.23032  0.63721  0.80116  1.0000
  C   C250      1.0  0.07911  0.52891  0.28082  1.0000
  C   C251      1.0  0.08836  0.52789  0.28222  1.0000
  C   C252      1.0  0.09574  0.53618  0.27414  1.0000
  C   C253      1.0  0.09386  0.54553  0.26538  1.0000
  C   C254      1.0  0.08450  0.54654  0.26536  1.0000
  C   C255      1.0  0.07712  0.53823  0.27301  1.0000
  H   H203      1.0  0.08986  0.52070  0.28963  1.0000
  H   H204      1.0  0.10294  0.53536  0.27446  1.0000
  H   H205      1.0  0.08291  0.55367  0.25957  1.0000
  H   H206      1.0  0.06994  0.53904  0.27232  1.0000
  H   H207      1.0  0.21054  0.53800  0.57901  1.0000
  C   C256      1.0  0.12766  0.59509  0.93891  1.0000
  C   C257      1.0  0.11855  0.58986  0.94150  1.0000
  C   C258      1.0  0.11270  0.58259  0.97777  1.0000
  C   C259      1.0  0.11583  0.58066  0.01187  1.0000
  C   C260      1.0  0.12500  0.58585  0.00937  1.0000
  C   C261      1.0  0.13084  0.59313  0.97275  1.0000
  P   P7        1.0  0.12956  0.58329  0.05187  1.0000
  C   C262      1.0  0.12215  0.57198  0.09089  1.0000
  C   C263      1.0  0.12540  0.56324  0.09685  1.0000
  C   C264      1.0  0.11963  0.55467  0.12818  1.0000
  C   C265      1.0  0.11063  0.55477  0.15378  1.0000
  C   C266      1.0  0.10734  0.56340  0.14789  1.0000
  C   C267      1.0  0.11307  0.57198  0.11667  1.0000
  C   C268      1.0  0.07174  0.59203  0.15401  1.0000
  C   C269      1.0  0.11633  0.59791  0.62866  1.0000
  H   H208      1.0  0.10566  0.57854  0.97958  1.0000
  H   H209      1.0  0.11105  0.57515  0.03984  1.0000
  H   H210      1.0  0.12222  0.54799  0.13332  1.0000
  H   H211      1.0  0.10630  0.54823  0.17893  1.0000
  H   H212      1.0  0.10045  0.56351  0.16836  1.0000
  H   H213      1.0  0.11046  0.57866  0.11301  1.0000
  H   H214      1.0  0.13802  0.57264  0.99903  1.0000
  H   H215      1.0  0.23388  0.64615  0.67227  1.0000
  C   C270      1.0  0.01155  0.50780  0.17907  1.0000
  C   C271      1.0  0.01752  0.50319  0.99068  1.0000
  C   C272      1.0  0.11658  0.52313  0.99490  1.0000
  H   H216      1.0  0.24720  0.60141  0.48703  1.0000
  H   H217      1.0  0.04907  0.50888  0.77593  1.0000
  H   H218      1.0  0.23374  0.65254  0.74409  1.0000
  H   H219      1.0  0.06911  0.54199  0.73762  1.0000
  C   C273      1.0  0.04924  0.52172  0.39538  1.0000
  H   H220      1.0  0.03413  0.52686  0.52078  1.0000
  C   C274      1.0  0.04160  0.51100  0.90900  1.0000
  C   C275      1.0  0.03115  0.50357  0.12364  1.0000
  H   H221      1.0  0.00613  0.52078  0.16201  1.0000
  C   C276      1.0  0.19771  0.66545  0.81232  1.0000
  C   C277      1.0  0.14169  0.51322  0.92779  1.0000
  C   C278      1.0  0.07874  0.53503  0.70331  1.0000
  H   H222      1.0  0.21864  0.64436  0.09640  1.0000
  H   H223      1.0  0.99942  0.53754  0.66287  1.0000
  C   C279      1.0  0.06501  0.50435  0.45563  1.0000
  H   H224      1.0  0.00070  0.50513  0.68605  1.0000
  H   H225      1.0  0.23104  0.62940  0.00241  1.0000
  C   C280      1.0  0.20682  0.64946  0.19463  1.0000
  C   C281      1.0  0.09572  0.50272  0.76266  1.0000
  C   C282      1.0  0.07002  0.52321  0.05988  1.0000
  C   C283      1.0  0.04580  0.52407  0.16723  1.0000
  C   C284      1.0  0.07962  0.56746  0.40849  1.0000
  P   P8        1.0  0.20821  0.62515  0.15848  1.0000
  P   P9        1.0  0.22233  0.66018  0.69192  1.0000
  C   C285      1.0  0.06393  0.50962  0.77522  1.0000
  H   H226      1.0  0.21990  0.64925  0.36323  1.0000
  C   C286      1.0  0.08858  0.55194  0.72105  1.0000
  C   C287      1.0  0.11075  0.51365  0.00477  1.0000
  C   C288      1.0  0.23023  0.64103  0.34447  1.0000
  C   C289      1.0  0.04163  0.52598  0.97029  1.0000
  C   C290      1.0  0.14665  0.54095  0.92388  1.0000
  C   C291      1.0  0.15492  0.54652  0.92685  1.0000
  C   C292      1.0  0.15577  0.55651  0.92182  1.0000
  C   C293      1.0  0.14846  0.56100  0.91273  1.0000
  C   C294      1.0  0.14046  0.55559  0.90690  1.0000
  C   C295      1.0  0.13942  0.54545  0.91420  1.0000
  P   P10       1.0  0.13142  0.56142  0.89128  1.0000
  C   C296      1.0  0.12786  0.55612  0.85569  1.0000
  C   C297      1.0  0.12120  0.55955  0.93613  1.0000
  C   C298      1.0  0.11174  0.55912  0.93374  1.0000
  C   C299      1.0  0.10385  0.55765  0.96848  1.0000
  C   C300      1.0  0.10536  0.55671  0.00580  1.0000
  C   C301      1.0  0.11477  0.55721  0.00846  1.0000
  C   C302      1.0  0.12267  0.55867  0.97375  1.0000
  C   C303      1.0  0.13295  0.56026  0.81379  1.0000
  C   C304      1.0  0.13035  0.55613  0.78621  1.0000
  C   C305      1.0  0.12276  0.54771  0.80029  1.0000
  C   C306      1.0  0.11767  0.54354  0.84170  1.0000
  C   C307      1.0  0.12022  0.54767  0.86942  1.0000
  C   C308      1.0  0.13631  0.57445  0.86463  1.0000
  C   C309      1.0  0.14609  0.57814  0.83922  1.0000
  C   C310      1.0  0.14971  0.58821  0.81812  1.0000
  C   C311      1.0  0.14357  0.59462  0.82115  1.0000
  C   C312      1.0  0.13378  0.59095  0.84515  1.0000
  C   C313      1.0  0.13016  0.58093  0.86686  1.0000
  H   H227      1.0  0.14604  0.53324  0.92730  1.0000
  H   H228      1.0  0.16078  0.54314  0.93219  1.0000
  H   H229      1.0  0.16224  0.56081  0.92380  1.0000
  H   H230      1.0  0.14922  0.56873  0.90913  1.0000
  H   H231      1.0  0.13324  0.54106  0.91071  1.0000
  H   H232      1.0  0.11046  0.56004  0.90492  1.0000
  H   H233      1.0  0.09656  0.55739  0.96636  1.0000
  H   H234      1.0  0.09923  0.55578  0.03243  1.0000
  H   H235      1.0  0.11592  0.55658  0.03740  1.0000
  H   H236      1.0  0.12991  0.55908  0.97634  1.0000
  H   H237      1.0  0.13902  0.56660  0.80208  1.0000
  H   H238      1.0  0.13440  0.55935  0.75404  1.0000
  H   H239      1.0  0.12092  0.54424  0.77950  1.0000
  H   H240      1.0  0.11190  0.53695  0.85231  1.0000
  H   H241      1.0  0.11629  0.54415  0.90140  1.0000
  H   H242      1.0  0.15090  0.57326  0.83493  1.0000
  H   H243      1.0  0.15727  0.59107  0.79927  1.0000
  H   H244      1.0  0.14641  0.60243  0.80473  1.0000
  H   H245      1.0  0.12897  0.59587  0.84685  1.0000
  H   H246      1.0  0.12251  0.57827  0.88478  1.0000
  C   C314      1.0  0.13343  0.57587  0.49378  1.0000
  C   C315      1.0  0.13296  0.56652  0.48989  1.0000
  C   C316      1.0  0.13570  0.55940  0.51642  1.0000
  C   C317      1.0  0.13878  0.56155  0.54723  1.0000
  C   C318      1.0  0.13935  0.57095  0.55123  1.0000
  C   C319      1.0  0.13654  0.57805  0.52454  1.0000
  P   P11       1.0  0.14247  0.57325  0.59357  1.0000
  C   C320      1.0  0.13205  0.56675  0.63809  1.0000
  C   C321      1.0  0.15281  0.56865  0.60058  1.0000
  C   C322      1.0  0.15485  0.56799  0.63688  1.0000
  C   C323      1.0  0.16288  0.56459  0.64322  1.0000
  C   C324      1.0  0.16886  0.56168  0.61370  1.0000
  C   C325      1.0  0.16687  0.56229  0.57748  1.0000
  C   C326      1.0  0.15901  0.56598  0.57037  1.0000
  C   C327      1.0  0.13129  0.55693  0.65983  1.0000
  C   C328      1.0  0.12338  0.55190  0.69502  1.0000
  C   C329      1.0  0.11618  0.55663  0.70881  1.0000
  C   C330      1.0  0.11670  0.56629  0.68647  1.0000
  C   C331      1.0  0.12458  0.57133  0.65100  1.0000
  H   H247      1.0  0.13164  0.58151  0.47223  1.0000
  H   H248      1.0  0.13088  0.56490  0.46534  1.0000
  H   H249      1.0  0.13561  0.55224  0.51271  1.0000
  H   H250      1.0  0.14077  0.55587  0.56777  1.0000
  H   H251      1.0  0.13687  0.58532  0.52695  1.0000
  H   H252      1.0  0.15020  0.57008  0.66046  1.0000
  H   H253      1.0  0.16442  0.56414  0.67123  1.0000
  H   H254      1.0  0.17490  0.55879  0.61944  1.0000
  H   H255      1.0  0.17122  0.55960  0.55553  1.0000
  H   H256      1.0  0.15778  0.56657  0.54168  1.0000
  H   H257      1.0  0.13687  0.55318  0.64994  1.0000
  H   H258      1.0  0.12297  0.54437  0.71175  1.0000
  H   H259      1.0  0.11024  0.55283  0.73689  1.0000
  H   H260      1.0  0.11104  0.56989  0.69691  1.0000
  H   H261      1.0  0.12494  0.57884  0.63413  1.0000
  H   H262      1.0  0.14113  0.58353  0.65403  1.0000
  S   S77       1.0  0.11022  0.50295  0.30313  1.0000
  C   C332      1.0  0.20744  0.60347  0.85496  1.0000
  C   C333      1.0  0.19801  0.60411  0.85426  1.0000
  P   P12       1.0  0.18884  0.60362  0.89995  1.0000
  C   C334      1.0  0.19215  0.61536  0.90691  1.0000
  C   C335      1.0  0.17664  0.60055  0.89726  1.0000
  C   C336      1.0  0.16935  0.60494  0.91384  1.0000
  C   C337      1.0  0.15999  0.60254  0.91107  1.0000
  C   C338      1.0  0.15771  0.59545  0.89328  1.0000
  C   C339      1.0  0.16480  0.59072  0.87839  1.0000
  C   C340      1.0  0.17420  0.59321  0.88059  1.0000
  C   C341      1.0  0.21383  0.66186  0.53091  1.0000
  C   C342      1.0  0.06635  0.52694  0.09141  1.0000
  H   H263      1.0  0.00592  0.52481  0.22463  1.0000
  H   H264      1.0  0.08515  0.57640  0.74112  1.0000
  C   C343      1.0  0.18841  0.62327  0.89050  1.0000
  C   C344      1.0  0.18905  0.59357  0.94156  1.0000
  C   C345      1.0  0.18680  0.59410  0.98115  1.0000
  C   C346      1.0  0.18685  0.58618  0.01328  1.0000
  C   C347      1.0  0.18903  0.57765  0.00611  1.0000
  C   C348      1.0  0.19103  0.57699  0.96694  1.0000
  C   C349      1.0  0.19098  0.58488  0.93485  1.0000
  H   H265      1.0  0.22180  0.60314  0.82078  1.0000
  H   H266      1.0  0.20924  0.60261  0.88271  1.0000
  H   H267      1.0  0.17085  0.61026  0.92869  1.0000
  H   H268      1.0  0.15454  0.60631  0.92209  1.0000
  H   H269      1.0  0.15048  0.59370  0.89085  1.0000
  H   H270      1.0  0.16311  0.58526  0.86437  1.0000
  H   H271      1.0  0.17961  0.58949  0.86868  1.0000
  Fe  Fe39      1.0  0.01157  0.52765  0.76835  1.0000
  H   H272      1.0  0.19900  0.57582  0.28607  1.0000
  C   C350      1.0  0.05562  0.50279  0.12985  1.0000
  H   H273      1.0  0.04222  0.58184  0.61097  1.0000
  H   H274      1.0  0.18359  0.62256  0.87273  1.0000
  H   H275      1.0  0.18504  0.60064  0.98716  1.0000
  H   H276      1.0  0.18931  0.57159  0.03071  1.0000
  H   H277      1.0  0.19288  0.57046  0.96099  1.0000
  H   H278      1.0  0.19260  0.58425  0.90465  1.0000
  C   C351      1.0  0.08555  0.53404  0.17465  1.0000
  H   H279      1.0  0.09962  0.53109  0.17293  1.0000
  H   H280      1.0  0.08661  0.54001  0.18688  1.0000
  C   C352      1.0  0.11351  0.57951  0.35702  1.0000
  C   C353      1.0  0.12111  0.58276  0.37053  1.0000
  C   C354      1.0  0.12515  0.57595  0.39204  1.0000
  C   C355      1.0  0.12151  0.56589  0.40067  1.0000
  C   C356      1.0  0.11366  0.56254  0.38847  1.0000
  C   C357      1.0  0.10988  0.56945  0.36553  1.0000
  P   P13       1.0  0.10891  0.54949  0.40045  1.0000
  C   C358      1.0  0.11631  0.54550  0.36185  1.0000
  C   C359      1.0  0.10992  0.54316  0.44913  1.0000
  C   C360      1.0  0.11250  0.53410  0.45576  1.0000
  C   C361      1.0  0.11371  0.52940  0.49279  1.0000
  C   C362      1.0  0.11229  0.53369  0.52357  1.0000
  C   C363      1.0  0.10948  0.54261  0.51758  1.0000
  C   C364      1.0  0.10826  0.54731  0.48056  1.0000
  C   C365      1.0  0.11206  0.53833  0.34796  1.0000
  C   C366      1.0  0.11789  0.53513  0.31886  1.0000
  C   C367      1.0  0.12800  0.53890  0.30394  1.0000
  C   C368      1.0  0.13231  0.54587  0.31816  1.0000
  C   C369      1.0  0.12651  0.54916  0.34702  1.0000
  C   C370      1.0  0.09620  0.54699  0.40303  1.0000
  C   C371      1.0  0.09375  0.54918  0.36713  1.0000
  C   C372      1.0  0.08397  0.54751  0.36871  1.0000
  C   C373      1.0  0.07654  0.54358  0.40616  1.0000
  C   C374      1.0  0.07889  0.54130  0.44212  1.0000
  C   C375      1.0  0.08868  0.54299  0.44064  1.0000
  H   H281      1.0  0.11052  0.58481  0.33944  1.0000
  H   H282      1.0  0.12399  0.59055  0.36376  1.0000
  H   H283      1.0  0.13126  0.57851  0.40123  1.0000
  H   H284      1.0  0.12495  0.56072  0.41624  1.0000
  H   H285      1.0  0.10413  0.56715  0.35421  1.0000
  H   H286      1.0  0.11379  0.53073  0.43208  1.0000
  H   H287      1.0  0.11606  0.52257  0.49692  1.0000
  H   H288      1.0  0.11348  0.53013  0.55178  1.0000
  H   H289      1.0  0.10839  0.54593  0.54140  1.0000
  H   H290      1.0  0.10615  0.55425  0.47620  1.0000
  H   H291      1.0  0.10429  0.53509  0.35980  1.0000
  H   H292      1.0  0.11460  0.52952  0.30855  1.0000
  H   H293      1.0  0.13248  0.53619  0.28219  1.0000
  H   H294      1.0  0.14017  0.54860  0.30748  1.0000
  H   H295      1.0  0.13005  0.55442  0.35812  1.0000
  H   H296      1.0  0.09942  0.55226  0.33784  1.0000
  H   H297      1.0  0.08217  0.54936  0.34078  1.0000
  H   H298      1.0  0.06899  0.54239  0.40722  1.0000
  H   H299      1.0  0.07311  0.53829  0.47115  1.0000
  H   H300      1.0  0.09030  0.54120  0.46888  1.0000
  C   C376      1.0  0.22112  0.59252  0.42584  1.0000
  C   C377      1.0  0.22564  0.59926  0.44053  1.0000
  C   C378      1.0  0.22244  0.59814  0.48197  1.0000
  C   C379      1.0  0.21456  0.59039  0.50870  1.0000
  C   C380      1.0  0.20975  0.58379  0.49394  1.0000
  C   C381      1.0  0.21326  0.58476  0.45248  1.0000
  P   P14       1.0  0.19933  0.57397  0.52769  1.0000
  C   C382      1.0  0.19346  0.57724  0.57181  1.0000
  C   C383      1.0  0.19114  0.57233  0.49901  1.0000
  C   C384      1.0  0.18772  0.56304  0.49637  1.0000
  C   C385      1.0  0.18149  0.56194  0.47365  1.0000
  C   C386      1.0  0.17895  0.57012  0.45212  1.0000
  C   C387      1.0  0.18245  0.57940  0.45399  1.0000
  C   C388      1.0  0.18850  0.58051  0.47740  1.0000
  C   C389      1.0  0.18569  0.58191  0.57292  1.0000
  C   C390      1.0  0.18124  0.58428  0.60743  1.0000
  C   C391      1.0  0.18444  0.58198  0.64118  1.0000
  C   C392      1.0  0.19216  0.57735  0.64042  1.0000
  C   C393      1.0  0.19669  0.57504  0.60586  1.0000
  C   C394      1.0  0.20313  0.56273  0.54436  1.0000
  C   C395      1.0  0.19678  0.55488  0.57808  1.0000
  C   C396      1.0  0.19948  0.54604  0.59058  1.0000
  C   C397      1.0  0.20852  0.54492  0.56945  1.0000
  C   C398      1.0  0.21488  0.55267  0.53575  1.0000
  C   C399      1.0  0.21220  0.56155  0.52317  1.0000
  H   H301      1.0  0.22368  0.59329  0.39374  1.0000
  H   H302      1.0  0.23160  0.60538  0.41978  1.0000
  H   H303      1.0  0.22601  0.60333  0.49332  1.0000
  H   H304      1.0  0.21215  0.58966  0.54066  1.0000
  H   H305      1.0  0.20990  0.57954  0.44059  1.0000
  H   H306      1.0  0.18963  0.55657  0.51236  1.0000
  H   H307      1.0  0.17858  0.55469  0.47301  1.0000
  H   H308      1.0  0.17419  0.56924  0.43423  1.0000
  H   H309      1.0  0.18037  0.58575  0.43762  1.0000
  H   H310      1.0  0.19112  0.58776  0.47857  1.0000
  H   H311      1.0  0.18278  0.58350  0.54807  1.0000
  H   H312      1.0  0.17505  0.58761  0.60868  1.0000
  H   H313      1.0  0.18083  0.58361  0.66821  1.0000
  H   H314      1.0  0.19449  0.57541  0.66703  1.0000
  H   H315      1.0  0.20262  0.57141  0.60608  1.0000
  H   H316      1.0  0.18968  0.55551  0.59457  1.0000
  H   H317      1.0  0.19445  0.54001  0.61653  1.0000
  S   S78       1.0  0.22923  0.57591  0.94657  1.0000
  C   C400      1.0  0.23767  0.58413  0.06030  1.0000
  C   C401      1.0  0.07165  0.50494  0.77136  1.0000
  S   S79       1.0  0.23296  0.59573  0.87066  1.0000
  S   S80       1.0  0.03740  0.53602  0.68806  1.0000
  Fe  Fe40      1.0  0.03278  0.54019  0.74516  1.0000
  H   H318      1.0  0.13786  0.59734  0.97041  1.0000
  H   H319      1.0  0.07487  0.52598  0.99535  1.0000
  C   C402      1.0  0.03331  0.51419  0.90392  1.0000
  C   C403      1.0  0.14619  0.58601  0.58894  1.0000
  C   C404      1.0  0.14392  0.57665  0.00558  1.0000
  H   H320      1.0  0.13243  0.56303  0.07808  1.0000
  S   S81       1.0  0.23691  0.59823  0.95325  1.0000
  H   H321      1.0  0.04369  0.55579  0.43451  1.0000
  C   C405      1.0  0.14198  0.58238  0.03121  1.0000
  H   H322      1.0  0.15496  0.57171  0.96827  1.0000
  C   C406      1.0  0.11517  0.50831  0.33514  1.0000
  C   C407      1.0  0.15350  0.57613  0.98796  1.0000
  C   C408      1.0  0.14485  0.58884  0.62402  1.0000
  H   H323      1.0  0.15329  0.59086  0.52375  1.0000
  C   C409      1.0  0.03790  0.53446  0.51212  1.0000
  C   C410      1.0  0.18712  0.61212  0.34506  1.0000
  H   H324      1.0  0.03530  0.56139  0.55064  1.0000
  H   H325      1.0  0.11859  0.51487  0.69831  1.0000
  C   C411      1.0  0.07066  0.56703  0.48792  1.0000
  C   C412      1.0  0.15167  0.59296  0.55094  1.0000
  H   H326      1.0  0.19659  0.59957  0.12152  1.0000
  P   P15       1.0  0.11545  0.50293  0.01998  1.0000
  C   C413      1.0  0.08630  0.56969  0.73495  1.0000
  H   H327      1.0  0.04528  0.56023  0.15453  1.0000
  C   C414      1.0  0.08440  0.56771  0.70155  1.0000
  H   H328      1.0  0.20141  0.58866  0.08132  1.0000
  H   H329      1.0  0.10809  0.51132  0.76939  1.0000
  C   C415      1.0  0.11113  0.51053  0.70869  1.0000
  C   C416      1.0  0.03694  0.57295  0.19269  1.0000
  H   H330      1.0  0.05178  0.53054  0.43294  1.0000
  H   H331      1.0  0.04499  0.59076  0.09982  1.0000
  H   H332      1.0  0.09717  0.51738  0.14493  1.0000
  C   C417      1.0  0.05373  0.52156  0.17908  1.0000
  C   C418      1.0  0.12893  0.59285  0.07510  1.0000
  H   H333      1.0  0.01038  0.51366  0.27870  1.0000
  C   C419      1.0  0.19267  0.59194  0.13253  1.0000
  C   C420      1.0  0.08047  0.59986  0.72096  1.0000
  C   C421      1.0  0.19602  0.60555  0.81746  1.0000
  H   H334      1.0  0.08176  0.51243  0.13231  1.0000
  C   C422      1.0  0.19534  0.58583  0.10965  1.0000
  C   C423      1.0  0.10522  0.50858  0.74867  1.0000
  H   H335      1.0  0.05619  0.54722  0.96502  1.0000
  H   H336      1.0  0.02407  0.54425  0.81216  1.0000
  C   C424      1.0  0.07520  0.52322  0.15341  1.0000
  C   C425      1.0  0.08273  0.51846  0.14420  1.0000
  C   C426      1.0  0.06805  0.54260  0.04100  1.0000
  C   C427      1.0  0.14866  0.59853  0.62081  1.0000
  C   C428      1.0  0.15526  0.60270  0.54778  1.0000
  C   C429      1.0  0.21244  0.60474  0.78384  1.0000
  H   H337      1.0  0.24622  0.55098  0.31393  1.0000
  H   H338      1.0  0.18346  0.59286  0.18811  1.0000
  C   C430      1.0  0.15383  0.60545  0.58271  1.0000
  H   H339      1.0  0.14770  0.60067  0.64788  1.0000
  H   H340      1.0  0.15919  0.60811  0.51821  1.0000
  H   H341      1.0  0.01784  0.50836  0.52752  1.0000
  C   C431      1.0  0.18515  0.58813  0.16993  1.0000
  H   H342      1.0  0.13739  0.58916  0.25311  1.0000
  H   H343      1.0  0.15225  0.59771  0.19352  1.0000
  H   H344      1.0  0.23657  0.63285  0.47337  1.0000
  C   C432      1.0  0.23872  0.65005  0.60730  1.0000
  C   C433      1.0  0.04655  0.55448  0.49143  1.0000
  C   C434      1.0  0.19035  0.57595  0.12371  1.0000
  H   H345      1.0  0.19262  0.57118  0.10633  1.0000
  H   H346      1.0  0.08303  0.56756  0.37776  1.0000
  C   C435      1.0  0.04588  0.54785  0.52897  1.0000
  C   C436      1.0  0.08214  0.51272  0.42285  1.0000
  H   H347      1.0  0.21793  0.60470  0.75704  1.0000
  Fe  Fe41      1.0  0.06714  0.50261  0.94425  1.0000
  H   H348      1.0  0.20143  0.63531  0.31575  1.0000
  C   C437      1.0  0.14381  0.58614  0.24912  1.0000
  C   C438      1.0  0.15221  0.59096  0.21558  1.0000
  H   H349      1.0  0.15162  0.56671  0.29524  1.0000
  H   H350      1.0  0.21532  0.64771  0.59825  1.0000
  C   C439      1.0  0.04233  0.58645  0.37949  1.0000
  C   C440      1.0  0.08937  0.56284  0.76127  1.0000
  H   H351      1.0  0.15581  0.56128  0.21636  1.0000
  H   H352      1.0  0.17146  0.53822  0.29175  1.0000
  C   C441      1.0  0.00849  0.51612  0.18475  1.0000
  C   C442      1.0  0.20365  0.62514  0.08819  1.0000
  C   C443      1.0  0.18001  0.57823  0.18415  1.0000
  C   C444      1.0  0.14366  0.57741  0.27761  1.0000
  C   C445      1.0  0.04007  0.58562  0.12846  1.0000
  H   H353      1.0  0.13719  0.57372  0.30390  1.0000
  H   H354      1.0  0.19889  0.65977  0.27429  1.0000
  H   H355      1.0  0.04771  0.55416  0.91733  1.0000
  C   C446      1.0  0.04312  0.55092  0.46388  1.0000
  H   H356      1.0  0.03118  0.52611  0.18727  1.0000
  H   H357      1.0  0.22995  0.65800  0.40066  1.0000
  C   C447      1.0  0.24041  0.56873  0.37675  1.0000
  H   H358      1.0  0.03998  0.59073  0.35576  1.0000
  C   C448      1.0  0.02697  0.57260  0.20231  1.0000
  C   C449      1.0  0.18268  0.57216  0.16064  1.0000
  C   C450      1.0  0.15188  0.57347  0.27260  1.0000
  C   C451      1.0  0.16049  0.58707  0.21058  1.0000
  H   H359      1.0  0.16683  0.59090  0.18424  1.0000
  C   C452      1.0  0.14981  0.58779  0.03799  1.0000
  C   C453      1.0  0.16123  0.58142  0.99533  1.0000
  H   H360      1.0  0.15678  0.61295  0.58023  1.0000
  C   C454      1.0  0.20315  0.60561  0.78268  1.0000
  Fe  Fe42      1.0  0.24140  0.58960  0.91123  1.0000
  H   H361      1.0  0.23656  0.64683  0.33865  1.0000
  C   C455      1.0  0.19803  0.61241  0.42316  1.0000
  C   C456      1.0  0.11222  0.58502  0.73482  1.0000
  C   C457      1.0  0.16042  0.57832  0.23932  1.0000
  H   H362      1.0  0.16423  0.57686  0.31291  1.0000
  S   S82       1.0  0.02528  0.53014  0.39032  1.0000
  H   H363      1.0  0.16865  0.58106  0.98137  1.0000
  P   P16       1.0  0.17102  0.57310  0.23448  1.0000
  C   C458      1.0  0.21390  0.62631  0.35666  1.0000
  S   S83       1.0  0.01900  0.54365  0.73303  1.0000
  H   H364      1.0  0.13401  0.58551  0.12365  1.0000
  C   C459      1.0  0.01070  0.52605  0.92127  1.0000
  H   H365      1.0  0.08176  0.57292  0.68179  1.0000
  H   H366      1.0  0.09021  0.51998  0.98953  1.0000
  H   H367      1.0  0.23488  0.65313  0.87464  1.0000
  C   C460      1.0  0.06219  0.58524  0.08921  1.0000
  H   H368      1.0  0.14664  0.62297  0.62013  1.0000
  C   C461      1.0  0.06079  0.50662  0.15218  1.0000
  C   C462      1.0  0.07593  0.59721  0.17526  1.0000
  C   C463      1.0  0.17184  0.57672  0.30621  1.0000
  H   H369      1.0  0.17227  0.57848  0.36313  1.0000
  H   H370      1.0  0.05519  0.52290  0.68643  1.0000
  C   C464      1.0  0.17639  0.57766  0.33495  1.0000
  C   C465      1.0  0.17704  0.57541  0.26995  1.0000
  C   C466      1.0  0.15927  0.55632  0.23292  1.0000
  C   C467      1.0  0.21985  0.65100  0.46138  1.0000
  C   C468      1.0  0.24458  0.64471  0.24252  1.0000
  H   H371      1.0  0.22106  0.66082  0.51889  1.0000
  C   C469      1.0  0.05222  0.54993  0.18417  1.0000
  H   H372      1.0  0.05268  0.50909  0.51111  1.0000
  H   H373      1.0  0.11774  0.55868  0.58946  1.0000
  H   H374      1.0  0.18759  0.63161  0.45811  1.0000
  H   H375      1.0  0.21494  0.63841  0.66703  1.0000
  C   C470      1.0  0.04934  0.57177  0.52036  1.0000
  H   H376      1.0  0.19998  0.61194  0.65718  1.0000
  H   H377      1.0  0.20250  0.60748  0.22970  1.0000
  H   H378      1.0  0.17623  0.60723  0.49768  1.0000
  C   C471      1.0  0.05217  0.58846  0.37690  1.0000
  C   C472      1.0  0.16682  0.55999  0.24614  1.0000
  C   C473      1.0  0.00831  0.51837  0.22019  1.0000
  S   S84       1.0  0.00514  0.53832  0.39280  1.0000
  Fe  Fe43      1.0  0.02891  0.52079  0.72680  1.0000
  H   H379      1.0  0.20143  0.60622  0.75495  1.0000
  C   C474      1.0  0.02033  0.53923  0.84275  1.0000
  C   C475      1.0  0.20939  0.63297  0.77797  1.0000
  C   C476      1.0  0.11287  0.53139  0.98350  1.0000
  H   H380      1.0  0.21810  0.63830  0.25876  1.0000
  H   H381      1.0  0.23636  0.64524  0.09898  1.0000
  C   C477      1.0  0.20398  0.61051  0.44772  1.0000
  C   C478      1.0  0.06178  0.52634  0.69069  1.0000
  C   C479      1.0  0.15939  0.58727  0.02020  1.0000
  H   H382      1.0  0.18896  0.60652  0.81555  1.0000
  C   C480      1.0  0.12735  0.59753  0.71059  1.0000
  H   H383      1.0  0.02395  0.50954  0.67307  1.0000
  H   H384      1.0  0.21350  0.61620  0.28857  1.0000
  C   C481      1.0  0.04151  0.53788  0.53933  1.0000
  C   C482      1.0  0.04507  0.50439  0.89033  1.0000
  C   C483      1.0  0.18616  0.57731  0.32779  1.0000
  C   C484      1.0  0.15609  0.54620  0.24109  1.0000
  C   C485      1.0  0.17127  0.55338  0.26697  1.0000
  H   H385      1.0  0.15021  0.54340  0.23117  1.0000
  H   H386      1.0  0.17710  0.55593  0.27765  1.0000
  C   C486      1.0  0.03218  0.50421  0.86012  1.0000
  H   H387      1.0  0.06034  0.54136  0.21539  1.0000
  C   C487      1.0  0.21991  0.64891  0.73358  1.0000
  C   C488      1.0  0.17879  0.61269  0.20894  1.0000
  H   H388      1.0  0.21518  0.65606  0.45709  1.0000
  C   C489      1.0  0.18692  0.57518  0.26283  1.0000
  H   H389      1.0  0.18957  0.57770  0.35067  1.0000
  H   H390      1.0  0.23369  0.57990  0.44750  1.0000
  Fe  Fe44      1.0  0.01039  0.52748  0.43523  1.0000
  H   H391      1.0  0.22119  0.59685  0.13843  1.0000
  H   H392      1.0  0.04606  0.52568  0.13583  1.0000
  H   H393      1.0  0.20457  0.60630  0.50898  1.0000
  C   C490      1.0  0.11568  0.57914  0.76304  1.0000
  Fe  Fe45      1.0  0.07723  0.50595  0.28713  1.0000
  C   C491      1.0  0.19146  0.57621  0.29148  1.0000
  C   C492      1.0  0.16047  0.53967  0.26229  1.0000
  C   C493      1.0  0.16810  0.54327  0.27492  1.0000
  H   H394      1.0  0.19105  0.57390  0.23573  1.0000
  C   C494      1.0  0.23423  0.64557  0.43350  1.0000
  C   C495      1.0  0.24589  0.58627  0.48816  1.0000
  C   C496      1.0  0.19922  0.65609  0.81366  1.0000
  C   C497      1.0  0.05845  0.56768  0.16109  1.0000
  H   H395      1.0  0.20397  0.65594  0.18722  1.0000
  Fe  Fe46      1.0  0.02308  0.53802  0.67938  1.0000
  H   H396      1.0  0.07130  0.51588  0.06635  1.0000
  H   H397      1.0  0.18679  0.60415  0.54098  1.0000
  C   C498      1.0  0.11795  0.59436  0.70899  1.0000
  C   C499      1.0  0.01998  0.51342  0.98236  1.0000
  H   H398      1.0  0.10557  0.53420  0.74176  1.0000
  H   H399      1.0  0.08141  0.60529  0.65801  1.0000
  C   C500      1.0  0.22691  0.64715  0.75316  1.0000
  C   C501      1.0  0.03696  0.52981  0.94228  1.0000
  C   C502      1.0  0.09045  0.55399  0.75461  1.0000
  C   C503      1.0  0.21193  0.63466  0.64926  1.0000
  C   C504      1.0  0.20974  0.63424  0.18339  1.0000
  C   C505      1.0  0.23913  0.64306  0.00229  1.0000
  H   H400      1.0  0.04851  0.58378  0.22071  1.0000
  H   H401      1.0  0.22800  0.57981  0.59812  1.0000
  H   H402      1.0  0.21471  0.62482  0.82377  1.0000
  C   C506      1.0  0.13154  0.59189  0.11047  1.0000
  C   C507      1.0  0.12830  0.50554  0.99145  1.0000
  H   H403      1.0  0.09067  0.56418  0.78772  1.0000
  H   H404      1.0  0.11114  0.57205  0.78377  1.0000
  H   H405      1.0  0.03007  0.52161  0.26016  1.0000
  C   C508      1.0  0.01871  0.54491  0.54603  1.0000
  C   C509      1.0  0.09885  0.52468  0.80311  1.0000
  C   C510      1.0  0.23963  0.63693  0.23408  1.0000
  H   H406      1.0  0.20240  0.63967  0.46732  1.0000
  H   H407      1.0  0.15793  0.53181  0.26920  1.0000
  H   H408      1.0  0.09268  0.56724  0.42506  1.0000
  H   H409      1.0  0.07269  0.59931  0.73244  1.0000
  C   C511      1.0  0.06244  0.51145  0.42796  1.0000
  C   C512      1.0  0.23745  0.59142  0.54408  1.0000
  C   C513      1.0  0.05300  0.51902  0.22034  1.0000
  C   C514      1.0  0.07227  0.52899  0.01939  1.0000
  C   C515      1.0  0.03862  0.57316  0.44258  1.0000
  H   H410      1.0  0.21213  0.65335  0.23999  1.0000
  C   C516      1.0  0.24384  0.64478  0.90126  1.0000
  C   C517      1.0  0.23494  0.57411  0.55148  1.0000
  C   C518      1.0  0.20554  0.65411  0.54301  1.0000
  C   C519      1.0  0.23147  0.63216  0.33845  1.0000
  S   S85       1.0  0.16928  0.62662  0.43922  1.0000
  C   C520      1.0  0.19995  0.60756  0.49011  1.0000
  H   H411      1.0  0.21673  0.62616  0.22271  1.0000
  C   C521      1.0  0.07911  0.52847  0.68082  1.0000
  C   C522      1.0  0.19781  0.63371  0.91626  1.0000
  C   C523      1.0  0.09872  0.53063  0.76581  1.0000
  C   C524      1.0  0.20565  0.58935  0.36126  1.0000
  H   H412      1.0  0.05440  0.53438  0.72618  1.0000
  H   H413      1.0  0.05019  0.56812  0.37280  1.0000
  H   H414      1.0  0.04691  0.51526  0.34994  1.0000
  C   C525      1.0  0.05021  0.56675  0.34498  1.0000
  H   H415      1.0  0.16540  0.59149  0.02541  1.0000
  H   H416      1.0  0.17519  0.60823  0.32356  1.0000
  H   H417      1.0  0.04112  0.50656  0.57848  1.0000
  C   C526      1.0  0.05546  0.58013  0.52081  1.0000
  H   H418      1.0  0.14862  0.59254  0.05637  1.0000
  C   C527      1.0  0.04449  0.51905  0.24928  1.0000
  H   H419      1.0  0.20345  0.58180  0.38131  1.0000
  H   H420      1.0  0.18593  0.60468  0.36488  1.0000
  C   C528      1.0  0.12493  0.58248  0.76512  1.0000
  C   C529      1.0  0.04164  0.56133  0.34270  1.0000
  H   H421      1.0  0.23149  0.56650  0.56972  1.0000
  C   C530      1.0  0.08503  0.56725  0.43514  1.0000
  C   C531      1.0  0.03732  0.52421  0.19630  1.0000
  H   H422      1.0  0.21116  0.58549  0.30729  1.0000
  S   S86       1.0  0.22427  0.61809  0.89451  1.0000
  H   H423      1.0  0.20270  0.61114  0.93637  1.0000
  H   H424      1.0  0.05372  0.54640  0.38050  1.0000
  H   H425      1.0  0.02195  0.56757  0.23117  1.0000
  C   C532      1.0  0.18806  0.61138  0.44155  1.0000
  C   C533      1.0  0.16608  0.64114  0.60724  1.0000
  C   C534      1.0  0.06992  0.51897  0.39657  1.0000
  C   C535      1.0  0.04149  0.55991  0.30603  1.0000
  C   C536      1.0  0.19918  0.61691  0.92601  1.0000
  C   C537      1.0  0.20777  0.63510  0.58803  1.0000
  Fe  Fe47      1.0  0.16787  0.63568  0.38094  1.0000
  H   H426      1.0  0.03507  0.55859  0.36882  1.0000
  H   H427      1.0  0.04896  0.53112  0.29852  1.0000
  C   C538      1.0  0.04832  0.52194  0.35743  1.0000
  C   C539      1.0  0.20999  0.59140  0.31950  1.0000
  H   H428      1.0  0.08188  0.59511  0.78068  1.0000
  C   C540      1.0  0.08054  0.56696  0.47493  1.0000
  C   C541      1.0  0.04951  0.53092  0.32800  1.0000
  P   P17       1.0  0.04976  0.51056  0.43084  1.0000
  H   H429      1.0  0.08472  0.56668  0.49569  1.0000
  H   H430      1.0  0.04384  0.51675  0.28126  1.0000
  H   H431      1.0  0.20833  0.65401  0.65303  1.0000
  H   H432      1.0  0.22459  0.61811  0.33860  1.0000
  C   C542      1.0  0.23190  0.63792  0.47016  1.0000
  S   S87       1.0  0.16772  0.64455  0.75470  1.0000
  H   H433      1.0  0.20544  0.63624  0.37573  1.0000
  H   H434      1.0  0.03353  0.53594  0.85178  1.0000
  H   H435      1.0  0.11599  0.59145  0.91551  1.0000
  C   C543      1.0  0.08563  0.59744  0.74817  1.0000
  C   C544      1.0  0.03667  0.52170  0.23733  1.0000
  H   H436      1.0  0.06488  0.51681  0.77881  1.0000
  C   C545      1.0  0.08538  0.60317  0.67910  1.0000
  C   C546      1.0  0.09567  0.59816  0.73359  1.0000
  H   H437      1.0  0.20046  0.59531  0.40892  1.0000
  C   C547      1.0  0.03854  0.50727  0.55258  1.0000
  C   C548      1.0  0.04177  0.50962  0.48043  1.0000
  H   H438      1.0  0.02740  0.59004  0.11698  1.0000
  H   H439      1.0  0.06682  0.57876  0.00314  1.0000
  C   C549      1.0  0.06974  0.56750  0.42141  1.0000
  H   H440      1.0  0.09653  0.50540  0.01019  1.0000
  H   H441      1.0  0.06832  0.52426  0.37311  1.0000
  C   C550      1.0  0.19101  0.63231  0.89625  1.0000
  C   C551      1.0  0.20404  0.59699  0.37687  1.0000
  H   H442      1.0  0.21174  0.61146  0.43397  1.0000
  H   H443      1.0  0.22394  0.63850  0.87327  1.0000
  C   C552      1.0  0.10059  0.60113  0.69167  1.0000
  H   H444      1.0  0.09957  0.59650  0.75511  1.0000
  C   C553      1.0  0.05162  0.53969  0.33619  1.0000
  H   H445      1.0  0.10503  0.58235  0.73366  1.0000
  C   C554      1.0  0.18994  0.60635  0.50820  1.0000
  H   H446      1.0  0.05284  0.54660  0.31282  1.0000
  C   C555      1.0  0.15589  0.63305  0.56157  1.0000
  C   C556      1.0  0.22337  0.62486  0.34399  1.0000
  H   H447      1.0  0.17127  0.59987  0.26160  1.0000
  C   C557      1.0  0.21285  0.60109  0.29344  1.0000
  C   C558      1.0  0.09542  0.60391  0.66447  1.0000
  H   H448      1.0  0.21631  0.60272  0.26108  1.0000
  C   C559      1.0  0.19969  0.65890  0.30390  1.0000
  H   H449      1.0  0.10014  0.52598  0.69136  1.0000
  C   C560      1.0  0.06730  0.55682  0.19290  1.0000
  C   C561      1.0  0.05072  0.54237  0.95935  1.0000
  H   H450      1.0  0.13248  0.59813  0.15768  1.0000
  H   H451      1.0  0.06001  0.57133  0.07763  1.0000
  C   C562      1.0  0.06643  0.58343  0.02213  1.0000
  C   C563      1.0  0.13070  0.59901  0.12980  1.0000
  P   P18       1.0  0.11355  0.60201  0.67250  1.0000
  C   C564      1.0  0.06002  0.54865  0.19885  1.0000
  H   H452      1.0  0.07339  0.55585  0.20407  1.0000
  H   H453      1.0  0.07325  0.59678  0.97151  1.0000
  H   H454      1.0  0.04851  0.55040  0.55066  1.0000
  C   C565      1.0  0.05100  0.53057  0.40390  1.0000
  C   C566      1.0  0.05220  0.53954  0.37431  1.0000
  H   H455      1.0  0.18651  0.59664  0.27438  1.0000
  H   H456      1.0  0.03940  0.56816  0.21449  1.0000
  C   C567      1.0  0.06260  0.57924  0.06445  1.0000
  H   H457      1.0  0.04656  0.54361  0.18893  1.0000
  C   C568      1.0  0.07007  0.59359  0.00427  1.0000
  C   C569      1.0  0.21031  0.63855  0.02435  1.0000
  C   C570      1.0  0.17830  0.60460  0.24147  1.0000
  C   C571      1.0  0.20382  0.62488  0.60439  1.0000
  H   H458      1.0  0.09917  0.60669  0.63197  1.0000
  C   C572      1.0  0.18399  0.60816  0.48389  1.0000
  C   C573      1.0  0.12868  0.63089  0.61385  1.0000
  H   H459      1.0  0.13155  0.60590  0.60422  1.0000
  H   H460      1.0  0.18807  0.66595  0.57457  1.0000
  H   H461      1.0  0.02359  0.50582  0.58734  1.0000
  C   C574      1.0  0.23150  0.62821  0.89943  1.0000
  H   H462      1.0  0.15568  0.62986  0.65969  1.0000
  C   C575      1.0  0.18689  0.60274  0.24859  1.0000
  C   C576      1.0  0.20688  0.60673  0.35083  1.0000
  H   H463      1.0  0.07637  0.59158  0.12591  1.0000
  H   H464      1.0  0.08364  0.60084  0.16305  1.0000
  H   H465      1.0  0.12754  0.57802  0.78740  1.0000
  C   C577      1.0  0.04509  0.50866  0.51414  1.0000
  C   C578      1.0  0.03196  0.50986  0.48542  1.0000
  C   C579      1.0  0.11926  0.61481  0.66127  1.0000
  C   C580      1.0  0.03007  0.58525  0.13811  1.0000
  H   H466      1.0  0.17212  0.61427  0.20402  1.0000
  C   C581      1.0  0.10337  0.53027  0.98154  1.0000
  H   H467      1.0  0.19212  0.66789  0.80050  1.0000
  H   H468      1.0  0.20059  0.62094  0.58768  1.0000
  C   C582      1.0  0.12574  0.60110  0.60008  1.0000
  H   H469      1.0  0.07361  0.60123  0.22973  1.0000
  C   C583      1.0  0.12364  0.62127  0.62119  1.0000
  C   C584      1.0  0.06654  0.56630  0.17404  1.0000
  C   C585      1.0  0.07027  0.59749  0.21265  1.0000
  H   H470      1.0  0.10206  0.58807  0.64659  1.0000
  C   C586      1.0  0.05149  0.55939  0.16490  1.0000
  C   C587      1.0  0.12520  0.60091  0.06006  1.0000
  H   H471      1.0  0.13199  0.60463  0.69057  1.0000
  H   H472      1.0  0.04531  0.51344  0.92788  1.0000
  C   C588      1.0  0.10920  0.59113  0.62373  1.0000
  H   H473      1.0  0.07207  0.57252  0.17108  1.0000
  H   H474      1.0  0.23717  0.56416  0.36203  1.0000
  C   C589      1.0  0.13080  0.59162  0.73870  1.0000
  C   C590      1.0  0.19595  0.60890  0.22309  1.0000
  C   C591      1.0  0.11930  0.61840  0.69363  1.0000
  C   C592      1.0  0.15293  0.62912  0.60431  1.0000
  H   H475      1.0  0.11551  0.61370  0.72468  1.0000
  C   C593      1.0  0.21132  0.60873  0.30906  1.0000
  H   H476      1.0  0.13479  0.60147  0.54177  1.0000
  C   C594      1.0  0.12765  0.59850  0.56473  1.0000
  H   H477      1.0  0.12332  0.61898  0.59536  1.0000
  H   H478      1.0  0.06562  0.56749  0.40052  1.0000
  C   C595      1.0  0.11117  0.58843  0.58853  1.0000
  H   H479      1.0  0.13242  0.63570  0.58283  1.0000
  C   C596      1.0  0.06175  0.58731  0.16944  1.0000
  C   C597      1.0  0.06038  0.59271  0.22854  1.0000
  H   H480      1.0  0.13224  0.60073  0.91078  1.0000
  C   C598      1.0  0.12701  0.60701  0.11460  1.0000
  H   H481      1.0  0.22887  0.62947  0.15604  1.0000
  H   H482      1.0  0.13798  0.59417  0.74049  1.0000
  H   H483      1.0  0.12268  0.60163  0.03406  1.0000
  S   S88       1.0  0.18617  0.63677  0.71150  1.0000
  P   P19       1.0  0.05654  0.57990  0.14366  1.0000
  C   C599      1.0  0.06967  0.59962  0.02868  1.0000
  C   C600      1.0  0.12031  0.59232  0.55855  1.0000
  C   C601      1.0  0.12914  0.63423  0.64634  1.0000
  C   C602      1.0  0.18786  0.61889  0.18337  1.0000
  C   C603      1.0  0.10770  0.50546  0.86468  1.0000
  C   C604      1.0  0.12432  0.62802  0.68625  1.0000
  C   C605      1.0  0.04600  0.54627  0.93211  1.0000
  S   S89       1.0  0.02498  0.52460  0.78401  1.0000
  H   H484      1.0  0.10554  0.58351  0.58405  1.0000
  H   H485      1.0  0.12171  0.59059  0.53045  1.0000
  H   H486      1.0  0.05608  0.59263  0.25822  1.0000
  H   H487      1.0  0.12397  0.52414  0.99607  1.0000
  C   C606      1.0  0.05611  0.58766  0.20704  1.0000
  S   S90       1.0  0.02571  0.50695  0.35386  1.0000
  C   C607      1.0  0.12426  0.60795  0.07979  1.0000
  C   C608      1.0  0.06563  0.59548  0.07096  1.0000
  C   C609      1.0  0.19651  0.61693  0.18988  1.0000
  S   S91       1.0  0.14914  0.62774  0.53464  1.0000
  C   C610      1.0  0.22704  0.62235  0.15248  1.0000
  H   H488      1.0  0.01555  0.54452  0.49099  1.0000
  C   C611      1.0  0.24226  0.62796  0.24118  1.0000
  C   C612      1.0  0.06526  0.56757  0.46085  1.0000
  H   H489      1.0  0.07251  0.60750  0.01481  1.0000
  C   C613      1.0  0.23426  0.61706  0.14725  1.0000
  C   C614      1.0  0.15806  0.63302  0.62692  1.0000
  C   C615      1.0  0.23600  0.64588  0.88653  1.0000
  H   H490      1.0  0.12601  0.61232  0.13052  1.0000
  H   H491      1.0  0.18340  0.61318  0.42331  1.0000
  H   H492      1.0  0.06293  0.58446  0.40417  1.0000
  S   S92       1.0  0.15275  0.63745  0.41042  1.0000
  C   C616      1.0  0.21269  0.63508  0.36449  1.0000
  C   C617      1.0  0.18108  0.61407  0.32125  1.0000
  C   C618      1.0  0.20357  0.61970  0.64355  1.0000
  H   H493      1.0  0.20703  0.62068  0.69695  1.0000
  H   H494      1.0  0.06520  0.60030  0.08929  1.0000
  H   H495      1.0  0.05747  0.59424  0.35103  1.0000
  P   P20       1.0  0.05244  0.56730  0.47772  1.0000
  C   C619      1.0  0.16395  0.64113  0.54184  1.0000
  Fe  Fe48      1.0  0.17212  0.63923  0.70022  1.0000
  P   P21       1.0  0.20336  0.61651  0.36855  1.0000
  H   H496      1.0  0.04058  0.53287  0.56911  1.0000
  C   C620      1.0  0.04360  0.57943  0.15565  1.0000
  H   H497      1.0  0.06724  0.56659  0.51911  1.0000
  H   H498      1.0  0.11415  0.51456  0.07612  1.0000
  Fe  Fe49      1.0  0.18115  0.64069  0.76915  1.0000
  S   S93       1.0  0.03058  0.55428  0.29982  1.0000
  H   H499      1.0  0.22656  0.65141  0.14889  1.0000
  H   H500      1.0  0.05239  0.52916  0.99872  1.0000
  H   H501      1.0  0.03567  0.54339  0.90232  1.0000
  C   C621      1.0  0.23632  0.63283  0.01377  1.0000
  H   H502      1.0  0.13323  0.64162  0.64056  1.0000
  C   C622      1.0  0.20754  0.62462  0.66610  1.0000
  H   H503      1.0  0.17498  0.65158  0.54884  1.0000
  C   C623      1.0  0.02352  0.57874  0.17501  1.0000
  C   C624      1.0  0.05527  0.58279  0.40698  1.0000
  C   C625      1.0  0.03788  0.57103  0.58436  1.0000
  C   C626      1.0  0.16890  0.64523  0.56457  1.0000
  H   H504      1.0  0.12106  0.61395  0.06885  1.0000
  H   H505      1.0  0.23362  0.63782  0.22269  1.0000
  H   H506      1.0  0.18687  0.64796  0.40428  1.0000
  C   C627      1.0  0.19463  0.61969  0.34313  1.0000
  C   C628      1.0  0.01599  0.52916  0.59672  1.0000
  H   H507      1.0  0.12455  0.63061  0.71159  1.0000
  C   C629      1.0  0.19584  0.62927  0.31767  1.0000
  C   C630      1.0  0.21757  0.61833  0.15389  1.0000
  C   C631      1.0  0.04853  0.53222  0.97847  1.0000
  C   C632      1.0  0.22985  0.63759  0.88556  1.0000
  H   H508      1.0  0.21441  0.66811  0.27965  1.0000
  H   H509      1.0  0.17255  0.62330  0.51759  1.0000
  H   H510      1.0  0.24674  0.60730  0.02689  1.0000
  C   C633      1.0  0.18744  0.63129  0.56604  1.0000
  H   H511      1.0  0.02792  0.57730  0.41450  1.0000
  H   H512      1.0  0.11519  0.52768  0.63599  1.0000
  C   C634      1.0  0.24142  0.57641  0.51215  1.0000
  H   H513      1.0  0.20007  0.64085  0.91926  1.0000
  C   C635      1.0  0.23440  0.57143  0.40712  1.0000
  C   C636      1.0  0.22084  0.64244  0.35785  1.0000
  C   C637      1.0  0.23376  0.65115  0.64419  1.0000
  C   C638      1.0  0.04855  0.57492  0.43943  1.0000
  C   C639      1.0  0.21208  0.63990  0.61034  1.0000
  H   H514      1.0  0.03565  0.53831  0.45387  1.0000
  C   C640      1.0  0.18250  0.62357  0.29516  1.0000
  C   C641      1.0  0.20200  0.62605  0.93058  1.0000
  H   H515      1.0  0.19928  0.61775  0.10517  1.0000
  H   H516      1.0  0.09983  0.50900  0.91645  1.0000
  C   C642      1.0  0.18981  0.63117  0.29369  1.0000
  C   C643      1.0  0.17917  0.62664  0.52178  1.0000
  H   H517      1.0  0.17251  0.62308  0.58637  1.0000
  H   H518      1.0  0.18707  0.63150  0.59623  1.0000
  C   C644      1.0  0.19601  0.63598  0.53272  1.0000
  C   C645      1.0  0.24440  0.58533  0.08118  1.0000
  C   C646      1.0  0.10120  0.51259  0.00287  1.0000
  P   P22       1.0  0.02790  0.52153  0.93294  1.0000
  C   C647      1.0  0.19602  0.63598  0.49377  1.0000
  H   H519      1.0  0.18809  0.62529  0.15899  1.0000
  C   C648      1.0  0.17913  0.62651  0.56061  1.0000
  H   H520      1.0  0.21761  0.65685  0.85671  1.0000
  Fe  Fe50      1.0  0.01838  0.51855  0.36934  1.0000
  C   C649      1.0  0.11360  0.50479  0.13319  1.0000
  C   C650      1.0  0.21137  0.64800  0.22448  1.0000
  C   C651      1.0  0.10533  0.55069  0.64289  1.0000
  S   S94       1.0  0.24630  0.57872  0.26743  1.0000
  C   C652      1.0  0.20650  0.65312  0.82983  1.0000
  C   C653      1.0  0.03555  0.57886  0.41250  1.0000
  H   H521      1.0  0.01599  0.52482  0.62619  1.0000
  H   H522      1.0  0.20787  0.64597  0.83091  1.0000
  P   P23       1.0  0.20676  0.64210  0.54016  1.0000
  C   C654      1.0  0.04038  0.56748  0.55157  1.0000
  C   C655      1.0  0.11237  0.53406  0.63802  1.0000
  H   H523      1.0  0.23605  0.64752  0.98192  1.0000
  C   C656      1.0  0.21555  0.60912  0.14844  1.0000
  H   H524      1.0  0.19064  0.63861  0.27464  1.0000
  H   H525      1.0  0.20219  0.65671  0.40978  1.0000
  H   H526      1.0  0.20247  0.62762  0.78828  1.0000
  C   C657      1.0  0.18761  0.63137  0.48836  1.0000
  S   S95       1.0  0.18081  0.64768  0.33293  1.0000
  C   C658      1.0  0.01634  0.51736  0.01323  1.0000
  H   H527      1.0  0.03328  0.56728  0.46793  1.0000
  H   H528      1.0  0.01815  0.52524  0.00732  1.0000
  H   H529      1.0  0.03103  0.56747  0.60882  1.0000
  C   C659      1.0  0.23849  0.57763  0.42504  1.0000
  C   C660      1.0  0.01883  0.53943  0.58447  1.0000
  Fe  Fe51      1.0  0.01992  0.54032  0.34680  1.0000
  C   C661      1.0  0.02093  0.52807  0.90526  1.0000
  C   C662      1.0  0.02568  0.53457  0.86551  1.0000
  C   C663      1.0  0.23217  0.60787  0.14226  1.0000
  C   C664      1.0  0.21756  0.64346  0.49862  1.0000
  H   H530      1.0  0.14433  0.51772  0.89598  1.0000
  C   C665      1.0  0.20159  0.65724  0.38010  1.0000
  H   H531      1.0  0.20838  0.60595  0.14855  1.0000
  C   C666      1.0  0.02867  0.50689  0.55763  1.0000
  H   H532      1.0  0.20766  0.62726  0.94414  1.0000
  H   H533      1.0  0.08584  0.52654  0.66842  1.0000
  H   H534      1.0  0.17772  0.62514  0.27718  1.0000
  S   S96       1.0  0.02233  0.54569  0.61654  1.0000
  C   C667      1.0  0.05293  0.58372  0.55352  1.0000
  C   C668      1.0  0.20591  0.64257  0.17442  1.0000
  H   H535      1.0  0.01030  0.51655  0.58186  1.0000
  H   H536      1.0  0.02087  0.55285  0.53623  1.0000
  C   C669      1.0  0.08554  0.55887  0.69453  1.0000
  C   C670      1.0  0.20453  0.62910  0.04712  1.0000
  S   S97       1.0  0.19214  0.64803  0.79558  1.0000
  H   H537      1.0  0.24212  0.65137  0.23885  1.0000
  H   H538      1.0  0.00678  0.52084  0.95121  1.0000
  S   S98       1.0  0.23759  0.66762  0.25245  1.0000
  C   C671      1.0  0.19628  0.65570  0.55873  1.0000
  H   H539      1.0  0.19272  0.65796  0.64971  1.0000
  C   C672      1.0  0.11382  0.55154  0.61163  1.0000
  C   C673      1.0  0.21207  0.65931  0.84457  1.0000
  H   H540      1.0  0.08382  0.55734  0.66907  1.0000
  S   S99       1.0  0.01406  0.52878  0.32224  1.0000
  C   C674      1.0  0.04418  0.57911  0.58550  1.0000
  C   C675      1.0  0.07481  0.50508  0.45346  1.0000
  H   H541      1.0  0.18801  0.63835  0.88383  1.0000
  C   C676      1.0  0.21449  0.64006  0.08344  1.0000
  S   S100      1.0  0.01490  0.52237  0.71441  1.0000
  C   C677      1.0  0.11735  0.54323  0.60937  1.0000
  H   H542      1.0  0.07432  0.52956  0.79119  1.0000
  C   C678      1.0  0.10388  0.53316  0.66923  1.0000
  C   C679      1.0  0.09013  0.52014  0.83508  1.0000
  C   C680      1.0  0.22282  0.60394  0.14262  1.0000
  C   C681      1.0  0.08981  0.53204  0.76029  1.0000
  H   H543      1.0  0.06218  0.58387  0.49590  1.0000
  P   P24       1.0  0.08949  0.54026  0.71350  1.0000
  C   C682      1.0  0.10032  0.54148  0.67212  1.0000
  C   C683      1.0  0.14814  0.50929  0.94608  1.0000
  C   C684      1.0  0.06133  0.53281  0.71318  1.0000
  C   C685      1.0  0.23903  0.62708  0.91593  1.0000
  H   H544      1.0  0.10284  0.55724  0.64439  1.0000
  H   H545      1.0  0.07459  0.51880  0.85569  1.0000
  C   C686      1.0  0.23296  0.58161  0.56746  1.0000
  H   H546      1.0  0.05772  0.59012  0.55399  1.0000
  H   H547      1.0  0.12397  0.54381  0.58558  1.0000
  C   C687      1.0  0.19183  0.65316  0.33888  1.0000
  C   C688      1.0  0.07067  0.52417  0.67452  1.0000
  H   H548      1.0  0.09022  0.51545  0.86389  1.0000
  H   H549      1.0  0.11740  0.53866  0.97594  1.0000
  C   C689      1.0  0.20847  0.63067  0.10689  1.0000
  C   C690      1.0  0.08132  0.52190  0.83035  1.0000
  C   C691      1.0  0.08117  0.52793  0.79338  1.0000
  C   C692      1.0  0.06974  0.53713  0.71949  1.0000
  H   H550      1.0  0.20080  0.62482  0.03276  1.0000
  H   H551      1.0  0.08538  0.52539  0.36975  1.0000
  H   H552      1.0  0.20223  0.64377  0.15180  1.0000
  C   C693      1.0  0.19289  0.65223  0.37709  1.0000
  H   H553      1.0  0.15579  0.51079  0.92849  1.0000
  H   H554      1.0  0.21104  0.64165  0.99248  1.0000
  C   C694      1.0  0.01569  0.54021  0.52028  1.0000
  C   C695      1.0  0.21124  0.64164  0.74568  1.0000
  H   H555      1.0  0.22189  0.63089  0.53078  1.0000
  C   C696      1.0  0.22358  0.63685  0.50263  1.0000
  C   C697      1.0  0.21526  0.64401  0.04258  1.0000
  C   C698      1.0  0.24519  0.63536  0.91673  1.0000
  C   C699      1.0  0.21482  0.63954  0.23475  1.0000
  C   C700      1.0  0.09755  0.52087  0.99122  1.0000
  C   C701      1.0  0.02542  0.50829  0.52395  1.0000
  C   C702      1.0  0.13183  0.51138  0.95037  1.0000
  H   H556      1.0  0.21979  0.65132  0.02491  1.0000
  H   H557      1.0  0.05902  0.50343  0.36546  1.0000
  C   C703      1.0  0.23880  0.65648  0.57056  1.0000
  C   C704      1.0  0.24387  0.59376  0.50454  1.0000
  H   H558      1.0  0.24029  0.61987  0.92691  1.0000
  C   C705      1.0  0.01034  0.51116  0.05184  1.0000
  C   C706      1.0  0.22819  0.65209  0.42916  1.0000
  S   S101      1.0  0.22928  0.66392  0.93806  1.0000
  H   H559      1.0  0.24335  0.55651  0.24762  1.0000
  H   H560      1.0  0.22654  0.56888  0.41597  1.0000
  C   C707      1.0  0.11402  0.50711  0.09243  1.0000
  C   C708      1.0  0.22504  0.63845  0.78536  1.0000
  H   H561      1.0  0.24257  0.64424  0.60725  1.0000
  C   C709      1.0  0.24731  0.63154  0.05355  1.0000
  C   C710      1.0  0.21066  0.66877  0.84237  1.0000
  H   H562      1.0  0.24572  0.59824  0.37355  1.0000
  C   C711      1.0  0.24592  0.64756  0.01672  1.0000
  C   C712      1.0  0.23435  0.65269  0.14295  1.0000
  C   C713      1.0  0.19530  0.66487  0.56217  1.0000
  H   H563      1.0  0.11213  0.50812  0.65156  1.0000
  H   H564      1.0  0.03082  0.50958  0.13594  1.0000
  H   H565      1.0  0.08736  0.50290  0.08867  1.0000
  C   C714      1.0  0.23998  0.64927  0.11432  1.0000
  H   H566      1.0  0.24145  0.62004  0.14789  1.0000
  H   H567      1.0  0.00571  0.50554  0.35639  1.0000
  C   C715      1.0  0.22883  0.66506  0.60751  1.0000
  C   C716      1.0  0.23878  0.65810  0.16274  1.0000
  H   H568      1.0  0.23775  0.60375  0.13844  1.0000
  C   C717      1.0  0.22872  0.65863  0.64456  1.0000
  H   H569      1.0  0.23598  0.59722  0.55670  1.0000
  C   C718      1.0  0.10748  0.50673  0.68241  1.0000
  H   H570      1.0  0.10159  0.50546  0.38265  1.0000
  H   H571      1.0  0.24068  0.64645  0.40832  1.0000
  H   H572      1.0  0.07857  0.50867  0.77178  1.0000
  C   C719      1.0  0.24041  0.62708  0.03942  1.0000
  H   H573      1.0  0.24729  0.61545  0.33506  1.0000
  H   H574      1.0  0.11767  0.50370  0.81242  1.0000
  H   H575      1.0  0.01151  0.50606  0.15175  1.0000
  H   H576      1.0  0.04045  0.51310  0.06406  1.0000
  H   H577      1.0  0.11324  0.51034  0.14804  1.0000
  C   C720      1.0  0.14471  0.50342  0.98693  1.0000
  C   C721      1.0  0.20570  0.65912  0.66756  1.0000
  C   C722      1.0  0.01394  0.50381  0.24495  1.0000
  H   H578      1.0  0.23436  0.66070  0.18507  1.0000
  H   H579      1.0  0.24293  0.57050  0.50033  1.0000
  C   C723      1.0  0.05496  0.50512  0.77389  1.0000
  C   C724      1.0  0.24868  0.58098  0.41351  1.0000
  C   C725      1.0  0.19683  0.66134  0.66558  1.0000
  H   H580      1.0  0.24773  0.65549  0.00807  1.0000
  C   C726      1.0  0.21092  0.66324  0.68910  1.0000
  C   C727      1.0  0.23391  0.66402  0.57067  1.0000
  H   H581      1.0  0.06605  0.50295  0.20345  1.0000
  Fe  Fe52      1.0  0.24541  0.66752  0.90727  1.0000
  H   H582      1.0  0.22163  0.66551  0.76459  1.0000
  H   H583      1.0  0.24850  0.62367  0.81278  1.0000
  C   C728      1.0  0.19303  0.66761  0.68547  1.0000
  H   H584      1.0  0.21913  0.66862  0.12469  1.0000
  H   H585      1.0  0.03433  0.50243  0.21942  1.0000
  S   S102      1.0  0.22560  0.66907  0.04155  1.0000
  H   H586      1.0  0.18601  0.66907  0.68499  1.0000
  H   H587      1.0  0.21943  0.71655  0.99779  1.0000
  H   H588      1.0  0.21188  0.71047  0.95278  1.0000
  C   C729      1.0  0.23016  0.73635  0.03008  1.0000
  H   H589      1.0  0.23323  0.70179  0.13574  1.0000
  C   C730      1.0  0.23760  0.67695  0.66903  1.0000
  Fe  Fe53      1.0  0.23489  0.67517  0.29939  1.0000
  C   C731      1.0  0.22570  0.69784  0.14543  1.0000
  H   H590      1.0  0.23158  0.67869  0.77811  1.0000
  H   H591      1.0  0.24132  0.75446  0.05699  1.0000
  H   H592      1.0  0.21924  0.67705  0.52450  1.0000
  H   H593      1.0  0.21034  0.73074  0.11447  1.0000
  Fe  Fe54      1.0  0.24858  0.68928  0.89987  1.0000
  H   H594      1.0  0.21199  0.71395  0.11797  1.0000
  C   C732      1.0  0.21618  0.72966  0.09148  1.0000
  S   S103      1.0  0.22015  0.66945  0.35024  1.0000
  S   S104      1.0  0.24197  0.69048  0.25435  1.0000
  Fe  Fe55      1.0  0.23310  0.67367  0.97334  1.0000
  C   C733      1.0  0.24226  0.70323  0.01343  1.0000
  Fe  Fe56      1.0  0.22974  0.67751  0.88955  1.0000
  C   C734      1.0  0.21744  0.69201  0.03881  1.0000
  S   S105      1.0  0.21781  0.67736  0.85791  1.0000
  P   P25       1.0  0.22589  0.70638  0.06553  1.0000
  H   H595      1.0  0.23690  0.72585  0.00829  1.0000
  C   C735      1.0  0.21335  0.70532  0.97712  1.0000
  H   H596      1.0  0.20823  0.68213  0.23163  1.0000
  H   H597      1.0  0.23516  0.74260  0.00533  1.0000
  C   C736      1.0  0.22268  0.73776  0.05985  1.0000
  H   H598      1.0  0.24317  0.71509  0.08245  1.0000
  S   S106      1.0  0.24666  0.68899  0.14280  1.0000
  S   S107      1.0  0.23224  0.68724  0.92779  1.0000
  C   C737      1.0  0.24598  0.68370  0.07632  1.0000
  C   C738      1.0  0.23879  0.70696  0.04522  1.0000
  C   C739      1.0  0.21115  0.69528  0.98222  1.0000
  H   H599      1.0  0.24526  0.68073  0.02166  1.0000
  C   C740      1.0  0.21160  0.68669  0.20002  1.0000
  H   H600      1.0  0.22550  0.69156  0.20704  1.0000
  C   C741      1.0  0.21714  0.72013  0.09338  1.0000
  C   C742      1.0  0.22465  0.71865  0.06366  1.0000
  C   C743      1.0  0.21971  0.70209  0.03391  1.0000
  C   C744      1.0  0.20626  0.68723  0.17302  1.0000
  C   C745      1.0  0.19817  0.67177  0.70686  1.0000
  C   C746      1.0  0.21063  0.69309  0.13222  1.0000
  C   C747      1.0  0.21763  0.70874  0.00280  1.0000
  H   H601      1.0  0.20627  0.69356  0.11212  1.0000
  C   C748      1.0  0.23331  0.67820  0.74759  1.0000
  C   C749      1.0  0.24094  0.68251  0.11686  1.0000
  C   C750      1.0  0.23126  0.67699  0.13436  1.0000
  C   C751      1.0  0.22048  0.69830  0.11778  1.0000
  C   C752      1.0  0.23168  0.67408  0.07042  1.0000
  C   C753      1.0  0.24137  0.67954  0.05313  1.0000
  H   H602      1.0  0.19512  0.67646  0.72305  1.0000
  H   H603      1.0  0.21165  0.68085  0.01666  1.0000
  C   C754      1.0  0.23114  0.72683  0.03190  1.0000
  H   H604      1.0  0.20276  0.67966  0.55265  1.0000
  H   H605      1.0  0.23733  0.69946  0.00165  1.0000
  H   H606      1.0  0.20802  0.69264  0.96181  1.0000
  H   H607      1.0  0.22186  0.74513  0.05827  1.0000
  H   H608      1.0  0.21917  0.68678  0.06196  1.0000
  C   C755      1.0  0.22130  0.69204  0.18626  1.0000
  C   C756      1.0  0.22665  0.67277  0.11120  1.0000
  C   C757      1.0  0.20357  0.67255  0.54999  1.0000
  C   C758      1.0  0.24326  0.68444  0.67672  1.0000
  H   H609      1.0  0.23942  0.67662  0.63844  1.0000
  H   H610      1.0  0.19870  0.68314  0.18380  1.0000
  H   H611      1.0  0.22729  0.67606  0.16554  1.0000
  S   S108      1.0  0.24602  0.68090  0.85701  1.0000
  Fe  Fe57      1.0  0.24570  0.68260  0.20863  1.0000
  C   C759      1.0  0.20341  0.67172  0.82604  1.0000
  H   H612      1.0  0.20216  0.67895  0.82416  1.0000
  C   C760      1.0  0.24111  0.68506  0.71600  1.0000
  C   C761      1.0  0.22767  0.67073  0.73994  1.0000
  H   H613      1.0  0.24279  0.74661  0.12457  1.0000
  H   H614      1.0  0.21074  0.67277  0.72629  1.0000
  C   C762      1.0  0.21317  0.68863  0.01314  1.0000
  C   C763      1.0  0.21284  0.67106  0.53429  1.0000
  H   H615      1.0  0.22507  0.67095  0.60715  1.0000
  C   C764      1.0  0.20707  0.66962  0.70867  1.0000
  H   H616      1.0  0.24546  0.69085  0.72209  1.0000
  C   C765      1.0  0.24558  0.71188  0.05890  1.0000
  C   C766      1.0  0.22974  0.67001  0.70072  1.0000
  C   C767      1.0  0.24836  0.75351  0.05957  1.0000
  S   S109      1.0  0.24873  0.67367  0.31501  1.0000
  H   H617      1.0  0.23412  0.66912  0.54218  1.0000
  H   H618      1.0  0.48855  0.01532  0.48422  1.0000
  C   C768      1.0  0.48743  0.03986  0.48527  1.0000
  H   H619      1.0  0.44688  0.02702  0.58207  1.0000
  H   H620      1.0  0.47728  0.02068  0.71666  1.0000
  C   C769      1.0  0.49425  0.10827  0.11085  1.0000
  H   H621      1.0  0.46398  0.01008  0.48211  1.0000
  H   H622      1.0  0.44767  0.01614  0.71726  1.0000
  H   H623      1.0  0.46004  0.02036  0.74865  1.0000
  H   H624      1.0  0.48453  0.00702  0.17992  1.0000
  H   H625      1.0  0.43560  0.03789  0.58421  1.0000
  S   S110      1.0  0.47315  0.01173  0.81131  1.0000
  C   C770      1.0  0.46778  0.01453  0.64757  1.0000
  C   C771      1.0  0.49715  0.02917  0.51132  1.0000
  H   H626      1.0  0.42254  0.03552  0.64848  1.0000
  C   C772      1.0  0.49450  0.03448  0.47872  1.0000
  C   C773      1.0  0.49528  0.01369  0.08462  1.0000
  C   C774      1.0  0.48875  0.02045  0.89849  1.0000
  H   H627      1.0  0.48550  0.04396  0.45972  1.0000
  C   C775      1.0  0.45793  0.01431  0.66549  1.0000
  C   C776      1.0  0.42751  0.03069  0.64774  1.0000
  S   S111      1.0  0.49383  0.02322  0.93565  1.0000
  H   H628      1.0  0.47706  0.00557  0.25225  1.0000
  H   H629      1.0  0.48198  0.03480  0.58747  1.0000
  C   C777      1.0  0.48695  0.01068  0.89789  1.0000
  C   C778      1.0  0.43295  0.01689  0.68200  1.0000
  H   H630      1.0  0.48708  0.10895  0.12649  1.0000
  C   C779      1.0  0.49309  0.00739  0.06337  1.0000
  C   C780      1.0  0.48614  0.02749  0.87081  1.0000
  C   C781      1.0  0.48152  0.02473  0.84416  1.0000
  C   C782      1.0  0.47960  0.01493  0.84395  1.0000
  C   C783      1.0  0.46220  0.01894  0.71991  1.0000
  H   H631      1.0  0.47930  0.03022  0.82386  1.0000
  C   C784      1.0  0.47817  0.01236  0.39835  1.0000
  C   C785      1.0  0.48047  0.01144  0.35952  1.0000
  H   H632      1.0  0.47007  0.01235  0.62080  1.0000
  H   H633      1.0  0.47036  0.02420  0.50178  1.0000
  H   H634      1.0  0.48738  0.03501  0.87078  1.0000
  H   H635      1.0  0.49586  0.11948  0.05500  1.0000
  C   C786      1.0  0.44042  0.01820  0.64580  1.0000
  C   C787      1.0  0.45521  0.01654  0.70189  1.0000
  H   H636      1.0  0.49447  0.02539  0.57634  1.0000
  H   H637      1.0  0.46387  0.02417  0.57252  1.0000
  H   H638      1.0  0.47394  0.00604  0.42444  1.0000
  H   H639      1.0  0.49454  0.09650  0.16154  1.0000
  C   C788      1.0  0.48118  0.02154  0.40320  1.0000
  H   H640      1.0  0.49323  0.03518  0.30433  1.0000
  C   C789      1.0  0.46114  0.01790  0.56447  1.0000
  C   C790      1.0  0.47195  0.01913  0.70182  1.0000
  C   C791      1.0  0.48664  0.02985  0.36940  1.0000
  S   S112      1.0  0.49597  0.04801  0.97456  1.0000
  C   C792      1.0  0.45389  0.00984  0.59384  1.0000
  C   C793      1.0  0.46481  0.01796  0.52438  1.0000
  H   H641      1.0  0.42083  0.02207  0.71100  1.0000
  C   C794      1.0  0.48291  0.03997  0.52443  1.0000
  C   C795      1.0  0.42655  0.02312  0.68293  1.0000
  H   H642      1.0  0.48224  0.01666  0.65261  1.0000
  C   C796      1.0  0.48252  0.00796  0.87070  1.0000
  S   S113      1.0  0.49053  0.04118  0.37724  1.0000
  C   C797      1.0  0.48546  0.03468  0.55710  1.0000
  C   C798      1.0  0.47474  0.01694  0.66566  1.0000
  H   H643      1.0  0.48769  0.01913  0.29556  1.0000
  H   H644      1.0  0.47934  0.02221  0.43323  1.0000
  C   C799      1.0  0.44130  0.02582  0.61053  1.0000
  C   C800      1.0  0.43487  0.03203  0.61156  1.0000
  C   C801      1.0  0.48906  0.02887  0.33064  1.0000
  P   P26       1.0  0.44866  0.01007  0.64506  1.0000
  C   C802      1.0  0.48593  0.01974  0.32575  1.0000
  H   H645      1.0  0.47747  0.04419  0.52935  1.0000
  C   C803      1.0  0.49260  0.00968  0.48703  1.0000
  H   H646      1.0  0.48837  0.00896  0.04498  1.0000
  C   C804      1.0  0.49256  0.02930  0.55064  1.0000
  H   H647      1.0  0.49223  0.02009  0.08296  1.0000
  H   H648      1.0  0.48892  0.00513  0.91893  1.0000
  C   C805      1.0  0.46124  0.01002  0.51320  1.0000
  H   H649      1.0  0.43205  0.01104  0.70961  1.0000
  H   H650      1.0  0.49429  0.14315  0.37494  1.0000
  H   H651      1.0  0.49746  0.03833  0.17197  1.0000
  H   H652      1.0  0.49792  0.03452  0.44804  1.0000
  H   H653      1.0  0.49795  0.00877  0.58485  1.0000
  C   C806      1.0  0.49845  0.10130  0.13065  1.0000
  S   S114      1.0  0.49894  0.04025  0.08909  1.0000
  H   H654      1.0  0.49085  0.32661  0.16044  1.0000
  C   C807      1.0  0.49503  0.33394  0.15491  1.0000
  C   C808      1.0  0.42109  0.48742  0.10600  1.0000
  H   H655      1.0  0.42032  0.47381  0.04839  1.0000
  H   H656      1.0  0.42143  0.45905  0.96511  1.0000
  S   S115      1.0  0.43864  0.48300  0.35395  1.0000
  H   H657      1.0  0.47892  0.38773  0.91109  1.0000
  H   H658      1.0  0.41963  0.44651  0.87203  1.0000
  C   C809      1.0  0.47944  0.48510  0.88850  1.0000
  C   C810      1.0  0.49456  0.42917  0.29234  1.0000
  C   C811      1.0  0.48607  0.39006  0.88820  1.0000
  C   C812      1.0  0.47955  0.49420  0.66427  1.0000
  H   H659      1.0  0.41191  0.48391  0.56341  1.0000
  S   S116      1.0  0.42439  0.48027  0.88982  1.0000
  C   C813      1.0  0.41718  0.43314  0.12503  1.0000
  Fe  Fe58      1.0  0.47971  0.44449  0.48953  1.0000
  S   S117      1.0  0.47918  0.43795  0.43975  1.0000
  S   S118      1.0  0.47705  0.43507  0.55439  1.0000
  Fe  Fe59      1.0  0.48732  0.46512  0.43079  1.0000
  S   S119      1.0  0.48758  0.46049  0.37627  1.0000
  H   H660      1.0  0.49142  0.40460  0.71072  1.0000
  Fe  Fe60      1.0  0.47295  0.45069  0.41516  1.0000
  S   S120      1.0  0.46149  0.44944  0.38389  1.0000
  H   H661      1.0  0.49402  0.47882  0.60353  1.0000
  C   C814      1.0  0.49141  0.48048  0.79484  1.0000
  S   S121      1.0  0.47216  0.45627  0.46813  1.0000
  H   H662      1.0  0.36643  0.47809  0.67531  1.0000
  Fe  Fe61      1.0  0.46884  0.45699  0.82321  1.0000
  S   S122      1.0  0.47739  0.46335  0.75703  1.0000
  S   S123      1.0  0.46433  0.46679  0.86058  1.0000
  Fe  Fe62      1.0  0.47234  0.43666  0.82645  1.0000
  S   S124      1.0  0.48111  0.44140  0.76012  1.0000
  S   S125      1.0  0.46842  0.42114  0.86952  1.0000
  Fe  Fe63      1.0  0.48809  0.45473  0.77160  1.0000
  C   C815      1.0  0.48564  0.49966  0.90347  1.0000
  Fe  Fe64      1.0  0.46961  0.44962  0.75079  1.0000
  S   S126      1.0  0.46356  0.45245  0.69827  1.0000
  S   S127      1.0  0.48021  0.44933  0.83860  1.0000
  S   S128      1.0  0.46013  0.44382  0.81656  1.0000
  C   C816      1.0  0.47384  0.44031  0.59348  1.0000
  C   C817      1.0  0.47464  0.43573  0.63171  1.0000
  C   C818      1.0  0.47176  0.43954  0.66382  1.0000
  C   C819      1.0  0.46786  0.44783  0.65809  1.0000
  C   C820      1.0  0.46712  0.45243  0.61984  1.0000
  C   C821      1.0  0.47020  0.44876  0.58750  1.0000
  H   H663      1.0  0.47742  0.42918  0.63653  1.0000
  H   H664      1.0  0.47231  0.43592  0.69326  1.0000
  H   H665      1.0  0.46413  0.45884  0.61516  1.0000
  H   H666      1.0  0.46954  0.45232  0.55824  1.0000
  C   C822      1.0  0.42213  0.44663  0.89762  1.0000
  H   H667      1.0  0.48951  0.47267  0.81133  1.0000
  C   C823      1.0  0.47696  0.40285  0.95202  1.0000
  C   C824      1.0  0.47146  0.40763  0.93035  1.0000
  C   C825      1.0  0.47599  0.41586  0.89562  1.0000
  C   C826      1.0  0.41898  0.49255  0.07132  1.0000
  H   H668      1.0  0.40541  0.42009  0.15096  1.0000
  H   H669      1.0  0.47329  0.39651  0.97892  1.0000
  H   H670      1.0  0.46360  0.40493  0.94071  1.0000
  H   H671      1.0  0.48170  0.42128  0.39370  1.0000
  C   C827      1.0  0.44427  0.47564  0.00118  1.0000
  H   H672      1.0  0.41614  0.48861  0.05375  1.0000
  H   H673      1.0  0.40941  0.49127  0.49732  1.0000
  C   C828      1.0  0.43122  0.44060  0.94220  1.0000
  C   C829      1.0  0.43592  0.47833  0.01995  1.0000
  H   H674      1.0  0.46129  0.45220  0.26702  1.0000
  C   C830      1.0  0.48000  0.49502  0.94457  1.0000
  H   H675      1.0  0.41688  0.43406  0.15413  1.0000
  C   C831      1.0  0.46497  0.47687  0.70669  1.0000
  C   C832      1.0  0.47513  0.45331  0.27759  1.0000
  C   C833      1.0  0.43549  0.47651  0.88121  1.0000
  C   C834      1.0  0.43781  0.47115  0.85429  1.0000
  C   C835      1.0  0.44662  0.46806  0.84755  1.0000
  C   C836      1.0  0.45319  0.47044  0.86741  1.0000
  C   C837      1.0  0.45085  0.47579  0.89420  1.0000
  C   C838      1.0  0.44199  0.47868  0.90151  1.0000
  H   H676      1.0  0.43277  0.46936  0.83870  1.0000
  H   H677      1.0  0.44833  0.46387  0.82705  1.0000
  H   H678      1.0  0.45590  0.47773  0.90938  1.0000
  H   H679      1.0  0.44022  0.48267  0.92270  1.0000
  C   C839      1.0  0.44613  0.47451  0.35558  1.0000
  C   C840      1.0  0.44475  0.46670  0.34041  1.0000
  C   C841      1.0  0.44972  0.45918  0.34825  1.0000
  C   C842      1.0  0.45621  0.45951  0.37066  1.0000
  C   C843      1.0  0.45799  0.46761  0.38383  1.0000
  C   C844      1.0  0.45286  0.47501  0.37673  1.0000
  H   H680      1.0  0.43950  0.46619  0.32443  1.0000
  H   H681      1.0  0.44830  0.45294  0.33800  1.0000
  H   H682      1.0  0.46299  0.46795  0.40096  1.0000
  H   H683      1.0  0.45394  0.48105  0.38834  1.0000
  H   H684      1.0  0.40610  0.41799  0.08432  1.0000
  C   C845      1.0  0.49634  0.50053  0.75099  1.0000
  C   C846      1.0  0.42275  0.48905  0.46189  1.0000
  C   C847      1.0  0.43941  0.46541  0.58102  1.0000
  C   C848      1.0  0.46065  0.44528  0.94990  1.0000
  C   C849      1.0  0.40622  0.49700  0.20210  1.0000
  H   H685      1.0  0.46972  0.48197  0.98905  1.0000
  C   C850      1.0  0.41072  0.42527  0.12324  1.0000
  H   H686      1.0  0.38067  0.49400  0.73579  1.0000
  S   S129      1.0  0.43301  0.49986  0.94099  1.0000
  H   H687      1.0  0.48858  0.42044  0.23544  1.0000
  C   C851      1.0  0.39069  0.50024  0.76125  1.0000
  C   C852      1.0  0.42439  0.43878  0.05140  1.0000
  H   H688      1.0  0.45232  0.45993  0.51834  1.0000
  C   C853      1.0  0.46753  0.48324  0.72717  1.0000
  C   C854      1.0  0.43631  0.46317  0.46515  1.0000
  C   C855      1.0  0.42560  0.48076  0.53625  1.0000
  H   H689      1.0  0.42979  0.43523  0.89338  1.0000
  C   C856      1.0  0.42319  0.45366  0.95052  1.0000
  C   C857      1.0  0.46809  0.44987  0.26180  1.0000
  H   H690      1.0  0.48014  0.49877  0.96671  1.0000
  C   C858      1.0  0.35694  0.49436  0.73925  1.0000
  H   H691      1.0  0.41808  0.42977  0.02113  1.0000
  C   C859      1.0  0.43571  0.45447  0.45544  1.0000
  C   C860      1.0  0.48737  0.49467  0.75490  1.0000
  C   C861      1.0  0.45365  0.47813  0.59415  1.0000
  H   H692      1.0  0.46396  0.48112  0.75970  1.0000
  C   C862      1.0  0.49728  0.47271  0.61134  1.0000
  C   C863      1.0  0.41973  0.45324  0.91831  1.0000
  P   P27       1.0  0.43319  0.44753  0.00540  1.0000
  H   H693      1.0  0.47373  0.45821  0.29532  1.0000
  C   C864      1.0  0.48551  0.44349  0.25043  1.0000
  S   S130      1.0  0.49488  0.45392  0.45612  1.0000
  H   H694      1.0  0.44962  0.46738  0.65387  1.0000
  H   H695      1.0  0.46256  0.48902  0.29836  1.0000
  H   H696      1.0  0.44078  0.44118  0.45990  1.0000
  P   P28       1.0  0.47865  0.49981  0.73367  1.0000
  C   C865      1.0  0.45151  0.49773  0.80924  1.0000
  C   C866      1.0  0.41111  0.42410  0.08569  1.0000
  C   C867      1.0  0.44495  0.47412  0.54957  1.0000
  C   C868      1.0  0.42904  0.44740  0.96256  1.0000
  C   C869      1.0  0.47329  0.41644  0.77086  1.0000
  C   C870      1.0  0.42401  0.43986  0.08928  1.0000
  H   H697      1.0  0.48979  0.49790  0.84392  1.0000
  H   H698      1.0  0.43558  0.43557  0.95122  1.0000
  H   H699      1.0  0.49350  0.41328  0.18064  1.0000
  H   H700      1.0  0.45130  0.48085  0.98958  1.0000
  H   H701      1.0  0.48985  0.40756  0.39165  1.0000
  C   C871      1.0  0.36378  0.48264  0.69311  1.0000
  C   C872      1.0  0.45907  0.49773  0.77608  1.0000
  H   H702      1.0  0.46945  0.43634  0.97450  1.0000
  H   H703      1.0  0.46812  0.47385  0.65004  1.0000
  H   H704      1.0  0.47778  0.48015  0.78348  1.0000
  C   C873      1.0  0.48542  0.49457  0.87562  1.0000
  C   C874      1.0  0.49128  0.46384  0.63972  1.0000
  S   S131      1.0  0.42607  0.48562  0.17561  1.0000
  C   C875      1.0  0.48382  0.45018  0.27183  1.0000
  C   C876      1.0  0.45581  0.43489  0.02002  1.0000
  H   H705      1.0  0.47702  0.48781  0.40311  1.0000
  C   C877      1.0  0.49440  0.42481  0.20756  1.0000
  H   H706      1.0  0.48979  0.42553  0.85508  1.0000
  H   H707      1.0  0.45950  0.47001  0.72336  1.0000
  C   C878      1.0  0.46975  0.44331  0.24004  1.0000
  H   H708      1.0  0.35062  0.47161  0.73146  1.0000
  C   C879      1.0  0.47842  0.44010  0.23441  1.0000
  H   H709      1.0  0.45027  0.45309  0.93322  1.0000
  H   H710      1.0  0.48298  0.41746  0.80567  1.0000
  Fe  Fe65      1.0  0.42470  0.49468  0.90326  1.0000
  H   H711      1.0  0.44400  0.49613  0.80962  1.0000
  H   H712      1.0  0.49263  0.38129  0.92706  1.0000
  H   H713      1.0  0.48357  0.46323  0.65323  1.0000
  C   C880      1.0  0.47157  0.41369  0.73864  1.0000
  H   H714      1.0  0.35420  0.49873  0.75772  1.0000
  H   H715      1.0  0.45733  0.49643  0.75034  1.0000
  C   C881      1.0  0.42429  0.49243  0.13028  1.0000
  H   H716      1.0  0.45008  0.46443  0.98168  1.0000
  H   H717      1.0  0.39209  0.49361  0.14362  1.0000
  H   H718      1.0  0.43396  0.46033  0.57624  1.0000
  C   C882      1.0  0.45361  0.49968  0.84230  1.0000
  P   P29       1.0  0.44337  0.47666  0.50005  1.0000
  C   C883      1.0  0.47484  0.49201  0.70615  1.0000
  H   H719      1.0  0.48158  0.39993  0.84487  1.0000
  C   C884      1.0  0.46983  0.47904  0.66529  1.0000
  H   H720      1.0  0.44735  0.49819  0.46330  1.0000
  H   H721      1.0  0.45101  0.44456  0.50152  1.0000
  H   H722      1.0  0.46423  0.44060  0.22813  1.0000
  C   C885      1.0  0.47380  0.48055  0.92929  1.0000
  H   H723      1.0  0.42898  0.44591  0.09122  1.0000
  C   C886      1.0  0.41588  0.48854  0.49813  1.0000
  H   H724      1.0  0.40967  0.49292  0.22193  1.0000
  C   C887      1.0  0.45392  0.48579  0.46260  1.0000
  C   C888      1.0  0.47708  0.48773  0.64404  1.0000
  C   C889      1.0  0.36585  0.49812  0.70725  1.0000
  S   S132      1.0  0.49231  0.48095  0.42413  1.0000
  S   S133      1.0  0.42095  0.48971  0.28466  1.0000
  C   C890      1.0  0.46248  0.48302  0.44611  1.0000
  H   H725      1.0  0.46819  0.41974  0.78765  1.0000
  H   H726      1.0  0.45923  0.48299  0.59918  1.0000
  C   C891      1.0  0.48713  0.40604  0.93880  1.0000
  H   H727      1.0  0.46292  0.47542  0.45547  1.0000
  H   H728      1.0  0.46918  0.47321  0.93887  1.0000
  C   C892      1.0  0.49380  0.38640  0.89721  1.0000
  H   H729      1.0  0.41998  0.47951  0.11470  1.0000
  H   H730      1.0  0.44172  0.43462  0.05832  1.0000
  C   C893      1.0  0.48484  0.48470  0.77816  1.0000
  Fe  Fe66      1.0  0.43010  0.49313  0.21894  1.0000
  C   C894      1.0  0.47055  0.49006  0.41651  1.0000
  C   C895      1.0  0.46265  0.43864  0.98093  1.0000
  C   C896      1.0  0.49180  0.41427  0.90373  1.0000
  C   C897      1.0  0.45179  0.44808  0.95775  1.0000
  C   C898      1.0  0.43106  0.48547  0.46276  1.0000
  C   C899      1.0  0.44752  0.45846  0.50129  1.0000
  H   H731      1.0  0.42158  0.49208  0.43303  1.0000
  C   C900      1.0  0.36927  0.49216  0.68445  1.0000
  H   H732      1.0  0.43929  0.50032  0.37728  1.0000
  C   C901      1.0  0.48826  0.42907  0.32954  1.0000
  C   C902      1.0  0.38406  0.50069  0.73942  1.0000
  C   C903      1.0  0.42603  0.46242  0.02952  1.0000
  C   C904      1.0  0.48621  0.41924  0.88224  1.0000
  H   H733      1.0  0.41888  0.45744  0.04035  1.0000
  C   C905      1.0  0.41792  0.43081  0.04986  1.0000
  C   C906      1.0  0.47410  0.48550  0.95738  1.0000
  H   H734      1.0  0.43646  0.48557  0.02331  1.0000
  C   C907      1.0  0.44694  0.43770  0.02799  1.0000
  H   H735      1.0  0.41545  0.45831  0.90856  1.0000
  H   H736      1.0  0.48907  0.45275  0.28529  1.0000
  C   C908      1.0  0.41730  0.48440  0.53529  1.0000
  C   C909      1.0  0.42787  0.44031  0.90959  1.0000
  C   C910      1.0  0.42681  0.47171  0.03409  1.0000
  H   H737      1.0  0.43698  0.45617  0.64227  1.0000
  C   C911      1.0  0.44822  0.46937  0.62503  1.0000
  C   C912      1.0  0.44353  0.46631  0.99669  1.0000
  C   C913      1.0  0.39631  0.49738  0.15800  1.0000
  H   H738      1.0  0.47908  0.48128  0.86682  1.0000
  C   C914      1.0  0.44681  0.44972  0.49186  1.0000
  C   C915      1.0  0.43254  0.48125  0.49990  1.0000
  C   C916      1.0  0.44484  0.44428  0.99674  1.0000
  C   C917      1.0  0.48825  0.41069  0.76019  1.0000
  H   H739      1.0  0.45735  0.42970  0.04401  1.0000
  C   C918      1.0  0.40077  0.49214  0.18358  1.0000
  H   H740      1.0  0.46518  0.41495  0.73015  1.0000
  H   H741      1.0  0.43628  0.48583  0.43438  1.0000
  H   H742      1.0  0.42652  0.47753  0.56534  1.0000
  H   H743      1.0  0.45648  0.48722  0.53277  1.0000
  H   H744      1.0  0.46589  0.44817  0.91949  1.0000
  S   S134      1.0  0.44425  0.49287  0.23265  1.0000
  H   H745      1.0  0.48094  0.48933  0.61207  1.0000
  C   C919      1.0  0.48643  0.40786  0.72800  1.0000
  H   H746      1.0  0.47682  0.40736  0.69201  1.0000
  C   C920      1.0  0.45204  0.48050  0.55652  1.0000
  H   H747      1.0  0.43144  0.45310  0.43627  1.0000
  C   C921      1.0  0.45375  0.49579  0.45043  1.0000
  Fe  Fe67      1.0  0.43541  0.49080  0.29691  1.0000
  H   H748      1.0  0.40012  0.48434  0.18878  1.0000
  C   C922      1.0  0.44222  0.46526  0.48827  1.0000
  C   C923      1.0  0.43438  0.45963  0.01076  1.0000
  H   H749      1.0  0.43234  0.46828  0.45337  1.0000
  C   C924      1.0  0.44097  0.44775  0.46872  1.0000
  C   C925      1.0  0.48764  0.39705  0.85049  1.0000
  C   C926      1.0  0.44108  0.46303  0.61849  1.0000
  C   C927      1.0  0.48165  0.41506  0.78127  1.0000
  H   H750      1.0  0.48467  0.43497  0.33158  1.0000
  C   C928      1.0  0.35488  0.47898  0.72475  1.0000
  C   C929      1.0  0.35148  0.48483  0.74786  1.0000
  H   H751      1.0  0.49053  0.37771  0.59894  1.0000
  Fe  Fe68      1.0  0.49384  0.44834  0.40491  1.0000
  H   H752      1.0  0.49438  0.38701  0.52581  1.0000
  H   H753      1.0  0.47554  0.48784  0.33059  1.0000
  H   H754      1.0  0.49746  0.42742  0.43196  1.0000
  C   C930      1.0  0.47814  0.40941  0.71721  1.0000
  H   H755      1.0  0.47948  0.43490  0.21810  1.0000
  C   C931      1.0  0.48651  0.42126  0.36510  1.0000
  C   C932      1.0  0.47592  0.49469  0.30813  1.0000
  C   C933      1.0  0.49110  0.41355  0.36399  1.0000
  H   H756      1.0  0.49049  0.44884  0.67219  1.0000
  H   H757      1.0  0.44778  0.49972  0.86792  1.0000
  H   H758      1.0  0.34460  0.48198  0.77253  1.0000
  C   C934      1.0  0.47025  0.49994  0.40391  1.0000
  S   S135      1.0  0.41153  0.50046  0.92669  1.0000
  C   C935      1.0  0.46873  0.49942  0.77650  1.0000
  H   H759      1.0  0.37620  0.49485  0.66008  1.0000
  S   S136      1.0  0.49348  0.39929  0.96733  1.0000
  C   C936      1.0  0.46857  0.49533  0.29018  1.0000
  H   H760      1.0  0.39230  0.49329  0.77427  1.0000
  C   C937      1.0  0.49521  0.45574  0.65074  1.0000
  H   H761      1.0  0.49533  0.47303  0.69920  1.0000
  H   H762      1.0  0.48530  0.50074  0.64714  1.0000
  P   P30       1.0  0.49650  0.43901  0.24565  1.0000
  C   C938      1.0  0.49712  0.42074  0.17648  1.0000
  C   C939      1.0  0.49699  0.40036  0.82127  1.0000
  C   C940      1.0  0.49761  0.41372  0.32750  1.0000
  C   C941      1.0  0.49793  0.37946  0.57839  1.0000
  C   C942      1.0  0.47078  0.50150  0.80964  1.0000
  C   C943      1.0  0.46322  0.50155  0.84258  1.0000
  H   H763      1.0  0.48926  0.50226  0.31178  1.0000
  H   H764      1.0  0.49169  0.35612  0.16133  1.0000
  C   C944      1.0  0.49262  0.38179  0.14450  1.0000
  C   C945      1.0  0.49634  0.50220  0.53271  1.0000
  C   C946      1.0  0.49325  0.38666  0.10449  1.0000
  C   C947      1.0  0.49861  0.37537  0.15227  1.0000
  H   H765      1.0  0.48750  0.38301  0.16953  1.0000
  H   H766      1.0  0.48860  0.39161  0.09833  1.0000
  H   H767      1.0  0.49793  0.37158  0.18350  1.0000
  C   C948      1.0  0.49559  0.35066  0.15524  1.0000
  H   H768      1.0  0.48231  0.33945  0.17393  1.0000
  C   C949      1.0  0.49022  0.34117  0.16250  1.0000
  Fe  Fe69      1.0  0.47904  0.56318  0.24431  1.0000
  H   H769      1.0  0.46381  0.58358  0.25089  1.0000
  S   S137      1.0  0.46398  0.55316  0.26836  1.0000
  H   H770      1.0  0.25520  0.57037  0.34007  1.0000
  C   C950      1.0  0.48260  0.52969  0.68454  1.0000
  S   S138      1.0  0.48118  0.57843  0.20413  1.0000
  S   S139      1.0  0.43211  0.50934  0.20493  1.0000
  H   H771      1.0  0.49882  0.56288  0.35657  1.0000
  C   C951      1.0  0.25066  0.55829  0.24934  1.0000
  S   S140      1.0  0.45938  0.52036  0.18611  1.0000
  C   C952      1.0  0.37042  0.63578  0.95479  1.0000
  Fe  Fe70      1.0  0.44862  0.61212  0.41114  1.0000
  S   S141      1.0  0.44168  0.61257  0.47421  1.0000
  S   S142      1.0  0.45496  0.59885  0.40934  1.0000
  Fe  Fe71      1.0  0.44075  0.62944  0.37181  1.0000
  S   S143      1.0  0.43291  0.63082  0.43192  1.0000
  S   S144      1.0  0.43972  0.63817  0.31140  1.0000
  Fe  Fe72      1.0  0.44667  0.62896  0.44641  1.0000
  S   S145      1.0  0.45414  0.64030  0.46770  1.0000
  Fe  Fe73      1.0  0.42870  0.61438  0.45381  1.0000
  S   S146      1.0  0.41366  0.60500  0.49066  1.0000
  S   S147      1.0  0.45488  0.62848  0.38464  1.0000
  S   S148      1.0  0.43527  0.61308  0.39242  1.0000
  Fe  Fe74      1.0  0.38288  0.55830  0.39121  1.0000
  S   S149      1.0  0.38500  0.56648  0.43401  1.0000
  S   S150      1.0  0.37886  0.56526  0.33530  1.0000
  Fe  Fe75      1.0  0.39004  0.54084  0.43348  1.0000
  S   S151      1.0  0.39257  0.54769  0.47985  1.0000
  S   S152      1.0  0.39459  0.52639  0.43952  1.0000
  Fe  Fe76      1.0  0.37834  0.55185  0.48300  1.0000
  S   S153      1.0  0.36725  0.54988  0.54361  1.0000
  Fe  Fe77      1.0  0.39899  0.56157  0.42738  1.0000
  S   S154      1.0  0.41378  0.57024  0.41893  1.0000
  S   S155      1.0  0.37506  0.54381  0.44076  1.0000
  S   S156      1.0  0.39756  0.55457  0.38054  1.0000
  C   C953      1.0  0.33322  0.57435  0.97652  1.0000
  H   H772      1.0  0.39379  0.51141  0.13111  1.0000
  S   S157      1.0  0.46416  0.55519  0.93224  1.0000
  H   H773      1.0  0.41656  0.55459  0.47597  1.0000
  H   H774      1.0  0.42025  0.64632  0.65881  1.0000
  S   S158      1.0  0.48621  0.57738  0.90675  1.0000
  Fe  Fe78      1.0  0.44996  0.62976  0.69405  1.0000
  S   S159      1.0  0.44818  0.63314  0.75274  1.0000
  S   S160      1.0  0.46146  0.63859  0.63457  1.0000
  Fe  Fe79      1.0  0.43266  0.61244  0.73039  1.0000
  S   S161      1.0  0.42905  0.61423  0.79194  1.0000
  S   S162      1.0  0.42484  0.60160  0.70863  1.0000
  Fe  Fe80      1.0  0.43218  0.63042  0.75938  1.0000
  H   H775      1.0  0.39261  0.52325  0.64666  1.0000
  Fe  Fe81      1.0  0.44525  0.61666  0.78077  1.0000
  S   S163      1.0  0.44951  0.60780  0.83268  1.0000
  S   S164      1.0  0.43432  0.62830  0.69851  1.0000
  S   S165      1.0  0.44855  0.61364  0.72140  1.0000
  Fe  Fe82      1.0  0.37719  0.56651  0.80539  1.0000
  S   S166      1.0  0.36515  0.55337  0.84490  1.0000
  S   S167      1.0  0.38546  0.57412  0.83688  1.0000
  Fe  Fe83      1.0  0.37427  0.56439  0.72730  1.0000
  S   S168      1.0  0.36182  0.55099  0.76151  1.0000
  S   S169      1.0  0.38128  0.57102  0.65881  1.0000
  Fe  Fe84      1.0  0.35689  0.55956  0.80388  1.0000
  S   S170      1.0  0.34132  0.55982  0.83538  1.0000
  Fe  Fe85      1.0  0.37139  0.54627  0.79925  1.0000
  S   S171      1.0  0.37322  0.53071  0.82102  1.0000
  S   S172      1.0  0.36869  0.57329  0.76693  1.0000
  S   S173      1.0  0.38412  0.55909  0.76244  1.0000
  Fe  Fe86      1.0  0.43901  0.51367  0.88751  1.0000
  C   C954      1.0  0.28786  0.66512  0.20824  1.0000
  S   S174      1.0  0.45503  0.52093  0.86255  1.0000
  Fe  Fe87      1.0  0.41927  0.51431  0.87365  1.0000
  S   S175      1.0  0.41502  0.52459  0.82492  1.0000
  S   S176      1.0  0.42728  0.52111  0.90834  1.0000
  H   H776      1.0  0.40641  0.55506  0.04590  1.0000
  Fe  Fe88      1.0  0.32184  0.59713  0.28044  1.0000
  S   S177      1.0  0.32931  0.60949  0.22160  1.0000
  S   S178      1.0  0.30626  0.58760  0.30112  1.0000
  Fe  Fe89      1.0  0.34116  0.59678  0.29969  1.0000
  S   S179      1.0  0.35005  0.60879  0.24156  1.0000
  S   S180      1.0  0.34727  0.59076  0.35044  1.0000
  Fe  Fe90      1.0  0.33783  0.61620  0.25552  1.0000
  S   S181      1.0  0.34188  0.63274  0.24138  1.0000
  Fe  Fe91      1.0  0.34094  0.60117  0.21223  1.0000
  S   S182      1.0  0.34753  0.60019  0.14961  1.0000
  S   S183      1.0  0.32926  0.60462  0.31572  1.0000
  S   S184      1.0  0.33318  0.58835  0.26913  1.0000
  H   H777      1.0  0.42438  0.51562  0.07617  1.0000
  H   H778      1.0  0.45756  0.61407  0.61685  1.0000
  C   C955      1.0  0.45649  0.57542  0.83140  1.0000
  H   H779      1.0  0.45319  0.58046  0.58689  1.0000
  H   H780      1.0  0.46587  0.56739  0.80458  1.0000
  C   C956      1.0  0.41003  0.58173  0.60029  1.0000
  C   C957      1.0  0.39744  0.50751  0.15043  1.0000
  C   C958      1.0  0.41724  0.54847  0.65651  1.0000
  H   H781      1.0  0.39320  0.64309  0.43395  1.0000
  C   C959      1.0  0.45562  0.60973  0.59872  1.0000
  H   H782      1.0  0.34926  0.53100  0.68166  1.0000
  Fe  Fe92      1.0  0.31904  0.59918  0.99819  1.0000
  S   S185      1.0  0.31053  0.61066  0.99222  1.0000
  S   S186      1.0  0.31687  0.59015  0.06268  1.0000
  Fe  Fe93      1.0  0.32644  0.60345  0.90717  1.0000
  S   S187      1.0  0.31839  0.61539  0.89478  1.0000
  S   S188      1.0  0.33656  0.60137  0.85216  1.0000
  Fe  Fe94      1.0  0.32383  0.62011  0.94094  1.0000
  S   S189      1.0  0.32877  0.63574  0.93965  1.0000
  Fe  Fe95      1.0  0.30571  0.60482  0.94716  1.0000
  S   S190      1.0  0.28920  0.60285  0.96185  1.0000
  S   S191      1.0  0.33277  0.60897  0.94988  1.0000
  S   S192      1.0  0.31348  0.59256  0.95648  1.0000
  C   C960      1.0  0.26623  0.59312  0.90523  1.0000
  P   P31       1.0  0.40512  0.52565  0.15658  1.0000
  C   C961      1.0  0.27060  0.59694  0.96065  1.0000
  C   C962      1.0  0.28061  0.59894  0.93915  1.0000
  C   C963      1.0  0.28340  0.59785  0.90066  1.0000
  C   C964      1.0  0.27623  0.59500  0.88371  1.0000
  C   C965      1.0  0.30661  0.58694  0.87126  1.0000
  H   H783      1.0  0.26830  0.59768  0.99042  1.0000
  H   H784      1.0  0.29106  0.59941  0.88374  1.0000
  H   H785      1.0  0.27841  0.59436  0.85362  1.0000
  C   C966      1.0  0.48320  0.59099  0.71145  1.0000
  C   C967      1.0  0.35767  0.64292  0.87523  1.0000
  C   C968      1.0  0.34766  0.63824  0.89141  1.0000
  C   C969      1.0  0.34145  0.64106  0.92080  1.0000
  C   C970      1.0  0.34534  0.64844  0.93447  1.0000
  H   H786      1.0  0.49451  0.62801  0.51121  1.0000
  H   H787      1.0  0.34469  0.63264  0.88052  1.0000
  C   C971      1.0  0.47027  0.58090  0.63493  1.0000
  C   C972      1.0  0.29526  0.59545  0.19018  1.0000
  C   C973      1.0  0.33885  0.59791  0.12549  1.0000
  C   C974      1.0  0.34159  0.60123  0.08289  1.0000
  C   C975      1.0  0.33478  0.59927  0.06326  1.0000
  C   C976      1.0  0.32527  0.59372  0.08619  1.0000
  C   C977      1.0  0.32256  0.59035  0.12874  1.0000
  C   C978      1.0  0.32928  0.59257  0.14838  1.0000
  H   H788      1.0  0.34896  0.60537  0.06514  1.0000
  H   H789      1.0  0.33695  0.60178  0.03045  1.0000
  H   H790      1.0  0.31524  0.58600  0.14659  1.0000
  H   H791      1.0  0.32712  0.58996  0.18124  1.0000
  C   C979      1.0  0.35106  0.63794  0.25842  1.0000
  C   C980      1.0  0.35298  0.63255  0.29275  1.0000
  C   C981      1.0  0.35963  0.63714  0.30795  1.0000
  C   C982      1.0  0.36467  0.64705  0.28822  1.0000
  C   C983      1.0  0.36310  0.65232  0.25280  1.0000
  C   C984      1.0  0.35619  0.64782  0.23838  1.0000
  H   H792      1.0  0.34905  0.62495  0.30848  1.0000
  H   H793      1.0  0.29811  0.57839  0.11645  1.0000
  H   H794      1.0  0.36691  0.65996  0.23748  1.0000
  H   H795      1.0  0.35472  0.65204  0.21191  1.0000
  Fe  Fe96      1.0  0.44545  0.50893  0.22308  1.0000
  C   C985      1.0  0.27348  0.62501  0.12197  1.0000
  C   C986      1.0  0.41461  0.55395  0.53793  1.0000
  C   C987      1.0  0.41577  0.54900  0.57502  1.0000
  C   C988      1.0  0.27756  0.59556  0.29039  1.0000
  C   C989      1.0  0.27882  0.58608  0.29335  1.0000
  C   C990      1.0  0.28776  0.58383  0.29551  1.0000
  C   C991      1.0  0.29562  0.59109  0.29327  1.0000
  C   C992      1.0  0.29448  0.60067  0.28847  1.0000
  C   C993      1.0  0.28543  0.60283  0.28796  1.0000
  C   C994      1.0  0.42922  0.54691  0.37881  1.0000
  H   H796      1.0  0.28856  0.57639  0.29930  1.0000
  H   H797      1.0  0.30043  0.60631  0.28709  1.0000
  H   H798      1.0  0.28450  0.61016  0.28602  1.0000
  C   C995      1.0  0.38472  0.52929  0.82526  1.0000
  C   C996      1.0  0.39317  0.53674  0.80246  1.0000
  C   C997      1.0  0.40235  0.53522  0.80345  1.0000
  C   C998      1.0  0.40320  0.52632  0.82798  1.0000
  C   C999      1.0  0.39476  0.51891  0.85172  1.0000
  C   C1000     1.0  0.38555  0.52036  0.84995  1.0000
  H   H799      1.0  0.39269  0.54357  0.78295  1.0000
  H   H800      1.0  0.40882  0.54096  0.78488  1.0000
  H   H801      1.0  0.45603  0.50646  0.32918  1.0000
  H   H802      1.0  0.37905  0.51453  0.86750  1.0000
  C   C1001     1.0  0.33972  0.57133  0.83983  1.0000
  C   C1002     1.0  0.34548  0.58005  0.80965  1.0000
  C   C1003     1.0  0.34416  0.58917  0.81324  1.0000
  C   C1004     1.0  0.33725  0.58969  0.84754  1.0000
  C   C1005     1.0  0.33126  0.58098  0.87728  1.0000
  C   C1006     1.0  0.33245  0.57181  0.87332  1.0000
  H   H803      1.0  0.35083  0.57979  0.78302  1.0000
  H   H804      1.0  0.34860  0.59585  0.78936  1.0000
  H   H805      1.0  0.32576  0.58134  0.90329  1.0000
  H   H806      1.0  0.32786  0.56508  0.89650  1.0000
  C   C1007     1.0  0.41368  0.59443  0.74421  1.0000
  C   C1008     1.0  0.41166  0.59343  0.78537  1.0000
  C   C1009     1.0  0.40294  0.58721  0.81389  1.0000
  C   C1010     1.0  0.39618  0.58210  0.80105  1.0000
  C   C1011     1.0  0.39804  0.58336  0.75972  1.0000
  C   C1012     1.0  0.40682  0.58949  0.73129  1.0000
  H   H807      1.0  0.41692  0.59721  0.79546  1.0000
  H   H808      1.0  0.40148  0.58627  0.84587  1.0000
  H   H809      1.0  0.39272  0.57961  0.74958  1.0000
  H   H810      1.0  0.40830  0.59036  0.69936  1.0000
  C   C1013     1.0  0.47970  0.60090  0.80694  1.0000
  C   C1014     1.0  0.47772  0.60800  0.77705  1.0000
  C   C1015     1.0  0.46845  0.61012  0.78443  1.0000
  C   C1016     1.0  0.46123  0.60537  0.82219  1.0000
  C   C1017     1.0  0.46329  0.59843  0.85230  1.0000
  C   C1018     1.0  0.47242  0.59604  0.84441  1.0000
  H   H811      1.0  0.48336  0.61188  0.74823  1.0000
  H   H812      1.0  0.46692  0.61556  0.76135  1.0000
  H   H813      1.0  0.45774  0.59478  0.88159  1.0000
  H   H814      1.0  0.47392  0.59058  0.86749  1.0000
  C   C1019     1.0  0.46177  0.54529  0.91483  1.0000
  C   C1020     1.0  0.46890  0.54418  0.88284  1.0000
  C   C1021     1.0  0.46690  0.53641  0.86808  1.0000
  C   C1022     1.0  0.45774  0.52985  0.88471  1.0000
  C   C1023     1.0  0.45070  0.53077  0.91753  1.0000
  C   C1024     1.0  0.45270  0.53853  0.93250  1.0000
  H   H815      1.0  0.47595  0.54930  0.86927  1.0000
  H   H816      1.0  0.47245  0.53553  0.84366  1.0000
  H   H817      1.0  0.44373  0.52550  0.93153  1.0000
  H   H818      1.0  0.44720  0.53934  0.95738  1.0000
  C   C1025     1.0  0.37106  0.55620  0.57453  1.0000
  C   C1026     1.0  0.38028  0.56265  0.56089  1.0000
  C   C1027     1.0  0.38327  0.56730  0.58672  1.0000
  C   C1028     1.0  0.37713  0.56538  0.62662  1.0000
  C   C1029     1.0  0.36787  0.55902  0.64007  1.0000
  C   C1030     1.0  0.36483  0.55449  0.61404  1.0000
  H   H819      1.0  0.38513  0.56403  0.53052  1.0000
  H   H820      1.0  0.39042  0.57227  0.57593  1.0000
  H   H821      1.0  0.36305  0.55760  0.67055  1.0000
  H   H822      1.0  0.35768  0.54954  0.62474  1.0000
  C   C1031     1.0  0.37053  0.57286  0.33911  1.0000
  C   C1032     1.0  0.36601  0.57410  0.37617  1.0000
  C   C1033     1.0  0.35915  0.57989  0.37865  1.0000
  C   C1034     1.0  0.35646  0.58417  0.34468  1.0000
  C   C1035     1.0  0.36109  0.58308  0.30739  1.0000
  C   C1036     1.0  0.36824  0.57759  0.30451  1.0000
  H   H823      1.0  0.36778  0.57060  0.40294  1.0000
  H   H824      1.0  0.35585  0.58101  0.40713  1.0000
  H   H825      1.0  0.35912  0.58642  0.28092  1.0000
  H   H826      1.0  0.37176  0.57672  0.27565  1.0000
  C   C1037     1.0  0.45589  0.63885  0.51525  1.0000
  C   C1038     1.0  0.46397  0.64520  0.51602  1.0000
  C   C1039     1.0  0.46569  0.64476  0.55268  1.0000
  C   C1040     1.0  0.45912  0.63823  0.58941  1.0000
  C   C1041     1.0  0.45092  0.63186  0.58909  1.0000
  C   C1042     1.0  0.44938  0.63206  0.55183  1.0000
  H   H827      1.0  0.46899  0.65049  0.48794  1.0000
  C   C1043     1.0  0.26703  0.56116  0.88077  1.0000
  H   H828      1.0  0.44580  0.62681  0.61740  1.0000
  H   H829      1.0  0.44307  0.62718  0.55149  1.0000
  C   C1044     1.0  0.43250  0.64684  0.31366  1.0000
  C   C1045     1.0  0.29315  0.55048  0.90370  1.0000
  H   H830      1.0  0.29129  0.58355  0.01631  1.0000
  H   H831      1.0  0.47741  0.59283  0.73179  1.0000
  H   H832      1.0  0.33331  0.57012  0.44015  1.0000
  C   C1046     1.0  0.43038  0.65021  0.34703  1.0000
  H   H833      1.0  0.25686  0.56659  0.18604  1.0000
  H   H834      1.0  0.44762  0.59570  0.53086  1.0000
  C   C1047     1.0  0.42519  0.54051  0.31716  1.0000
  H   H835      1.0  0.43340  0.64779  0.37108  1.0000
  C   C1048     1.0  0.41333  0.59411  0.47839  1.0000
  C   C1049     1.0  0.40449  0.58822  0.48151  1.0000
  C   C1050     1.0  0.40452  0.58051  0.46499  1.0000
  C   C1051     1.0  0.41340  0.57877  0.44517  1.0000
  C   C1052     1.0  0.42217  0.58422  0.44471  1.0000
  C   C1053     1.0  0.42211  0.59179  0.46171  1.0000
  H   H836      1.0  0.39765  0.58982  0.49519  1.0000
  H   H837      1.0  0.39771  0.57615  0.46647  1.0000
  H   H838      1.0  0.42905  0.58281  0.43015  1.0000
  H   H839      1.0  0.42894  0.59601  0.46086  1.0000
  C   C1054     1.0  0.40875  0.51896  0.32477  1.0000
  C   C1055     1.0  0.40374  0.52650  0.32254  1.0000
  C   C1056     1.0  0.39960  0.52900  0.35729  1.0000
  C   C1057     1.0  0.40025  0.52381  0.39484  1.0000
  C   C1058     1.0  0.40526  0.51626  0.39714  1.0000
  C   C1059     1.0  0.44985  0.59940  0.55053  1.0000
  H   H840      1.0  0.40309  0.53047  0.29372  1.0000
  H   H841      1.0  0.39574  0.53480  0.35519  1.0000
  H   H842      1.0  0.47197  0.60737  0.70083  1.0000
  H   H843      1.0  0.37787  0.64001  0.93885  1.0000
  C   C1060     1.0  0.47804  0.59746  0.29762  1.0000
  C   C1061     1.0  0.47633  0.60656  0.30004  1.0000
  C   C1062     1.0  0.46910  0.60707  0.33359  1.0000
  C   C1063     1.0  0.46354  0.59847  0.36510  1.0000
  C   C1064     1.0  0.46516  0.58935  0.36245  1.0000
  C   C1065     1.0  0.47236  0.58883  0.32875  1.0000
  H   H844      1.0  0.49392  0.60350  0.70697  1.0000
  H   H845      1.0  0.46800  0.61414  0.33554  1.0000
  H   H846      1.0  0.46086  0.58267  0.38667  1.0000
  H   H847      1.0  0.47363  0.58180  0.32715  1.0000
  C   C1066     1.0  0.46253  0.54460  0.24279  1.0000
  C   C1067     1.0  0.45336  0.53834  0.25284  1.0000
  C   C1068     1.0  0.45225  0.53112  0.23425  1.0000
  C   C1069     1.0  0.46035  0.53001  0.20624  1.0000
  C   C1070     1.0  0.46941  0.53653  0.19495  1.0000
  C   C1071     1.0  0.47044  0.54386  0.21289  1.0000
  H   H848      1.0  0.44714  0.53906  0.27505  1.0000
  H   H849      1.0  0.44512  0.52647  0.24144  1.0000
  H   H850      1.0  0.47568  0.53584  0.17281  1.0000
  H   H851      1.0  0.47740  0.54884  0.20357  1.0000
  C   C1072     1.0  0.32026  0.62140  0.06194  1.0000
  C   C1073     1.0  0.31684  0.61478  0.10146  1.0000
  C   C1074     1.0  0.32271  0.61454  0.12638  1.0000
  C   C1075     1.0  0.33204  0.62083  0.11166  1.0000
  C   C1076     1.0  0.33556  0.62746  0.07178  1.0000
  C   C1077     1.0  0.32958  0.62766  0.04710  1.0000
  P   P32       1.0  0.34778  0.63536  0.05152  1.0000
  C   C1078     1.0  0.34762  0.64829  0.03664  1.0000
  C   C1079     1.0  0.35611  0.65548  0.02872  1.0000
  H   H852      1.0  0.31157  0.54084  0.86191  1.0000
  H   H853      1.0  0.25265  0.62013  0.25849  1.0000
  H   H854      1.0  0.25214  0.58731  0.06475  1.0000
  C   C1080     1.0  0.33909  0.65135  0.03370  1.0000
  C   C1081     1.0  0.35497  0.63264  0.00814  1.0000
  C   C1082     1.0  0.36482  0.63770  0.98854  1.0000
  C   C1083     1.0  0.35096  0.62539  0.99396  1.0000
  H   H855      1.0  0.31576  0.62163  0.04245  1.0000
  H   H856      1.0  0.30973  0.60971  0.11248  1.0000
  H   H857      1.0  0.32012  0.60930  0.15683  1.0000
  H   H858      1.0  0.33653  0.62034  0.13128  1.0000
  H   H859      1.0  0.33221  0.63255  0.01600  1.0000
  H   H860      1.0  0.36268  0.65340  0.03239  1.0000
  H   H861      1.0  0.41178  0.51075  0.20861  1.0000
  H   H862      1.0  0.25634  0.64061  0.80714  1.0000
  H   H863      1.0  0.41680  0.66380  0.59487  1.0000
  C   C1084     1.0  0.41404  0.51106  0.52410  1.0000
  H   H864      1.0  0.36819  0.64321  0.99892  1.0000
  C   C1085     1.0  0.42133  0.56703  0.77911  1.0000
  C   C1086     1.0  0.41378  0.56389  0.76472  1.0000
  C   C1087     1.0  0.41415  0.56851  0.72480  1.0000
  C   C1088     1.0  0.42205  0.57629  0.69889  1.0000
  C   C1089     1.0  0.42970  0.57929  0.71261  1.0000
  C   C1090     1.0  0.42946  0.57453  0.75219  1.0000
  H   H865      1.0  0.42022  0.55857  0.91461  1.0000
  H   H866      1.0  0.42375  0.57012  0.95114  1.0000
  H   H867      1.0  0.40750  0.55798  0.78414  1.0000
  H   H868      1.0  0.40812  0.56630  0.71448  1.0000
  H   H869      1.0  0.42209  0.58020  0.66865  1.0000
  H   H870      1.0  0.43564  0.58557  0.69301  1.0000
  H   H871      1.0  0.43544  0.57695  0.76231  1.0000
  H   H872      1.0  0.40102  0.56765  0.63969  1.0000
  C   C1091     1.0  0.28224  0.66856  0.98661  1.0000
  P   P33       1.0  0.41162  0.55304  0.61854  1.0000
  C   C1092     1.0  0.26910  0.57822  0.05564  1.0000
  C   C1093     1.0  0.41460  0.56632  0.60094  1.0000
  C   C1094     1.0  0.39191  0.66120  0.75746  1.0000
  C   C1095     1.0  0.42547  0.58183  0.55399  1.0000
  C   C1096     1.0  0.42344  0.57159  0.57001  1.0000
  C   C1097     1.0  0.42441  0.55478  0.66340  1.0000
  C   C1098     1.0  0.42836  0.55116  0.69414  1.0000
  C   C1099     1.0  0.39858  0.54840  0.64170  1.0000
  C   C1100     1.0  0.39419  0.54723  0.68292  1.0000
  C   C1101     1.0  0.38407  0.54395  0.70071  1.0000
  C   C1102     1.0  0.37829  0.54187  0.67759  1.0000
  C   C1103     1.0  0.38259  0.54277  0.63693  1.0000
  C   C1104     1.0  0.39269  0.54617  0.61878  1.0000
  H   H873      1.0  0.41139  0.56026  0.53484  1.0000
  H   H874      1.0  0.43205  0.58584  0.52869  1.0000
  H   H875      1.0  0.42862  0.56777  0.55724  1.0000
  H   H876      1.0  0.42683  0.56251  0.64570  1.0000
  H   H877      1.0  0.43370  0.55605  0.70018  1.0000
  H   H878      1.0  0.39852  0.54905  0.70121  1.0000
  H   H879      1.0  0.38066  0.54303  0.73244  1.0000
  H   H880      1.0  0.37045  0.53986  0.69098  1.0000
  H   H881      1.0  0.37806  0.54121  0.61897  1.0000
  H   H882      1.0  0.39576  0.54725  0.58674  1.0000
  C   C1105     1.0  0.48468  0.60438  0.50526  1.0000
  H   H883      1.0  0.48235  0.56477  0.75299  1.0000
  C   C1106     1.0  0.29315  0.56875  0.03331  1.0000
  H   H884      1.0  0.40571  0.51215  0.42612  1.0000
  C   C1107     1.0  0.31292  0.55608  0.85702  1.0000
  H   H885      1.0  0.29182  0.58368  0.43380  1.0000
  C   C1108     1.0  0.45527  0.61041  0.24061  1.0000
  H   H886      1.0  0.28200  0.56056  0.85905  1.0000
  Fe  Fe97      1.0  0.49730  0.56493  0.82694  1.0000
  H   H887      1.0  0.47259  0.51244  0.91725  1.0000
  H   H888      1.0  0.38024  0.64879  0.79672  1.0000
  C   C1109     1.0  0.26287  0.56824  0.93468  1.0000
  H   H889      1.0  0.47809  0.58301  0.62755  1.0000
  H   H890      1.0  0.37342  0.60321  0.77978  1.0000
  H   H891      1.0  0.28547  0.65722  0.22303  1.0000
  C   C1110     1.0  0.34549  0.55181  0.44924  1.0000
  H   H892      1.0  0.38104  0.62416  0.35426  1.0000
  C   C1111     1.0  0.30781  0.54626  0.86985  1.0000
  C   C1112     1.0  0.40157  0.64120  0.62170  1.0000
  H   H893      1.0  0.46428  0.52208  0.95599  1.0000
  C   C1113     1.0  0.42583  0.59407  0.19035  1.0000
  H   H894      1.0  0.47711  0.54471  0.30632  1.0000
  H   H895      1.0  0.48819  0.57357  0.66715  1.0000
  C   C1114     1.0  0.42552  0.65306  0.52222  1.0000
  C   C1115     1.0  0.43253  0.65019  0.49552  1.0000
  C   C1116     1.0  0.43569  0.65512  0.45368  1.0000
  C   C1117     1.0  0.43625  0.65402  0.06164  1.0000
  S   S193      1.0  0.48764  0.59724  0.25621  1.0000
  C   C1118     1.0  0.49255  0.51538  0.67043  1.0000
  H   H896      1.0  0.42695  0.63005  0.62747  1.0000
  H   H897      1.0  0.43561  0.64413  0.50703  1.0000
  H   H898      1.0  0.44119  0.65289  0.43345  1.0000
  C   C1119     1.0  0.42873  0.65485  0.98564  1.0000
  C   C1120     1.0  0.44075  0.65331  0.09167  1.0000
  H   H899      1.0  0.49181  0.58745  0.02709  1.0000
  C   C1121     1.0  0.30818  0.56312  0.86744  1.0000
  C   C1122     1.0  0.44573  0.60560  0.60709  1.0000
  C   C1123     1.0  0.44283  0.60045  0.58298  1.0000
  H   H900      1.0  0.44030  0.60666  0.63162  1.0000
  H   H901      1.0  0.43514  0.59753  0.58884  1.0000
  C   C1124     1.0  0.49542  0.51774  0.83331  1.0000
  C   C1125     1.0  0.38739  0.65116  0.77376  1.0000
  H   H902      1.0  0.26730  0.64322  0.84625  1.0000
  C   C1126     1.0  0.48453  0.53470  0.28338  1.0000
  C   C1127     1.0  0.48193  0.53985  0.31061  1.0000
  H   H903      1.0  0.45005  0.65742  0.64726  1.0000
  C   C1128     1.0  0.40796  0.57148  0.61629  1.0000
  C   C1129     1.0  0.42779  0.64930  0.63959  1.0000
  H   H904      1.0  0.45687  0.58891  0.72230  1.0000
  H   H905      1.0  0.44714  0.58458  0.85006  1.0000
  C   C1130     1.0  0.43475  0.65213  0.65698  1.0000
  C   C1131     1.0  0.49661  0.52526  0.64687  1.0000
  C   C1132     1.0  0.41875  0.58689  0.56901  1.0000
  C   C1133     1.0  0.46648  0.56216  0.12261  1.0000
  C   C1134     1.0  0.41751  0.55075  0.50438  1.0000
  H   H906      1.0  0.40467  0.58561  0.61122  1.0000
  C   C1135     1.0  0.46886  0.50418  0.26205  1.0000
  H   H907      1.0  0.40863  0.65377  0.10551  1.0000
  H   H908      1.0  0.46958  0.53441  0.77641  1.0000
  H   H909      1.0  0.35818  0.62036  0.07672  1.0000
  H   H910      1.0  0.34352  0.62111  0.00867  1.0000
  C   C1136     1.0  0.47843  0.62265  0.66685  1.0000
  Fe  Fe98      1.0  0.42064  0.50684  0.95986  1.0000
  C   C1137     1.0  0.42202  0.56642  0.89900  1.0000
  C   C1138     1.0  0.42402  0.57293  0.91976  1.0000
  H   H911      1.0  0.42019  0.59479  0.55542  1.0000
  H   H912      1.0  0.25365  0.61830  0.95608  1.0000
  C   C1139     1.0  0.36628  0.62880  0.94021  1.0000
  C   C1140     1.0  0.35656  0.62359  0.95984  1.0000
  C   C1141     1.0  0.46277  0.60861  0.56648  1.0000
  C   C1142     1.0  0.47462  0.61289  0.67098  1.0000
  P   P34       1.0  0.42149  0.64642  0.57620  1.0000
  H   H913      1.0  0.32139  0.57227  0.03086  1.0000
  H   H914      1.0  0.32850  0.57148  0.96166  1.0000
  H   H915      1.0  0.40117  0.56428  0.84739  1.0000
  C   C1143     1.0  0.35386  0.63307  0.08944  1.0000
  C   C1144     1.0  0.47701  0.61760  0.59837  1.0000
  C   C1145     1.0  0.42320  0.62727  0.60917  1.0000
  H   H916      1.0  0.42445  0.61252  0.63410  1.0000
  C   C1146     1.0  0.47391  0.61036  0.63691  1.0000
  C   C1147     1.0  0.46981  0.54211  0.76327  1.0000
  H   H917      1.0  0.45700  0.53905  0.74608  1.0000
  C   C1148     1.0  0.45977  0.60342  0.54234  1.0000
  C   C1149     1.0  0.43061  0.65009  0.59819  1.0000
  H   H918      1.0  0.36075  0.52150  0.65793  1.0000
  C   C1150     1.0  0.42156  0.54260  0.50743  1.0000
  H   H919      1.0  0.42380  0.54023  0.48117  1.0000
  C   C1151     1.0  0.32922  0.57463  0.01581  1.0000
  H   H920      1.0  0.37055  0.62759  0.91321  1.0000
  C   C1152     1.0  0.46267  0.54474  0.74635  1.0000
  H   H921      1.0  0.45670  0.57196  0.86174  1.0000
  S   S194      1.0  0.41598  0.50911  0.02138  1.0000
  H   H922      1.0  0.35331  0.61827  0.94826  1.0000
  C   C1153     1.0  0.35841  0.62521  0.09472  1.0000
  C   C1154     1.0  0.44460  0.65557  0.63346  1.0000
  H   H923      1.0  0.25272  0.56332  0.90652  1.0000
  C   C1155     1.0  0.49471  0.52760  0.32055  1.0000
  P   P35       1.0  0.42086  0.56136  0.83109  1.0000
  C   C1156     1.0  0.42267  0.57000  0.85788  1.0000
  C   C1157     1.0  0.42653  0.58307  0.89980  1.0000
  H   H924      1.0  0.42827  0.58817  0.91542  1.0000
  H   H925      1.0  0.47074  0.60280  0.64073  1.0000
  C   C1158     1.0  0.47699  0.54941  0.76470  1.0000
  P   P36       1.0  0.47556  0.61430  0.55496  1.0000
  C   C1159     1.0  0.48062  0.62742  0.59476  1.0000
  C   C1160     1.0  0.39385  0.59612  0.25325  1.0000
  C   C1161     1.0  0.35305  0.52747  0.70139  1.0000
  C   C1162     1.0  0.40063  0.55659  0.86240  1.0000
  C   C1163     1.0  0.41976  0.54073  0.57798  1.0000
  C   C1164     1.0  0.34329  0.57772  0.95654  1.0000
  H   H926      1.0  0.35685  0.60099  0.98223  1.0000
  H   H927      1.0  0.36510  0.61191  0.01154  1.0000
  H   H928      1.0  0.34627  0.57730  0.92626  1.0000
  H   H929      1.0  0.47651  0.50534  0.38079  1.0000
  H   H930      1.0  0.46497  0.60273  0.51633  1.0000
  H   H931      1.0  0.35001  0.64476  0.11269  1.0000
  C   C1165     1.0  0.42689  0.58669  0.85935  1.0000
  C   C1166     1.0  0.42490  0.58021  0.83850  1.0000
  H   H932      1.0  0.38494  0.55292  0.88169  1.0000
  H   H933      1.0  0.43821  0.56204  0.85942  1.0000
  C   C1167     1.0  0.42265  0.53756  0.54423  1.0000
  C   C1168     1.0  0.42526  0.54123  0.71782  1.0000
  C   C1169     1.0  0.41407  0.53853  0.68098  1.0000
  C   C1170     1.0  0.33533  0.57794  0.03576  1.0000
  H   H934      1.0  0.41206  0.58714  0.28076  1.0000
  C   C1171     1.0  0.46172  0.57286  0.79876  1.0000
  C   C1172     1.0  0.46255  0.55464  0.73171  1.0000
  H   H935      1.0  0.45674  0.55643  0.72008  1.0000
  H   H936      1.0  0.33223  0.57798  0.06653  1.0000
  C   C1173     1.0  0.35378  0.63888  0.11492  1.0000
  H   H937      1.0  0.36671  0.51525  0.77226  1.0000
  C   C1174     1.0  0.39140  0.55017  0.88218  1.0000
  C   C1175     1.0  0.40908  0.55303  0.86024  1.0000
  C   C1176     1.0  0.43034  0.55467  0.82821  1.0000
  H   H938      1.0  0.42887  0.59456  0.84395  1.0000
  C   C1177     1.0  0.40961  0.51391  0.36212  1.0000
  C   C1178     1.0  0.36405  0.60050  0.98402  1.0000
  C   C1179     1.0  0.36872  0.60676  0.00034  1.0000
  C   C1180     1.0  0.34943  0.58149  0.97574  1.0000
  C   C1181     1.0  0.34539  0.58129  0.01600  1.0000
  C   C1182     1.0  0.44053  0.65359  0.57475  1.0000
  C   C1183     1.0  0.44747  0.65636  0.59237  1.0000
  H   H939      1.0  0.39701  0.58182  0.26484  1.0000
  H   H940      1.0  0.42515  0.58325  0.80740  1.0000
  H   H941      1.0  0.42068  0.53672  0.60610  1.0000
  C   C1184     1.0  0.40975  0.61341  0.38241  1.0000
  H   H942      1.0  0.39351  0.60270  0.53738  1.0000
  H   H943      1.0  0.29189  0.60885  0.19801  1.0000
  H   H944      1.0  0.42822  0.53840  0.74188  1.0000
  C   C1185     1.0  0.47690  0.55930  0.75016  1.0000
  C   C1186     1.0  0.42179  0.61729  0.61310  1.0000
  H   H945      1.0  0.35505  0.54972  0.48560  1.0000
  C   C1187     1.0  0.43775  0.55642  0.84522  1.0000
  C   C1188     1.0  0.37804  0.60636  0.00250  1.0000
  H   H946      1.0  0.38161  0.61122  0.01522  1.0000
  H   H947      1.0  0.46302  0.50475  0.24890  1.0000
  C   C1189     1.0  0.39937  0.58939  0.26343  1.0000
  H   H948      1.0  0.34996  0.58365  0.03249  1.0000
  C   C1190     1.0  0.46967  0.56202  0.73347  1.0000
  C   C1191     1.0  0.40778  0.59236  0.27274  1.0000
  H   H949      1.0  0.41024  0.60697  0.40475  1.0000
  H   H950      1.0  0.38511  0.59611  0.81024  1.0000
  H   H951      1.0  0.38046  0.58842  0.88449  1.0000
  C   C1192     1.0  0.45112  0.58251  0.82486  1.0000
  C   C1193     1.0  0.45987  0.55479  0.38832  1.0000
  H   H952      1.0  0.46597  0.62360  0.49659  1.0000
  C   C1194     1.0  0.33923  0.66136  0.02092  1.0000
  H   H953      1.0  0.26252  0.58099  0.37235  1.0000
  H   H954      1.0  0.42438  0.54582  0.79694  1.0000
  C   C1195     1.0  0.38655  0.60159  0.53192  1.0000
  H   H955      1.0  0.37904  0.59069  0.59081  1.0000
  P   P37       1.0  0.36249  0.58522  0.95104  1.0000
  C   C1196     1.0  0.36860  0.59358  0.97078  1.0000
  C   C1197     1.0  0.36606  0.59139  0.89698  1.0000
  C   C1198     1.0  0.37151  0.60019  0.81245  1.0000
  C   C1199     1.0  0.37805  0.59612  0.82967  1.0000
  C   C1200     1.0  0.37537  0.59178  0.87181  1.0000
  C   C1201     1.0  0.27638  0.58480  0.09890  1.0000
  C   C1202     1.0  0.43203  0.53849  0.37235  1.0000
  H   H956      1.0  0.30956  0.58407  0.89527  1.0000
  C   C1203     1.0  0.37841  0.59482  0.56204  1.0000
  H   H957      1.0  0.39241  0.61144  0.47062  1.0000
  H   H958      1.0  0.37801  0.59591  0.32614  1.0000
  C   C1204     1.0  0.35970  0.59592  0.87957  1.0000
  C   C1205     1.0  0.36243  0.60022  0.83740  1.0000
  H   H959      1.0  0.35258  0.59604  0.89816  1.0000
  H   H960      1.0  0.35746  0.60358  0.82399  1.0000
  H   H961      1.0  0.25775  0.62899  0.34561  1.0000
  C   C1206     1.0  0.34130  0.55745  0.35125  1.0000
  H   H962      1.0  0.41723  0.60424  0.27904  1.0000
  C   C1207     1.0  0.41060  0.60203  0.27233  1.0000
  H   H963      1.0  0.40831  0.60582  0.34065  1.0000
  C   C1208     1.0  0.46171  0.57746  0.75922  1.0000
  H   H964      1.0  0.38739  0.66748  0.15984  1.0000
  H   H965      1.0  0.44738  0.59308  0.78059  1.0000
  C   C1209     1.0  0.41116  0.65704  0.83581  1.0000
  H   H966      1.0  0.29077  0.54310  0.19719  1.0000
  C   C1210     1.0  0.41992  0.63355  0.58140  1.0000
  C   C1211     1.0  0.25537  0.61672  0.85483  1.0000
  C   C1212     1.0  0.28938  0.60213  0.19223  1.0000
  H   H967      1.0  0.30232  0.59696  0.19453  1.0000
  C   C1213     1.0  0.43014  0.54737  0.80958  1.0000
  C   C1214     1.0  0.38586  0.60660  0.49417  1.0000
  H   H968      1.0  0.37294  0.60713  0.36325  1.0000
  C   C1215     1.0  0.38276  0.59974  0.98806  1.0000
  C   C1216     1.0  0.37809  0.59342  0.97193  1.0000
  S   S195      1.0  0.41360  0.51605  0.28015  1.0000
  H   H969      1.0  0.43256  0.65136  0.68908  1.0000
  H   H970      1.0  0.38730  0.59379  0.24620  1.0000
  C   C1217     1.0  0.26346  0.59399  0.94404  1.0000
  C   C1218     1.0  0.39053  0.54021  0.90132  1.0000
  C   C1219     1.0  0.40817  0.54307  0.88073  1.0000
  C   C1220     1.0  0.38095  0.59663  0.35005  1.0000
  C   C1221     1.0  0.37805  0.60296  0.37146  1.0000
  H   H971      1.0  0.34455  0.59395  0.43305  1.0000
  H   H972      1.0  0.38922  0.58570  0.34514  1.0000
  C   C1222     1.0  0.36635  0.57385  0.96048  1.0000
  H   H973      1.0  0.36534  0.57149  0.90462  1.0000
  H   H974      1.0  0.39004  0.59951  0.98927  1.0000
  H   H975      1.0  0.41140  0.62282  0.41835  1.0000
  C   C1223     1.0  0.40871  0.61282  0.34562  1.0000
  C   C1224     1.0  0.26946  0.64420  0.93702  1.0000
  C   C1225     1.0  0.45123  0.58728  0.78554  1.0000
  C   C1226     1.0  0.39658  0.60576  0.25336  1.0000
  P   P38       1.0  0.46926  0.57480  0.71677  1.0000
  C   C1227     1.0  0.39047  0.62597  0.27157  1.0000
  H   H976      1.0  0.36240  0.64087  0.85183  1.0000
  C   C1228     1.0  0.47975  0.62482  0.50915  1.0000
  H   H977      1.0  0.29511  0.55405  0.04132  1.0000
  C   C1229     1.0  0.44465  0.55073  0.84469  1.0000
  H   H978      1.0  0.45023  0.55193  0.85867  1.0000
  C   C1230     1.0  0.37693  0.60498  0.48636  1.0000
  C   C1231     1.0  0.34879  0.60067  0.43360  1.0000
  C   C1232     1.0  0.36950  0.59321  0.55473  1.0000
  C   C1233     1.0  0.38727  0.59090  0.36065  1.0000
  H   H979      1.0  0.36066  0.59432  0.44251  1.0000
  H   H980      1.0  0.33832  0.60904  0.42189  1.0000
  H   H981      1.0  0.36322  0.58788  0.57804  1.0000
  C   C1234     1.0  0.36685  0.56861  0.93280  1.0000
  H   H982      1.0  0.36698  0.57331  0.02027  1.0000
  H   H983      1.0  0.38189  0.58842  0.96041  1.0000
  C   C1235     1.0  0.40481  0.60871  0.26429  1.0000
  C   C1236     1.0  0.41039  0.62234  0.39017  1.0000
  C   C1237     1.0  0.45659  0.58486  0.75269  1.0000
  C   C1238     1.0  0.48146  0.58256  0.70006  1.0000
  H   H984      1.0  0.39217  0.61079  0.24512  1.0000
  H   H985      1.0  0.38337  0.53519  0.91560  1.0000
  H   H986      1.0  0.40136  0.65125  0.18623  1.0000
  C   C1239     1.0  0.35795  0.60094  0.43878  1.0000
  C   C1240     1.0  0.34529  0.60919  0.42712  1.0000
  C   C1241     1.0  0.36874  0.59828  0.51716  1.0000
  C   C1242     1.0  0.38129  0.60346  0.40438  1.0000
  C   C1243     1.0  0.36783  0.56963  0.99761  1.0000
  H   H987      1.0  0.29333  0.56867  0.06317  1.0000
  H   H988      1.0  0.29675  0.59737  0.78298  1.0000
  H   H989      1.0  0.26689  0.57939  0.02868  1.0000
  H   H990      1.0  0.41224  0.64077  0.20464  1.0000
  C   C1244     1.0  0.40993  0.63068  0.36121  1.0000
  H   H991      1.0  0.39692  0.62043  0.93316  1.0000
  H   H992      1.0  0.30951  0.63361  0.87442  1.0000
  H   H993      1.0  0.36976  0.55561  0.91944  1.0000
  C   C1245     1.0  0.39892  0.53670  0.90119  1.0000
  H   H994      1.0  0.41452  0.54008  0.88033  1.0000
  C   C1246     1.0  0.36931  0.55953  0.94122  1.0000
  C   C1247     1.0  0.29416  0.56054  0.02091  1.0000
  P   P39       1.0  0.37630  0.61050  0.43590  1.0000
  C   C1248     1.0  0.36377  0.60980  0.43681  1.0000
  C   C1249     1.0  0.35089  0.61796  0.42642  1.0000
  C   C1250     1.0  0.36008  0.61827  0.43136  1.0000
  C   C1251     1.0  0.39089  0.59167  0.39202  1.0000
  H   H995      1.0  0.34823  0.62460  0.42084  1.0000
  C   C1252     1.0  0.40835  0.62120  0.31602  1.0000
  C   C1253     1.0  0.37033  0.56055  0.00588  1.0000
  C   C1254     1.0  0.29820  0.58141  0.86875  1.0000
  C   C1255     1.0  0.25016  0.65127  0.10525  1.0000
  C   C1256     1.0  0.43699  0.54164  0.80939  1.0000
  C   C1257     1.0  0.37113  0.55553  0.97755  1.0000
  C   C1258     1.0  0.38785  0.59783  0.41410  1.0000
  H   H996      1.0  0.36437  0.62522  0.42963  1.0000
  H   H997      1.0  0.36179  0.59675  0.51212  1.0000
  H   H998      1.0  0.39594  0.58735  0.39978  1.0000
  P   P40       1.0  0.40837  0.62106  0.26588  1.0000
  H   H999      1.0  0.38735  0.61904  0.29601  1.0000
  H   H1000     1.0  0.48134  0.60790  0.48363  1.0000
  H   H1001     1.0  0.39427  0.63707  0.90695  1.0000
  C   C1259     1.0  0.44421  0.54329  0.82711  1.0000
  H   H1002     1.0  0.40837  0.53359  0.67690  1.0000
  H   H1003     1.0  0.37153  0.55735  0.03443  1.0000
  C   C1260     1.0  0.41016  0.65798  0.60807  1.0000
  C   C1261     1.0  0.40893  0.63014  0.32432  1.0000
  H   H1004     1.0  0.41060  0.63766  0.36687  1.0000
  C   C1262     1.0  0.48933  0.58017  0.67544  1.0000
  C   C1263     1.0  0.46415  0.57684  0.67556  1.0000
  H   H1005     1.0  0.44016  0.53962  0.18600  1.0000
  H   H1006     1.0  0.42569  0.53116  0.54662  1.0000
  H   H1007     1.0  0.37304  0.54848  0.98385  1.0000
  C   C1264     1.0  0.38296  0.62328  0.41235  1.0000
  C   C1265     1.0  0.29395  0.56070  0.98217  1.0000
  H   H1008     1.0  0.38495  0.62551  0.46708  1.0000
  H   H1009     1.0  0.39060  0.59802  0.43887  1.0000
  H   H1010     1.0  0.40071  0.53054  0.57265  1.0000
  C   C1266     1.0  0.41697  0.61348  0.58990  1.0000
  S   S196      1.0  0.49134  0.59830  0.79729  1.0000
  C   C1267     1.0  0.39464  0.62234  0.90648  1.0000
  C   C1268     1.0  0.27454  0.61926  0.98133  1.0000
  H   H1011     1.0  0.46518  0.56064  0.36272  1.0000
  C   C1269     1.0  0.28005  0.59991  0.18907  1.0000
  H   H1012     1.0  0.39826  0.52895  0.91564  1.0000
  H   H1013     1.0  0.43647  0.53564  0.79702  1.0000
  C   C1270     1.0  0.38612  0.62881  0.43505  1.0000
  C   C1271     1.0  0.29195  0.57711  0.00701  1.0000
  H   H1014     1.0  0.40889  0.63679  0.30190  1.0000
  C   C1272     1.0  0.40946  0.53320  0.03385  1.0000
  C   C1273     1.0  0.42071  0.62595  0.23138  1.0000
  H   H1015     1.0  0.42727  0.62795  0.27696  1.0000
  C   C1274     1.0  0.40055  0.62886  0.25074  1.0000
  C   C1275     1.0  0.38435  0.63203  0.26119  1.0000
  C   C1276     1.0  0.47360  0.62738  0.48612  1.0000
  C   C1277     1.0  0.39313  0.63170  0.89182  1.0000
  H   H1016     1.0  0.39454  0.60826  0.89754  1.0000
  C   C1278     1.0  0.29276  0.56912  0.95547  1.0000
  C   C1279     1.0  0.38397  0.62809  0.37161  1.0000
  C   C1280     1.0  0.42847  0.62864  0.24529  1.0000
  H   H1017     1.0  0.41583  0.60574  0.59323  1.0000
  H   H1018     1.0  0.43059  0.54942  0.40289  1.0000
  H   H1019     1.0  0.44937  0.53870  0.82781  1.0000
  C   C1281     1.0  0.41810  0.53494  0.71135  1.0000
  C   C1282     1.0  0.39066  0.63885  0.41659  1.0000
  C   C1283     1.0  0.29178  0.57732  0.96827  1.0000
  H   H1020     1.0  0.41674  0.62483  0.17889  1.0000
  C   C1284     1.0  0.45400  0.57413  0.68375  1.0000
  C   C1285     1.0  0.46632  0.58224  0.60313  1.0000
  H   H1021     1.0  0.44912  0.57092  0.71483  1.0000
  H   H1022     1.0  0.47108  0.58539  0.57186  1.0000
  H   H1023     1.0  0.27530  0.60485  0.19294  1.0000
  H   H1024     1.0  0.37657  0.62980  0.27756  1.0000
  C   C1286     1.0  0.43682  0.64594  0.92880  1.0000
  C   C1287     1.0  0.39334  0.61551  0.88636  1.0000
  C   C1288     1.0  0.41624  0.53057  0.16483  1.0000
  H   H1025     1.0  0.28828  0.58113  0.83362  1.0000
  C   C1289     1.0  0.43356  0.53741  0.17909  1.0000
  C   C1290     1.0  0.38827  0.64108  0.23020  1.0000
  C   C1291     1.0  0.40446  0.63806  0.22000  1.0000
  C   C1292     1.0  0.42264  0.62690  0.19010  1.0000
  C   C1293     1.0  0.29190  0.58663  0.18409  1.0000
  H   H1026     1.0  0.29650  0.58147  0.18402  1.0000
  P   P41       1.0  0.29217  0.56939  0.90575  1.0000
  H   H1027     1.0  0.29471  0.55425  0.97335  1.0000
  C   C1294     1.0  0.26145  0.61814  0.87780  1.0000
  C   C1295     1.0  0.45307  0.54806  0.38181  1.0000
  C   C1296     1.0  0.32476  0.53612  0.46344  1.0000
  H   H1028     1.0  0.27449  0.57331  0.95503  1.0000
  C   C1297     1.0  0.38834  0.63815  0.35346  1.0000
  H   H1029     1.0  0.29090  0.58390  0.94827  1.0000
  C   C1298     1.0  0.48316  0.60608  0.54277  1.0000
  C   C1299     1.0  0.45009  0.57540  0.65180  1.0000
  H   H1030     1.0  0.27809  0.55236  0.20827  1.0000
  C   C1300     1.0  0.39178  0.64351  0.37580  1.0000
  H   H1031     1.0  0.31785  0.60040  0.84449  1.0000
  C   C1301     1.0  0.38632  0.51813  0.72909  1.0000
  C   C1302     1.0  0.39831  0.64408  0.20953  1.0000
  C   C1303     1.0  0.29474  0.58521  0.83645  1.0000
  C   C1304     1.0  0.45624  0.57947  0.61156  1.0000
  H   H1032     1.0  0.47162  0.51793  0.73218  1.0000
  H   H1033     1.0  0.44381  0.63477  0.22928  1.0000
  C   C1305     1.0  0.43797  0.63244  0.21815  1.0000
  C   C1306     1.0  0.41512  0.62968  0.55800  1.0000
  C   C1307     1.0  0.39042  0.63430  0.85677  1.0000
  C   C1308     1.0  0.39075  0.61813  0.85104  1.0000
  H   H1034     1.0  0.37031  0.61879  0.85990  1.0000
  H   H1035     1.0  0.35250  0.61589  0.87405  1.0000
  C   C1309     1.0  0.26583  0.62766  0.87526  1.0000
  H   H1036     1.0  0.26287  0.55565  0.31820  1.0000
  C   C1310     1.0  0.29953  0.59445  0.80755  1.0000
  H   H1037     1.0  0.39521  0.65132  0.36158  1.0000
  C   C1311     1.0  0.45288  0.54657  0.46082  1.0000
  C   C1312     1.0  0.43987  0.63336  0.17712  1.0000
  C   C1313     1.0  0.43220  0.63058  0.16308  1.0000
  H   H1038     1.0  0.44033  0.53013  0.13850  1.0000
  C   C1314     1.0  0.42436  0.55203  0.35475  1.0000
  C   C1315     1.0  0.41366  0.61968  0.56228  1.0000
  H   H1039     1.0  0.38928  0.64160  0.84618  1.0000
  H   H1040     1.0  0.31077  0.56907  0.10618  1.0000
  H   H1041     1.0  0.38353  0.64587  0.22289  1.0000
  H   H1042     1.0  0.30718  0.55140  0.14640  1.0000
  H   H1043     1.0  0.38890  0.64186  0.32224  1.0000
  H   H1044     1.0  0.43364  0.63133  0.13124  1.0000
  H   H1045     1.0  0.44229  0.57325  0.65803  1.0000
  C   C1316     1.0  0.27251  0.56963  0.93493  1.0000
  H   H1046     1.0  0.25028  0.62689  0.07369  1.0000
  C   C1317     1.0  0.29823  0.56039  0.89071  1.0000
  C   C1318     1.0  0.43871  0.51393  0.38971  1.0000
  C   C1319     1.0  0.30785  0.59993  0.81051  1.0000
  H   H1047     1.0  0.34149  0.57384  0.48755  1.0000
  C   C1320     1.0  0.27669  0.59113  0.18261  1.0000
  C   C1321     1.0  0.28269  0.58452  0.17917  1.0000
  C   C1322     1.0  0.38955  0.62764  0.83527  1.0000
  H   H1048     1.0  0.31159  0.60708  0.78813  1.0000
  C   C1323     1.0  0.31137  0.59617  0.84235  1.0000
  H   H1049     1.0  0.33108  0.56258  0.32122  1.0000
  C   C1324     1.0  0.27511  0.62815  0.08011  1.0000
  C   C1325     1.0  0.25010  0.64184  0.04251  1.0000
  H   H1050     1.0  0.44727  0.63628  0.15632  1.0000
  H   H1051     1.0  0.48243  0.63329  0.56630  1.0000
  C   C1326     1.0  0.35740  0.62092  0.84505  1.0000
  H   H1052     1.0  0.38229  0.64263  0.08554  1.0000
  H   H1053     1.0  0.47651  0.51919  0.22998  1.0000
  C   C1327     1.0  0.36752  0.62262  0.83685  1.0000
  H   H1054     1.0  0.43722  0.59084  0.30852  1.0000
  H   H1055     1.0  0.48707  0.59884  0.10851  1.0000
  C   C1328     1.0  0.33934  0.55755  0.43583  1.0000
  C   C1329     1.0  0.26857  0.62118  0.95687  1.0000
  H   H1056     1.0  0.44499  0.56507  0.36903  1.0000
  Fe  Fe99      1.0  0.47942  0.56390  0.89603  1.0000
  H   H1057     1.0  0.38987  0.61278  0.83567  1.0000
  S   S197      1.0  0.48389  0.57071  0.82871  1.0000
  H   H1058     1.0  0.28553  0.54817  0.92238  1.0000
  C   C1330     1.0  0.30161  0.55548  0.15118  1.0000
  C   C1331     1.0  0.30363  0.56542  0.12850  1.0000
  H   H1059     1.0  0.41003  0.61675  0.54391  1.0000
  C   C1332     1.0  0.48435  0.51160  0.26700  1.0000
  C   C1333     1.0  0.36475  0.51769  0.71294  1.0000
  H   H1060     1.0  0.42731  0.60965  0.17636  1.0000
  H   H1061     1.0  0.49042  0.52024  0.45947  1.0000
  C   C1334     1.0  0.41139  0.51761  0.49501  1.0000
  C   C1335     1.0  0.27949  0.56668  0.90841  1.0000
  H   H1062     1.0  0.40975  0.53835  0.20462  1.0000
  H   H1063     1.0  0.36080  0.63303  0.33540  1.0000
  H   H1064     1.0  0.45269  0.54612  0.49148  1.0000
  C   C1336     1.0  0.42839  0.52373  0.45216  1.0000
  C   C1337     1.0  0.29647  0.57072  0.13466  1.0000
  C   C1338     1.0  0.25840  0.56397  0.21425  1.0000
  P   P42       1.0  0.43771  0.53157  0.40537  1.0000
  C   C1339     1.0  0.26120  0.60942  0.41280  1.0000
  H   H1065     1.0  0.40945  0.54699  0.99266  1.0000
  C   C1340     1.0  0.43781  0.58760  0.21775  1.0000
  H   H1066     1.0  0.40006  0.50837  0.78474  1.0000
  H   H1067     1.0  0.39113  0.64619  0.13174  1.0000
  C   C1341     1.0  0.39011  0.64573  0.07390  1.0000
  H   H1068     1.0  0.41098  0.52968  0.01061  1.0000
  C   C1342     1.0  0.38178  0.50966  0.72334  1.0000
  C   C1343     1.0  0.44372  0.52369  0.38127  1.0000
  H   H1069     1.0  0.26185  0.63423  0.27124  1.0000
  C   C1344     1.0  0.40753  0.50714  0.19392  1.0000
  H   H1070     1.0  0.34570  0.62406  0.82194  1.0000
  C   C1345     1.0  0.40866  0.54295  0.02377  1.0000
  C   C1346     1.0  0.43050  0.66272  0.12176  1.0000
  C   C1347     1.0  0.28731  0.56621  0.16436  1.0000
  C   C1348     1.0  0.29238  0.55083  0.17989  1.0000
  C   C1349     1.0  0.35356  0.62553  0.81556  1.0000
  C   C1350     1.0  0.43364  0.53201  0.15240  1.0000
  C   C1351     1.0  0.28522  0.55614  0.18633  1.0000
  H   H1071     1.0  0.47200  0.64971  0.55264  1.0000
  P   P43       1.0  0.49442  0.52217  0.25210  1.0000
  C   C1352     1.0  0.25468  0.57825  0.38293  1.0000
  H   H1072     1.0  0.47071  0.59167  0.10752  1.0000
  C   C1353     1.0  0.26396  0.63883  0.08830  1.0000
  C   C1354     1.0  0.45764  0.52100  0.33434  1.0000
  C   C1355     1.0  0.39114  0.61579  0.70715  1.0000
  C   C1356     1.0  0.47728  0.63501  0.44890  1.0000
  C   C1357     1.0  0.26942  0.56347  0.25403  1.0000
  P   P44       1.0  0.27815  0.57319  0.17117  1.0000
  C   C1358     1.0  0.39510  0.64777  0.09986  1.0000
  C   C1359     1.0  0.28379  0.65917  0.87267  1.0000
  C   C1360     1.0  0.37387  0.62904  0.79903  1.0000
  H   H1073     1.0  0.42203  0.55841  0.36043  1.0000
  C   C1361     1.0  0.40589  0.54220  0.09396  1.0000
  H   H1074     1.0  0.44096  0.53402  0.48046  1.0000
  C   C1362     1.0  0.32382  0.52568  0.40928  1.0000
  P   P45       1.0  0.25389  0.58911  0.43656  1.0000
  H   H1075     1.0  0.48250  0.54743  0.77826  1.0000
  Fe  Fe100     1.0  0.25339  0.59285  0.27396  1.0000
  C   C1363     1.0  0.45862  0.55985  0.10863  1.0000
  C   C1364     1.0  0.31324  0.55490  0.42029  1.0000
  S   S198      1.0  0.25738  0.58980  0.88283  1.0000
  P   P46       1.0  0.38695  0.63127  0.78785  1.0000
  C   C1365     1.0  0.44622  0.53968  0.45434  1.0000
  C   C1366     1.0  0.36296  0.62329  0.12456  1.0000
  H   H1076     1.0  0.41941  0.59291  0.18106  1.0000
  H   H1077     1.0  0.41598  0.66309  0.52562  1.0000
  C   C1367     1.0  0.39303  0.64299  0.64422  1.0000
  C   C1368     1.0  0.34778  0.66842  0.01232  1.0000
  H   H1078     1.0  0.25580  0.59251  0.96114  1.0000
  H   H1079     1.0  0.47251  0.63697  0.43122  1.0000
  H   H1080     1.0  0.36612  0.61698  0.12951  1.0000
  C   C1369     1.0  0.44029  0.57781  0.34242  1.0000
  C   C1370     1.0  0.42495  0.53978  0.19732  1.0000
  H   H1081     1.0  0.46489  0.55944  0.43270  1.0000
  C   C1371     1.0  0.39205  0.62436  0.75592  1.0000
  C   C1372     1.0  0.42881  0.65039  0.28181  1.0000
  C   C1373     1.0  0.32051  0.52071  0.45113  1.0000
  H   H1082     1.0  0.35878  0.56316  0.24115  1.0000
  C   C1374     1.0  0.27021  0.63487  0.06340  1.0000
  S   S199      1.0  0.25335  0.60220  0.21333  1.0000
  C   C1375     1.0  0.48827  0.60200  0.56845  1.0000
  H   H1083     1.0  0.26247  0.65876  0.11723  1.0000
  C   C1376     1.0  0.40129  0.62250  0.75396  1.0000
  S   S200      1.0  0.37233  0.65272  0.31039  1.0000
  C   C1377     1.0  0.48703  0.64023  0.43470  1.0000
  H   H1084     1.0  0.34232  0.56655  0.25214  1.0000
  C   C1378     1.0  0.40842  0.52793  0.07396  1.0000
  C   C1379     1.0  0.44320  0.53530  0.04481  1.0000
  C   C1380     1.0  0.45974  0.55408  0.42780  1.0000
  C   C1381     1.0  0.48580  0.54166  0.04458  1.0000
  H   H1085     1.0  0.47793  0.53241  0.10647  1.0000
  H   H1086     1.0  0.27664  0.56552  0.25626  1.0000
  H   H1087     1.0  0.43051  0.64792  0.25566  1.0000
  H   H1088     1.0  0.27310  0.59688  0.37389  1.0000
  H   H1089     1.0  0.40935  0.52049  0.08048  1.0000
  C   C1382     1.0  0.48960  0.62999  0.49427  1.0000
  C   C1383     1.0  0.43179  0.66290  0.43799  1.0000
  C   C1384     1.0  0.45499  0.57359  0.30935  1.0000
  C   C1385     1.0  0.47819  0.53868  0.08148  1.0000
  C   C1386     1.0  0.49217  0.53284  0.34748  1.0000
  C   C1387     1.0  0.35385  0.56140  0.27175  1.0000
  H   H1090     1.0  0.47217  0.59533  0.93720  1.0000
  H   H1091     1.0  0.43122  0.51113  0.40955  1.0000
  C   C1388     1.0  0.33790  0.56549  0.45006  1.0000
  C   C1389     1.0  0.48593  0.54962  0.01233  1.0000
  H   H1092     1.0  0.39534  0.51198  0.87047  1.0000
  C   C1390     1.0  0.34459  0.56333  0.27796  1.0000
  H   H1093     1.0  0.39122  0.64655  0.01256  1.0000
  P   P47       1.0  0.25768  0.64755  0.06638  1.0000
  H   H1094     1.0  0.45602  0.56529  0.98496  1.0000
  C   C1391     1.0  0.39515  0.64805  0.03259  1.0000
  C   C1392     1.0  0.34876  0.56199  0.48963  1.0000
  C   C1393     1.0  0.36302  0.62923  0.14922  1.0000
  C   C1394     1.0  0.35680  0.55736  0.30508  1.0000
  H   H1095     1.0  0.36405  0.55605  0.30039  1.0000
  C   C1395     1.0  0.42233  0.54882  0.32397  1.0000
  H   H1096     1.0  0.41554  0.52731  0.73073  1.0000
  C   C1396     1.0  0.47079  0.54372  0.08623  1.0000
  C   C1397     1.0  0.35848  0.63704  0.14422  1.0000
  H   H1097     1.0  0.31902  0.58271  0.36009  1.0000
  C   C1398     1.0  0.33829  0.56122  0.31746  1.0000
  C   C1399     1.0  0.49567  0.59416  0.52069  1.0000
  C   C1400     1.0  0.44632  0.54031  0.41465  1.0000
  H   H1098     1.0  0.40536  0.62508  0.77172  1.0000
  C   C1401     1.0  0.46346  0.58046  0.95855  1.0000
  H   H1099     1.0  0.46489  0.54125  0.11493  1.0000
  C   C1402     1.0  0.46078  0.57123  0.98834  1.0000
  C   C1403     1.0  0.43433  0.54793  0.04869  1.0000
  C   C1404     1.0  0.39230  0.64427  0.76233  1.0000
  H   H1100     1.0  0.47382  0.53471  0.97432  1.0000
  H   H1101     1.0  0.41364  0.66013  0.69653  1.0000
  H   H1102     1.0  0.42906  0.53459  0.03752  1.0000
  C   C1405     1.0  0.37905  0.51826  0.57265  1.0000
  H   H1103     1.0  0.33248  0.57463  0.36574  1.0000
  C   C1406     1.0  0.43611  0.66049  0.94899  1.0000
  C   C1407     1.0  0.47849  0.55465  0.01683  1.0000
  C   C1408     1.0  0.45049  0.55006  0.05625  1.0000
  C   C1409     1.0  0.31741  0.57497  0.37731  1.0000
  C   C1410     1.0  0.35062  0.55551  0.34460  1.0000
  C   C1411     1.0  0.47090  0.55176  0.05395  1.0000
  C   C1412     1.0  0.26418  0.63577  0.84858  1.0000
  C   C1413     1.0  0.35964  0.52210  0.68794  1.0000
  C   C1414     1.0  0.25018  0.60400  0.37919  1.0000
  C   C1415     1.0  0.27461  0.57527  0.12592  1.0000
  C   C1416     1.0  0.36994  0.63379  0.76980  1.0000
  H   H1104     1.0  0.33009  0.53958  0.36190  1.0000
  H   H1105     1.0  0.30189  0.57310  0.39117  1.0000
  C   C1417     1.0  0.32501  0.57037  0.38065  1.0000
  H   H1106     1.0  0.44167  0.56073  0.05737  1.0000
  C   C1418     1.0  0.47660  0.51234  0.25110  1.0000
  H   H1107     1.0  0.44659  0.64953  0.09122  1.0000
  H   H1108     1.0  0.49194  0.59714  0.46543  1.0000
  P   P48       1.0  0.46096  0.55777  0.06002  1.0000
  C   C1419     1.0  0.30773  0.56953  0.39503  1.0000
  H   H1109     1.0  0.32344  0.52163  0.38830  1.0000
  S   S201      1.0  0.39908  0.66267  0.25022  1.0000
  H   H1110     1.0  0.35325  0.55268  0.36960  1.0000
  C   C1420     1.0  0.40535  0.61726  0.72918  1.0000
  H   H1111     1.0  0.44027  0.56089  0.18784  1.0000
  C   C1421     1.0  0.32302  0.56028  0.40164  1.0000
  H   H1112     1.0  0.44303  0.65407  0.54312  1.0000
  C   C1422     1.0  0.46439  0.56971  0.02128  1.0000
  H   H1113     1.0  0.47867  0.56072  0.99129  1.0000
  H   H1114     1.0  0.34654  0.53283  0.74997  1.0000
  H   H1115     1.0  0.26940  0.58947  0.18052  1.0000
  C   C1423     1.0  0.32763  0.53586  0.39441  1.0000
  C   C1424     1.0  0.44208  0.55354  0.05499  1.0000
  P   P49       1.0  0.49322  0.51196  0.88698  1.0000
  C   C1425     1.0  0.38856  0.52411  0.55764  1.0000
  H   H1116     1.0  0.47102  0.56570  0.17009  1.0000
  H   H1117     1.0  0.42487  0.54390  0.21823  1.0000
  C   C1426     1.0  0.32821  0.54115  0.42140  1.0000
  C   C1427     1.0  0.25514  0.60174  0.40754  1.0000
  C   C1428     1.0  0.30310  0.63041  0.86836  1.0000
  C   C1429     1.0  0.30564  0.55952  0.41685  1.0000
  C   C1430     1.0  0.42286  0.65713  0.28385  1.0000
  H   H1118     1.0  0.26411  0.56248  0.07513  1.0000
  P   P50       1.0  0.33301  0.55432  0.40254  1.0000
  H   H1119     1.0  0.44294  0.55771  0.12261  1.0000
  H   H1120     1.0  0.34661  0.54554  0.43948  1.0000
  H   H1121     1.0  0.39877  0.51996  0.24488  1.0000
  H   H1122     1.0  0.42794  0.55071  0.04718  1.0000
  C   C1431     1.0  0.45269  0.51125  0.34392  1.0000
  H   H1123     1.0  0.29812  0.55532  0.43051  1.0000
  S   S202      1.0  0.49253  0.56061  0.20573  1.0000
  S   S203      1.0  0.42076  0.63901  0.77418  1.0000
  C   C1432     1.0  0.32096  0.52594  0.47820  1.0000
  H   H1124     1.0  0.25759  0.57081  0.95432  1.0000
  C   C1433     1.0  0.40621  0.65766  0.71731  1.0000
  C   C1434     1.0  0.42558  0.64468  0.99390  1.0000
  C   C1435     1.0  0.49260  0.59709  0.69740  1.0000
  H   H1125     1.0  0.45301  0.54899  0.35108  1.0000
  C   C1436     1.0  0.38706  0.62107  0.73184  1.0000
  C   C1437     1.0  0.35982  0.63201  0.77804  1.0000
  H   H1126     1.0  0.31144  0.54712  0.43680  1.0000
  C   C1438     1.0  0.26727  0.58130  0.47081  1.0000
  C   C1439     1.0  0.42885  0.65915  0.06138  1.0000
  H   H1127     1.0  0.37997  0.62241  0.73249  1.0000
  S   S204      1.0  0.49206  0.55690  0.89400  1.0000
  C   C1440     1.0  0.39341  0.52583  0.58453  1.0000
  H   H1128     1.0  0.41839  0.55267  0.30590  1.0000
  H   H1129     1.0  0.27762  0.57521  0.49651  1.0000
  H   H1130     1.0  0.44369  0.52829  0.04028  1.0000
  H   H1131     1.0  0.31837  0.52209  0.51066  1.0000
  H   H1132     1.0  0.42292  0.65957  0.37479  1.0000
  C   C1441     1.0  0.26591  0.58750  0.43645  1.0000
  C   C1442     1.0  0.42991  0.53528  0.34154  1.0000
  C   C1443     1.0  0.43493  0.53886  0.04330  1.0000
  H   H1133     1.0  0.41619  0.52880  0.43692  1.0000
  H   H1134     1.0  0.31237  0.57065  0.85750  1.0000
  C   C1444     1.0  0.41633  0.53649  0.18983  1.0000
  C   C1445     1.0  0.45097  0.54088  0.05101  1.0000
  C   C1446     1.0  0.41204  0.65073  0.81239  1.0000
  H   H1135     1.0  0.46480  0.52383  0.31154  1.0000
  H   H1136     1.0  0.32498  0.54008  0.48485  1.0000
  C   C1447     1.0  0.35022  0.55408  0.47574  1.0000
  C   C1448     1.0  0.28653  0.62192  0.85375  1.0000
  C   C1449     1.0  0.45719  0.58207  0.27601  1.0000
  C   C1450     1.0  0.41851  0.52391  0.45914  1.0000
  C   C1451     1.0  0.49446  0.59604  0.55747  1.0000
  C   C1452     1.0  0.40027  0.61386  0.70595  1.0000
  H   H1137     1.0  0.27284  0.58042  0.29532  1.0000
  C   C1453     1.0  0.27399  0.59220  0.40108  1.0000
  C   C1454     1.0  0.25352  0.62481  0.82934  1.0000
  H   H1138     1.0  0.26527  0.60783  0.43383  1.0000
  C   C1455     1.0  0.30400  0.62514  0.84094  1.0000
  C   C1456     1.0  0.37437  0.51407  0.61461  1.0000
  H   H1139     1.0  0.35251  0.56373  0.51001  1.0000
  C   C1457     1.0  0.36161  0.65015  0.88951  1.0000
  C   C1458     1.0  0.34255  0.56764  0.47706  1.0000
  H   H1140     1.0  0.45738  0.53803  0.05063  1.0000
  H   H1141     1.0  0.48977  0.64622  0.40611  1.0000
  H   H1142     1.0  0.40884  0.65438  0.98468  1.0000
  C   C1459     1.0  0.35543  0.65280  0.91970  1.0000
  C   C1460     1.0  0.26046  0.60906  0.03861  1.0000
  H   H1143     1.0  0.43426  0.66671  0.40549  1.0000
  C   C1461     1.0  0.49246  0.52629  0.92580  1.0000
  C   C1462     1.0  0.28277  0.64940  0.87336  1.0000
  C   C1463     1.0  0.42029  0.64689  0.80406  1.0000
  C   C1464     1.0  0.42784  0.64954  0.81903  1.0000
  C   C1465     1.0  0.25054  0.57218  0.36453  1.0000
  H   H1144     1.0  0.41244  0.61579  0.72822  1.0000
  H   H1145     1.0  0.38767  0.53307  0.14906  1.0000
  C   C1466     1.0  0.44012  0.65603  0.92074  1.0000
  C   C1467     1.0  0.42383  0.51071  0.51713  1.0000
  H   H1146     1.0  0.40141  0.63392  0.61933  1.0000
  C   C1468     1.0  0.42959  0.64026  0.96545  1.0000
  H   H1147     1.0  0.28948  0.59444  0.37291  1.0000
  C   C1469     1.0  0.44915  0.55951  0.13225  1.0000
  C   C1470     1.0  0.28328  0.59082  0.40030  1.0000
  H   H1148     1.0  0.49843  0.59300  0.57725  1.0000
  H   H1149     1.0  0.38646  0.65361  0.66635  1.0000
  H   H1150     1.0  0.44064  0.58134  0.22929  1.0000
  H   H1151     1.0  0.43429  0.64670  0.81249  1.0000
  H   H1152     1.0  0.48770  0.60351  0.59659  1.0000
  H   H1153     1.0  0.29635  0.61659  0.81329  1.0000
  C   C1471     1.0  0.44324  0.50775  0.37149  1.0000
  C   C1472     1.0  0.29392  0.63147  0.88842  1.0000
  H   H1154     1.0  0.37355  0.53476  0.19999  1.0000
  H   H1155     1.0  0.43851  0.51649  0.47571  1.0000
  H   H1156     1.0  0.40468  0.54582  0.11684  1.0000
  H   H1157     1.0  0.43177  0.52870  0.33637  1.0000
  H   H1158     1.0  0.25201  0.60933  0.85725  1.0000
  C   C1473     1.0  0.48056  0.59902  0.13109  1.0000
  C   C1474     1.0  0.47214  0.52317  0.94793  1.0000
  H   H1159     1.0  0.38719  0.61309  0.68921  1.0000
  H   H1160     1.0  0.40847  0.50616  0.55170  1.0000
  C   C1475     1.0  0.28556  0.62731  0.88101  1.0000
  C   C1476     1.0  0.28459  0.58472  0.43466  1.0000
  C   C1477     1.0  0.26789  0.56636  0.21620  1.0000
  C   C1478     1.0  0.43097  0.51697  0.48117  1.0000
  H   H1161     1.0  0.45430  0.56486  0.21200  1.0000
  H   H1162     1.0  0.38641  0.63716  0.65842  1.0000
  C   C1479     1.0  0.29571  0.62085  0.83385  1.0000
  H   H1163     1.0  0.26272  0.61181  0.89769  1.0000
  H   H1164     1.0  0.33231  0.64612  0.04078  1.0000
  S   S205      1.0  0.39022  0.65907  0.93659  1.0000
  H   H1165     1.0  0.42003  0.65985  0.25928  1.0000
  H   H1166     1.0  0.48411  0.54332  0.36239  1.0000
  C   C1480     1.0  0.27659  0.57996  0.46990  1.0000
  C   C1481     1.0  0.47751  0.53027  0.95841  1.0000
  H   H1167     1.0  0.25715  0.63803  0.15099  1.0000
  H   H1168     1.0  0.40626  0.64883  0.80066  1.0000
  C   C1482     1.0  0.42706  0.65605  0.84193  1.0000
  C   C1483     1.0  0.25106  0.61379  0.35720  1.0000
  C   C1484     1.0  0.40638  0.53230  0.10459  1.0000
  H   H1169     1.0  0.47821  0.50322  0.80979  1.0000
  C   C1485     1.0  0.46993  0.58823  0.96088  1.0000
  C   C1486     1.0  0.26164  0.55788  0.28913  1.0000
  H   H1170     1.0  0.29399  0.53583  0.90331  1.0000
  H   H1171     1.0  0.32062  0.55824  0.83926  1.0000
  H   H1172     1.0  0.34054  0.65074  0.95668  1.0000
  H   H1173     1.0  0.45716  0.53475  0.34434  1.0000
  C   C1487     1.0  0.48372  0.50284  0.29706  1.0000
  H   H1174     1.0  0.26120  0.57751  0.49835  1.0000
  C   C1488     1.0  0.44661  0.57151  0.34279  1.0000
  P   P51       1.0  0.27382  0.62934  0.90477  1.0000
  S   S206      1.0  0.25791  0.65320  0.27186  1.0000
  C   C1489     1.0  0.49320  0.63773  0.45740  1.0000
  H   H1175     1.0  0.40340  0.60968  0.68721  1.0000
  H   H1176     1.0  0.47422  0.57649  0.04719  1.0000
  H   H1177     1.0  0.28015  0.62536  0.06062  1.0000
  H   H1178     1.0  0.29338  0.63558  0.90953  1.0000
  H   H1179     1.0  0.26359  0.63860  0.96131  1.0000
  C   C1490     1.0  0.45321  0.52720  0.35304  1.0000
  H   H1180     1.0  0.36633  0.62763  0.17300  1.0000
  C   C1491     1.0  0.42956  0.58610  0.20552  1.0000
  C   C1492     1.0  0.46490  0.56406  0.15945  1.0000
  C   C1493     1.0  0.27356  0.58625  0.06410  1.0000
  H   H1181     1.0  0.35833  0.64151  0.16395  1.0000
  H   H1182     1.0  0.40582  0.64249  0.72507  1.0000
  S   S207      1.0  0.26606  0.59849  0.29413  1.0000
  H   H1183     1.0  0.42699  0.63246  0.97146  1.0000
  H   H1184     1.0  0.43380  0.57623  0.36835  1.0000
  H   H1185     1.0  0.27520  0.61146  0.04005  1.0000
  C   C1494     1.0  0.40160  0.65975  0.63041  1.0000
  C   C1495     1.0  0.39294  0.51767  0.75076  1.0000
  C   C1496     1.0  0.48766  0.53179  0.94749  1.0000
  H   H1186     1.0  0.49217  0.51821  0.17871  1.0000
  H   H1187     1.0  0.27994  0.59115  0.10429  1.0000
  H   H1188     1.0  0.47390  0.56254  0.10510  1.0000
  C   C1497     1.0  0.42501  0.52855  0.14547  1.0000
  H   H1189     1.0  0.42353  0.53792  0.29365  1.0000
  C   C1498     1.0  0.37825  0.52848  0.25085  1.0000
  C   C1499     1.0  0.43029  0.60353  0.18775  1.0000
  H   H1190     1.0  0.40164  0.66690  0.63418  1.0000
  C   C1500     1.0  0.47375  0.58674  0.99301  1.0000
  S   S208      1.0  0.48611  0.56807  0.28584  1.0000
  H   H1191     1.0  0.31758  0.51281  0.46260  1.0000
  C   C1501     1.0  0.49081  0.59836  0.49453  1.0000
  C   C1502     1.0  0.45973  0.61918  0.20782  1.0000
  H   H1192     1.0  0.42512  0.52404  0.12597  1.0000
  H   H1193     1.0  0.47877  0.62469  0.69330  1.0000
  C   C1503     1.0  0.36303  0.51865  0.75184  1.0000
  H   H1194     1.0  0.43979  0.64257  0.90635  1.0000
  C   C1504     1.0  0.37915  0.53167  0.20957  1.0000
  C   C1505     1.0  0.29793  0.54346  0.89316  1.0000
  H   H1195     1.0  0.40378  0.51773  0.49973  1.0000
  C   C1506     1.0  0.39340  0.52336  0.23461  1.0000
  C   C1507     1.0  0.39305  0.65225  0.64860  1.0000
  Fe  Fe101     1.0  0.38220  0.66549  0.89487  1.0000
  H   H1196     1.0  0.45985  0.56868  0.30898  1.0000
  C   C1508     1.0  0.38724  0.53080  0.18069  1.0000
  H   H1197     1.0  0.41343  0.50807  0.36412  1.0000
  H   H1198     1.0  0.47898  0.59269  0.99426  1.0000
  H   H1199     1.0  0.48072  0.61327  0.27611  1.0000
  C   C1509     1.0  0.38534  0.52427  0.26337  1.0000
  H   H1200     1.0  0.37200  0.52918  0.27323  1.0000
  C   C1510     1.0  0.48356  0.51255  0.70163  1.0000
  C   C1511     1.0  0.40133  0.66445  0.72937  1.0000
  C   C1512     1.0  0.46171  0.62817  0.21479  1.0000
  C   C1513     1.0  0.26755  0.56869  0.08180  1.0000
  H   H1201     1.0  0.27913  0.65338  0.02123  1.0000
  H   H1202     1.0  0.48859  0.60579  0.16288  1.0000
  C   C1514     1.0  0.44232  0.58615  0.30860  1.0000
  C   C1515     1.0  0.40339  0.51253  0.16704  1.0000
  H   H1203     1.0  0.25112  0.63451  0.92881  1.0000
  H   H1204     1.0  0.35679  0.63566  0.75541  1.0000
  H   H1205     1.0  0.38462  0.52166  0.29540  1.0000
  C   C1516     1.0  0.40693  0.54747  0.05379  1.0000
  C   C1517     1.0  0.41869  0.65978  0.85050  1.0000
  C   C1518     1.0  0.39456  0.52687  0.19297  1.0000
  C   C1519     1.0  0.42452  0.65699  0.34888  1.0000
  C   C1520     1.0  0.27603  0.65962  0.01377  1.0000
  C   C1521     1.0  0.49104  0.52865  0.28780  1.0000
  H   H1206     1.0  0.39622  0.52421  0.75576  1.0000
  C   C1522     1.0  0.44239  0.59710  0.21493  1.0000
  Fe  Fe102     1.0  0.38477  0.66626  0.27461  1.0000
  S   S209      1.0  0.37423  0.65576  0.86806  1.0000
  C   C1523     1.0  0.45086  0.58843  0.27536  1.0000
  H   H1207     1.0  0.28025  0.61845  0.84783  1.0000
  H   H1208     1.0  0.45279  0.62009  0.31792  1.0000
  H   H1209     1.0  0.43296  0.65824  0.85278  1.0000
  C   C1524     1.0  0.48872  0.52258  0.81994  1.0000
  H   H1210     1.0  0.26492  0.55810  0.85918  1.0000
  H   H1211     1.0  0.26685  0.62511  0.39448  1.0000
  H   H1212     1.0  0.46180  0.61905  0.17686  1.0000
  H   H1213     1.0  0.46524  0.63489  0.18950  1.0000
  H   H1214     1.0  0.37528  0.51711  0.55156  1.0000
  C   C1525     1.0  0.44760  0.56134  0.16936  1.0000
  C   C1526     1.0  0.45547  0.56360  0.18296  1.0000
  C   C1527     1.0  0.27668  0.56251  0.88100  1.0000
  H   H1215     1.0  0.36695  0.50963  0.62560  1.0000
  H   H1216     1.0  0.46071  0.58149  0.93307  1.0000
  C   C1528     1.0  0.27038  0.56721  0.11664  1.0000
  P   P52       1.0  0.45306  0.59885  0.23074  1.0000
  H   H1217     1.0  0.42823  0.50664  0.13657  1.0000
  C   C1529     1.0  0.48142  0.60299  0.16157  1.0000
  H   H1218     1.0  0.42605  0.57876  0.20791  1.0000
  H   H1219     1.0  0.45514  0.65886  0.57440  1.0000
  C   C1530     1.0  0.48712  0.51915  0.91502  1.0000
  H   H1220     1.0  0.27720  0.61973  0.13489  1.0000
  C   C1531     1.0  0.25698  0.62140  0.36303  1.0000
  C   C1532     1.0  0.40171  0.64761  0.73354  1.0000
  C   C1533     1.0  0.49057  0.52718  0.77840  1.0000
  C   C1534     1.0  0.27758  0.66147  0.90383  1.0000
  Fe  Fe103     1.0  0.42404  0.50615  0.27106  1.0000
  H   H1221     1.0  0.27493  0.59361  0.04350  1.0000
  H   H1222     1.0  0.42586  0.50549  0.53929  1.0000
  H   H1223     1.0  0.45587  0.59171  0.15962  1.0000
  C   C1535     1.0  0.42075  0.66047  0.31741  1.0000
  C   C1536     1.0  0.26698  0.62861  0.14719  1.0000
  H   H1224     1.0  0.28235  0.62219  0.96897  1.0000
  C   C1537     1.0  0.42346  0.50776  0.08433  1.0000
  H   H1225     1.0  0.28737  0.64780  0.84812  1.0000
  H   H1226     1.0  0.48550  0.53108  0.76826  1.0000
  C   C1538     1.0  0.47690  0.51770  0.92600  1.0000
  C   C1539     1.0  0.47131  0.59497  0.13064  1.0000
  H   H1227     1.0  0.49183  0.53736  0.95526  1.0000
  H   H1228     1.0  0.48212  0.52293  0.84140  1.0000
  C   C1540     1.0  0.25847  0.61697  0.97393  1.0000
  H   H1229     1.0  0.25479  0.66715  0.03427  1.0000
  C   C1541     1.0  0.43853  0.60506  0.20011  1.0000
  C   C1542     1.0  0.42567  0.50266  0.11867  1.0000
  C   C1543     1.0  0.47306  0.60295  0.19150  1.0000
  C   C1544     1.0  0.35150  0.52850  0.73984  1.0000
  H   H1230     1.0  0.44181  0.61242  0.19820  1.0000
  C   C1545     1.0  0.25796  0.63433  0.82608  1.0000
  H   H1231     1.0  0.48157  0.53555  0.25851  1.0000
  C   C1546     1.0  0.26600  0.65891  0.03069  1.0000
  C   C1547     1.0  0.46374  0.59901  0.19104  1.0000
  C   C1548     1.0  0.27049  0.61322  0.02194  1.0000
  H   H1232     1.0  0.40470  0.65987  0.84198  1.0000
  H   H1233     1.0  0.47391  0.60581  0.21553  1.0000
  H   H1234     1.0  0.46052  0.63545  0.26019  1.0000
  H   H1235     1.0  0.26558  0.62604  0.17979  1.0000
  H   H1236     1.0  0.26526  0.65586  0.95848  1.0000
  C   C1549     1.0  0.45913  0.62849  0.25452  1.0000
  C   C1550     1.0  0.26013  0.56404  0.90753  1.0000
  C   C1551     1.0  0.35650  0.52410  0.76499  1.0000
  C   C1552     1.0  0.42154  0.66082  0.50615  1.0000
  H   H1237     1.0  0.27129  0.63696  0.03106  1.0000
  C   C1553     1.0  0.27045  0.65399  0.93591  1.0000
  H   H1238     1.0  0.35541  0.52501  0.79465  1.0000
  C   C1554     1.0  0.27561  0.64183  0.90564  1.0000
  C   C1555     1.0  0.26224  0.63549  0.13053  1.0000
  C   C1556     1.0  0.45285  0.61080  0.28045  1.0000
  C   C1557     1.0  0.47103  0.57751  0.02304  1.0000
  C   C1558     1.0  0.46292  0.59496  0.16044  1.0000
  H   H1239     1.0  0.38460  0.52507  0.71747  1.0000
  C   C1559     1.0  0.45469  0.61982  0.28719  1.0000
  C   C1560     1.0  0.25461  0.65694  0.12451  1.0000
  Fe  Fe104     1.0  0.49186  0.58372  0.83843  1.0000
  H   H1240     1.0  0.37470  0.63885  0.74063  1.0000
  H   H1241     1.0  0.33269  0.66362  0.01763  1.0000
  H   H1242     1.0  0.44972  0.60423  0.30662  1.0000
  H   H1243     1.0  0.37634  0.66319  0.12213  1.0000
  P   P53       1.0  0.37297  0.51038  0.69630  1.0000
  H   H1244     1.0  0.38820  0.66641  0.76792  1.0000
  C   C1561     1.0  0.38875  0.52166  0.62656  1.0000
  S   S210      1.0  0.25220  0.65505  0.89948  1.0000
  H   H1245     1.0  0.26912  0.55979  0.13670  1.0000
  H   H1246     1.0  0.35838  0.65828  0.93132  1.0000
  H   H1247     1.0  0.48390  0.63753  0.62608  1.0000
  C   C1562     1.0  0.40510  0.65223  0.08448  1.0000
  H   H1248     1.0  0.49182  0.55195  0.98376  1.0000
  H   H1249     1.0  0.43868  0.65071  0.03841  1.0000
  C   C1563     1.0  0.48581  0.53899  0.34244  1.0000
  H   H1250     1.0  0.47876  0.53524  0.69021  1.0000
  C   C1564     1.0  0.37920  0.51568  0.64200  1.0000
  C   C1565     1.0  0.47858  0.51981  0.70836  1.0000
  C   C1566     1.0  0.25447  0.61083  0.01443  1.0000
  C   C1567     1.0  0.35614  0.66546  0.01713  1.0000
  H   H1251     1.0  0.31110  0.62427  0.82561  1.0000
  C   C1568     1.0  0.48144  0.62989  0.62880  1.0000
  S   S211      1.0  0.43767  0.50699  0.28801  1.0000
  H   H1252     1.0  0.41255  0.63441  0.53626  1.0000
  C   C1569     1.0  0.41020  0.64872  0.60320  1.0000
  C   C1570     1.0  0.25561  0.63498  0.26109  1.0000
  P   P54       1.0  0.42322  0.66058  0.02176  1.0000
  H   H1253     1.0  0.39211  0.52740  0.52508  1.0000
  H   H1254     1.0  0.41992  0.64021  0.02200  1.0000
  C   C1571     1.0  0.26209  0.61921  0.39068  1.0000
  S   S212      1.0  0.43168  0.50807  0.84831  1.0000
  Fe  Fe105     1.0  0.48950  0.58325  0.24190  1.0000
  H   H1255     1.0  0.46165  0.51047  0.41132  1.0000
  H   H1256     1.0  0.49159  0.53782  0.04083  1.0000
  C   C1572     1.0  0.40513  0.65258  0.01695  1.0000
  S   S213      1.0  0.37966  0.66564  0.03740  1.0000
  H   H1257     1.0  0.30081  0.66450  0.16444  1.0000
  C   C1573     1.0  0.41023  0.65480  0.04270  1.0000
  H   H1258     1.0  0.25737  0.60425  0.06991  1.0000
  C   C1574     1.0  0.49163  0.53242  0.65386  1.0000
  C   C1575     1.0  0.43780  0.65755  0.12202  1.0000
  H   H1259     1.0  0.44123  0.65696  0.14547  1.0000
  Fe  Fe106     1.0  0.49523  0.57634  0.16726  1.0000
  C   C1576     1.0  0.25043  0.62701  0.25375  1.0000
  H   H1260     1.0  0.49540  0.53240  0.37138  1.0000
  C   C1577     1.0  0.39509  0.50873  0.76706  1.0000
  C   C1578     1.0  0.42468  0.66571  0.46417  1.0000
  S   S214      1.0  0.41771  0.66793  0.87916  1.0000
  H   H1261     1.0  0.25236  0.66481  0.16769  1.0000
  C   C1579     1.0  0.42616  0.66362  0.09127  1.0000
  H   H1262     1.0  0.49482  0.54008  0.63584  1.0000
  C   C1580     1.0  0.49655  0.53004  0.20097  1.0000
  C   C1581     1.0  0.49486  0.52606  0.17131  1.0000
  H   H1263     1.0  0.49510  0.52911  0.10919  1.0000
  H   H1264     1.0  0.49398  0.51476  0.55149  1.0000
  C   C1582     1.0  0.25247  0.64378  0.25667  1.0000
  H   H1265     1.0  0.44563  0.66046  0.89206  1.0000
  C   C1583     1.0  0.49659  0.53221  0.13170  1.0000
  C   C1584     1.0  0.26243  0.66739  0.02092  1.0000
  Fe  Fe107     1.0  0.25171  0.66681  0.26529  1.0000
  H   H1266     1.0  0.28917  0.66500  0.84729  1.0000
  C   C1585     1.0  0.42002  0.50272  0.06075  1.0000
  C   C1586     1.0  0.49577  0.58176  0.02672  1.0000
  C   C1587     1.0  0.46188  0.50281  0.42112  1.0000
  H   H1267     1.0  0.42827  0.66618  0.14479  1.0000
  C   C1588     1.0  0.49808  0.57867  0.99229  1.0000
  S   S215      1.0  0.49642  0.58271  0.10067  1.0000
  H   H1268     1.0  0.49586  0.58197  0.96654  1.0000
  C   C1589     1.0  0.25228  0.55524  0.28674  1.0000
  S   S216      1.0  0.24986  0.58596  0.14790  1.0000
  C   C1590     1.0  0.49828  0.52242  0.44552  1.0000
  H   H1269     1.0  0.49651  0.50993  0.66500  1.0000
  C   C1591     1.0  0.49801  0.50910  0.55217  1.0000
  C   C1592     1.0  0.38392  0.66693  0.10575  1.0000
  C   C1593     1.0  0.49879  0.57777  0.06015  1.0000
  H   H1270     1.0  0.49848  0.50823  0.73363  1.0000
  H   H1271     1.0  0.46476  0.50318  0.86819  1.0000
  H   H1272     1.0  0.42078  0.66794  0.09056  1.0000
  H   H1273     1.0  0.27553  0.66802  0.24769  1.0000
  H   H1274     1.0  0.49099  0.50246  0.51699  1.0000
  H   H1275     1.0  0.27804  0.66907  0.90245  1.0000
  H   H1276     1.0  0.28993  0.66903  0.97323  1.0000
  H   H1277     1.0  0.49870  0.57543  0.39147  1.0000
  C   C1594     1.0  0.49873  0.58627  0.66165  1.0000
  H   H1278     1.0  0.35212  0.66906  0.84920  1.0000
  H   H1279     1.0  0.43866  0.66835  0.94172  1.0000
  Fe  Fe108     1.0  0.41055  0.75763  0.24502  1.0000
  S   S217      1.0  0.42147  0.77223  0.20667  1.0000
  S   S218      1.0  0.41400  0.74248  0.26124  1.0000
  Fe  Fe109     1.0  0.39348  0.76708  0.26090  1.0000
  S   S219      1.0  0.40284  0.78213  0.22467  1.0000
  S   S220      1.0  0.37738  0.76542  0.29173  1.0000
  Fe  Fe110     1.0  0.40959  0.77517  0.17954  1.0000
  S   S221      1.0  0.41067  0.78344  0.11532  1.0000
  Fe  Fe111     1.0  0.41405  0.77841  0.25488  1.0000
  S   S222      1.0  0.41972  0.79165  0.27387  1.0000
  S   S223      1.0  0.39943  0.76031  0.21358  1.0000
  S   S224      1.0  0.40397  0.76361  0.29522  1.0000
  H   H1280     1.0  0.28293  0.69097  0.11040  1.0000
  Fe  Fe112     1.0  0.40172  0.67606  0.19669  1.0000
  S   S225      1.0  0.38701  0.67900  0.21886  1.0000
  H   H1281     1.0  0.45945  0.83549  0.64804  1.0000
  Fe  Fe113     1.0  0.39451  0.68862  0.24735  1.0000
  S   S226      1.0  0.39208  0.70417  0.23560  1.0000
  S   S227      1.0  0.40938  0.68631  0.22174  1.0000
  Fe  Fe114     1.0  0.33176  0.74837  0.24878  1.0000
  S   S228      1.0  0.32249  0.74402  0.31401  1.0000
  S   S229      1.0  0.34642  0.74516  0.22618  1.0000
  Fe  Fe115     1.0  0.31760  0.75889  0.21914  1.0000
  S   S230      1.0  0.30760  0.75601  0.28271  1.0000
  S   S231      1.0  0.31489  0.76636  0.16074  1.0000
  Fe  Fe116     1.0  0.32151  0.75993  0.29848  1.0000
  S   S232      1.0  0.32536  0.76756  0.34355  1.0000
  Fe  Fe117     1.0  0.30959  0.74052  0.29224  1.0000
  S   S233      1.0  0.33114  0.76417  0.23346  1.0000
  S   S234      1.0  0.31921  0.74346  0.22853  1.0000
  Fe  Fe118     1.0  0.32938  0.74276  0.91686  1.0000
  S   S235      1.0  0.32042  0.74706  0.87606  1.0000
  S   S236      1.0  0.34474  0.74103  0.89148  1.0000
  Fe  Fe119     1.0  0.31357  0.74220  0.99223  1.0000
  S   S237      1.0  0.30345  0.74676  0.95725  1.0000
  S   S238      1.0  0.31029  0.73714  0.06045  1.0000
  Fe  Fe120     1.0  0.30735  0.73580  0.92524  1.0000
  H   H1282     1.0  0.43090  0.72713  0.91875  1.0000
  Fe  Fe121     1.0  0.31724  0.75762  0.91112  1.0000
  S   S239      1.0  0.31872  0.77404  0.88169  1.0000
  S   S240      1.0  0.31683  0.73081  0.96290  1.0000
  S   S241      1.0  0.32681  0.75372  0.94916  1.0000
  C   C1595     1.0  0.28209  0.78561  0.35485  1.0000
  S   S242      1.0  0.39522  0.67743  0.85113  1.0000
  C   C1596     1.0  0.35928  0.78071  0.01359  1.0000
  C   C1597     1.0  0.47072  0.83083  0.61111  1.0000
  H   H1283     1.0  0.25480  0.70122  0.97209  1.0000
  S   S243      1.0  0.38916  0.81505  0.36974  1.0000
  Fe  Fe122     1.0  0.39038  0.68655  0.89083  1.0000
  S   S244      1.0  0.38751  0.70172  0.87179  1.0000
  H   H1284     1.0  0.40494  0.67220  0.71782  1.0000
  H   H1285     1.0  0.25344  0.68802  0.06254  1.0000
  H   H1286     1.0  0.29032  0.75559  0.17884  1.0000
  H   H1287     1.0  0.33084  0.70419  0.05418  1.0000
  Fe  Fe123     1.0  0.39463  0.76127  0.91692  1.0000
  S   S245      1.0  0.40500  0.77396  0.92008  1.0000
  S   S246      1.0  0.37851  0.75882  0.95081  1.0000
  Fe  Fe124     1.0  0.41112  0.75321  0.87525  1.0000
  S   S247      1.0  0.42279  0.76525  0.87498  1.0000
  S   S248      1.0  0.41645  0.74115  0.85340  1.0000
  Fe  Fe125     1.0  0.41338  0.76282  0.93873  1.0000
  S   S249      1.0  0.41951  0.76004  0.99065  1.0000
  Fe  Fe126     1.0  0.41359  0.77545  0.85595  1.0000
  S   S250      1.0  0.41957  0.78995  0.80345  1.0000
  S   S251      1.0  0.40245  0.75006  0.94036  1.0000
  S   S252      1.0  0.40249  0.76355  0.85110  1.0000
  H   H1288     1.0  0.43051  0.70115  0.93037  1.0000
  H   H1289     1.0  0.31475  0.71294  0.91259  1.0000
  C   C1598     1.0  0.33985  0.72743  0.32256  1.0000
  C   C1599     1.0  0.34806  0.76276  0.08196  1.0000
  C   C1600     1.0  0.35097  0.72311  0.37415  1.0000
  S   S253      1.0  0.44902  0.81333  0.34653  1.0000
  H   H1290     1.0  0.36026  0.69347  0.04657  1.0000
  C   C1601     1.0  0.42101  0.67643  0.96380  1.0000
  C   C1602     1.0  0.36500  0.78042  0.94428  1.0000
  H   H1291     1.0  0.28734  0.70220  0.93525  1.0000
  C   C1603     1.0  0.40722  0.83388  0.14358  1.0000
  H   H1292     1.0  0.34524  0.76517  0.02417  1.0000
  C   C1604     1.0  0.33129  0.69904  0.92296  1.0000
  C   C1605     1.0  0.40408  0.81274  0.25785  1.0000
  C   C1606     1.0  0.33623  0.78564  0.13390  1.0000
  C   C1607     1.0  0.27623  0.70864  0.27648  1.0000
  H   H1293     1.0  0.40925  0.81467  0.36033  1.0000
  H   H1294     1.0  0.37835  0.70725  0.29543  1.0000
  H   H1295     1.0  0.35520  0.72140  0.39448  1.0000
  C   C1608     1.0  0.34964  0.75378  0.40193  1.0000
  H   H1296     1.0  0.39709  0.79840  0.59547  1.0000
  H   H1297     1.0  0.36864  0.73947  0.32864  1.0000
  H   H1298     1.0  0.35162  0.72587  0.27643  1.0000
  C   C1609     1.0  0.39868  0.83089  0.61181  1.0000
  H   H1299     1.0  0.34301  0.69154  0.04789  1.0000
  H   H1300     1.0  0.33151  0.69144  0.93515  1.0000
  S   S254      1.0  0.25895  0.70453  0.88463  1.0000
  C   C1610     1.0  0.27268  0.71937  0.88889  1.0000
  C   C1611     1.0  0.28535  0.75063  0.17127  1.0000
  H   H1301     1.0  0.40183  0.83161  0.83682  1.0000
  C   C1612     1.0  0.32223  0.70136  0.92618  1.0000
  C   C1613     1.0  0.36309  0.77550  0.47847  1.0000
  C   C1614     1.0  0.40417  0.80233  0.57335  1.0000
  C   C1615     1.0  0.41780  0.77978  0.50111  1.0000
  C   C1616     1.0  0.27174  0.69891  0.11753  1.0000
  C   C1617     1.0  0.38204  0.74191  0.34199  1.0000
  C   C1618     1.0  0.37462  0.73632  0.33390  1.0000
  H   H1302     1.0  0.33995  0.69380  0.85696  1.0000
  H   H1303     1.0  0.28336  0.68381  0.95556  1.0000
  H   H1304     1.0  0.27690  0.76264  0.42337  1.0000
  C   C1619     1.0  0.42929  0.79950  0.79934  1.0000
  C   C1620     1.0  0.43233  0.80809  0.76556  1.0000
  C   C1621     1.0  0.43975  0.81602  0.76174  1.0000
  C   C1622     1.0  0.44421  0.81547  0.79172  1.0000
  C   C1623     1.0  0.44127  0.80681  0.82536  1.0000
  C   C1624     1.0  0.43384  0.79886  0.82917  1.0000
  H   H1305     1.0  0.42886  0.80867  0.74240  1.0000
  H   H1306     1.0  0.44198  0.82257  0.73560  1.0000
  H   H1307     1.0  0.44475  0.80625  0.84857  1.0000
  H   H1308     1.0  0.43167  0.79221  0.85504  1.0000
  C   C1625     1.0  0.44689  0.79433  0.70726  1.0000
  C   C1626     1.0  0.39556  0.71235  0.86974  1.0000
  C   C1627     1.0  0.39215  0.72088  0.86888  1.0000
  C   C1628     1.0  0.39844  0.72973  0.86434  1.0000
  C   C1629     1.0  0.40823  0.73007  0.86097  1.0000
  C   C1630     1.0  0.41164  0.72148  0.86249  1.0000
  C   C1631     1.0  0.40531  0.71262  0.86717  1.0000
  H   H1309     1.0  0.38460  0.72062  0.87168  1.0000
  H   H1310     1.0  0.39576  0.73631  0.86285  1.0000
  H   H1311     1.0  0.41922  0.72170  0.85970  1.0000
  H   H1312     1.0  0.40803  0.70609  0.86765  1.0000
  C   C1632     1.0  0.35458  0.72327  0.33373  1.0000
  C   C1633     1.0  0.36614  0.69946  0.98131  1.0000
  C   C1634     1.0  0.34516  0.68105  0.85194  1.0000
  H   H1313     1.0  0.40289  0.80923  0.16937  1.0000
  C   C1635     1.0  0.42723  0.73428  0.12113  1.0000
  H   H1314     1.0  0.38169  0.74920  0.34334  1.0000
  C   C1636     1.0  0.35405  0.74649  0.90719  1.0000
  C   C1637     1.0  0.35188  0.74891  0.94304  1.0000
  C   C1638     1.0  0.35945  0.75262  0.95611  1.0000
  C   C1639     1.0  0.36926  0.75412  0.93312  1.0000
  C   C1640     1.0  0.37146  0.75186  0.89693  1.0000
  C   C1641     1.0  0.36386  0.74806  0.88407  1.0000
  H   H1315     1.0  0.34437  0.74771  0.96126  1.0000
  H   H1316     1.0  0.35765  0.75427  0.98430  1.0000
  H   H1317     1.0  0.37900  0.75303  0.87888  1.0000
  H   H1318     1.0  0.36556  0.74643  0.85586  1.0000
  C   C1642     1.0  0.28075  0.73878  0.05277  1.0000
  H   H1319     1.0  0.33559  0.72920  0.30240  1.0000
  C   C1643     1.0  0.38960  0.74259  0.04408  1.0000
  C   C1644     1.0  0.40001  0.67407  0.10613  1.0000
  H   H1320     1.0  0.41626  0.77564  0.53279  1.0000
  H   H1321     1.0  0.43562  0.77183  0.77916  1.0000
  H   H1322     1.0  0.37441  0.77691  0.83440  1.0000
  H   H1323     1.0  0.26669  0.70967  0.99712  1.0000
  C   C1645     1.0  0.42903  0.69348  0.94837  1.0000
  H   H1324     1.0  0.38223  0.82567  0.24473  1.0000
  C   C1646     1.0  0.33493  0.78769  0.31943  1.0000
  H   H1325     1.0  0.41356  0.83544  0.44875  1.0000
  C   C1647     1.0  0.41576  0.73336  0.99249  1.0000
  H   H1326     1.0  0.33896  0.77547  0.69022  1.0000
  H   H1327     1.0  0.33465  0.78823  0.28931  1.0000
  C   C1648     1.0  0.31330  0.75841  0.13234  1.0000
  C   C1649     1.0  0.31681  0.76199  0.08966  1.0000
  C   C1650     1.0  0.31580  0.75560  0.06700  1.0000
  C   C1651     1.0  0.31109  0.74565  0.08698  1.0000
  C   C1652     1.0  0.30721  0.74221  0.12947  1.0000
  C   C1653     1.0  0.30841  0.74852  0.15207  1.0000
  H   H1328     1.0  0.32054  0.76965  0.07413  1.0000
  H   H1329     1.0  0.31886  0.75831  0.03423  1.0000
  C   C1654     1.0  0.41537  0.78070  0.43648  1.0000
  H   H1330     1.0  0.30531  0.74577  0.18483  1.0000
  C   C1655     1.0  0.28514  0.68136  0.20294  1.0000
  C   C1656     1.0  0.40354  0.67637  0.06384  1.0000
  H   H1331     1.0  0.26836  0.73233  0.14348  1.0000
  C   C1657     1.0  0.39804  0.83273  0.47970  1.0000
  C   C1658     1.0  0.28541  0.72333  0.02418  1.0000
  H   H1332     1.0  0.41226  0.81982  0.43380  1.0000
  H   H1333     1.0  0.41112  0.68005  0.04750  1.0000
  C   C1659     1.0  0.42514  0.67353  0.99470  1.0000
  C   C1660     1.0  0.33936  0.79580  0.36652  1.0000
  H   H1334     1.0  0.45510  0.79612  0.78569  1.0000
  C   C1661     1.0  0.42792  0.79732  0.29484  1.0000
  C   C1662     1.0  0.43583  0.79367  0.30217  1.0000
  C   C1663     1.0  0.44219  0.79861  0.31801  1.0000
  C   C1664     1.0  0.44072  0.80723  0.32707  1.0000
  C   C1665     1.0  0.43268  0.81071  0.32069  1.0000
  C   C1666     1.0  0.42639  0.80585  0.30450  1.0000
  H   H1335     1.0  0.43713  0.78711  0.29515  1.0000
  H   H1336     1.0  0.44832  0.79575  0.32301  1.0000
  H   H1337     1.0  0.43138  0.81723  0.32777  1.0000
  H   H1338     1.0  0.42030  0.80876  0.29930  1.0000
  C   C1667     1.0  0.41284  0.77667  0.08167  1.0000
  C   C1668     1.0  0.41669  0.76842  0.09054  1.0000
  C   C1669     1.0  0.41872  0.76338  0.06229  1.0000
  C   C1670     1.0  0.41670  0.76642  0.02561  1.0000
  C   C1671     1.0  0.41263  0.77453  0.01726  1.0000
  C   C1672     1.0  0.41077  0.77968  0.04519  1.0000
  H   H1339     1.0  0.41828  0.76604  0.11875  1.0000
  H   H1340     1.0  0.42187  0.75710  0.06889  1.0000
  H   H1341     1.0  0.41106  0.77691  0.98908  1.0000
  H   H1342     1.0  0.40759  0.78592  0.03897  1.0000
  C   C1673     1.0  0.35496  0.75074  0.24466  1.0000
  C   C1674     1.0  0.35195  0.75459  0.27623  1.0000
  C   C1675     1.0  0.35887  0.75900  0.29064  1.0000
  C   C1676     1.0  0.36885  0.75972  0.27328  1.0000
  C   C1677     1.0  0.37183  0.75590  0.24157  1.0000
  C   C1678     1.0  0.36489  0.75139  0.22745  1.0000
  H   H1343     1.0  0.34428  0.75414  0.28974  1.0000
  H   H1344     1.0  0.35644  0.76189  0.31516  1.0000
  H   H1345     1.0  0.37946  0.75645  0.22776  1.0000
  H   H1346     1.0  0.36724  0.74852  0.20276  1.0000
  C   C1679     1.0  0.40806  0.73189  0.25303  1.0000
  C   C1680     1.0  0.40971  0.72263  0.27038  1.0000
  C   C1681     1.0  0.40499  0.71406  0.26520  1.0000
  C   C1682     1.0  0.39865  0.71467  0.24211  1.0000
  C   C1683     1.0  0.39718  0.72393  0.22419  1.0000
  C   C1684     1.0  0.40177  0.73247  0.22977  1.0000
  H   H1347     1.0  0.41459  0.72208  0.28827  1.0000
  H   H1348     1.0  0.40623  0.70699  0.27919  1.0000
  H   H1349     1.0  0.39252  0.72447  0.20552  1.0000
  H   H1350     1.0  0.40050  0.73951  0.21578  1.0000
  C   C1685     1.0  0.34887  0.69461  0.01912  1.0000
  C   C1686     1.0  0.28283  0.71762  0.25054  1.0000
  C   C1687     1.0  0.35333  0.76353  0.39839  1.0000
  C   C1688     1.0  0.35200  0.67559  0.85827  1.0000
  H   H1351     1.0  0.41231  0.80989  0.64025  1.0000
  H   H1352     1.0  0.28737  0.71750  0.01259  1.0000
  C   C1689     1.0  0.41980  0.71807  0.02144  1.0000
  S   S255      1.0  0.36263  0.80841  0.43997  1.0000
  H   H1353     1.0  0.35529  0.81289  0.70625  1.0000
  C   C1690     1.0  0.30257  0.77655  0.98400  1.0000
  C   C1691     1.0  0.30642  0.70197  0.09557  1.0000
  C   C1692     1.0  0.34181  0.72498  0.38872  1.0000
  C   C1693     1.0  0.38963  0.81877  0.86530  1.0000
  C   C1694     1.0  0.45175  0.79630  0.58369  1.0000
  S   S256      1.0  0.24928  0.67595  0.94699  1.0000
  H   H1354     1.0  0.31051  0.71935  0.24161  1.0000
  H   H1355     1.0  0.35313  0.79310  0.02001  1.0000
  C   C1695     1.0  0.28489  0.75299  0.13167  1.0000
  C   C1696     1.0  0.42020  0.80208  0.53208  1.0000
  H   H1356     1.0  0.33776  0.77254  0.89147  1.0000
  C   C1697     1.0  0.34470  0.79979  0.63436  1.0000
  C   C1698     1.0  0.37795  0.80358  0.63249  1.0000
  C   C1699     1.0  0.36814  0.75943  0.40843  1.0000
  H   H1357     1.0  0.34892  0.76881  0.39320  1.0000
  H   H1358     1.0  0.34000  0.67880  0.83755  1.0000
  H   H1359     1.0  0.28901  0.73413  0.09321  1.0000
  P   P55       1.0  0.29545  0.77398  0.35938  1.0000
  C   C1700     1.0  0.37643  0.77475  0.05115  1.0000
  S   S257      1.0  0.26006  0.68126  0.21773  1.0000
  H   H1360     1.0  0.41875  0.83435  0.23537  1.0000
  C   C1701     1.0  0.39955  0.82444  0.35746  1.0000
  C   C1702     1.0  0.41371  0.81012  0.03631  1.0000
  C   C1703     1.0  0.40730  0.80964  0.07356  1.0000
  C   C1704     1.0  0.40370  0.81781  0.07761  1.0000
  H   H1361     1.0  0.34794  0.67616  0.00216  1.0000
  H   H1362     1.0  0.46244  0.77935  0.55169  1.0000
  C   C1705     1.0  0.27487  0.70302  0.91409  1.0000
  C   C1706     1.0  0.39665  0.81507  0.46169  1.0000
  C   C1707     1.0  0.29313  0.77752  0.00073  1.0000
  H   H1363     1.0  0.46873  0.80811  0.60124  1.0000
  H   H1364     1.0  0.29334  0.77942  0.22084  1.0000
  C   C1708     1.0  0.42291  0.80661  0.15846  1.0000
  H   H1365     1.0  0.33139  0.77423  0.63796  1.0000
  H   H1366     1.0  0.34823  0.80700  0.63336  1.0000
  H   H1367     1.0  0.29308  0.72076  0.06780  1.0000
  H   H1368     1.0  0.41646  0.80373  0.03358  1.0000
  H   H1369     1.0  0.40514  0.80290  0.09923  1.0000
  H   H1370     1.0  0.39860  0.81735  0.10635  1.0000
  H   H1371     1.0  0.40023  0.67546  0.01019  1.0000
  H   H1372     1.0  0.39095  0.77166  0.11109  1.0000
  C   C1709     1.0  0.30159  0.70511  0.17548  1.0000
  Fe  Fe127     1.0  0.37546  0.81978  0.39291  1.0000
  H   H1373     1.0  0.31003  0.71815  0.12453  1.0000
  S   S258      1.0  0.37469  0.83073  0.42604  1.0000
  C   C1710     1.0  0.38563  0.71395  0.00465  1.0000
  C   C1711     1.0  0.38934  0.72196  0.96895  1.0000
  C   C1712     1.0  0.38423  0.72928  0.96225  1.0000
  C   C1713     1.0  0.37555  0.72872  0.99167  1.0000
  C   C1714     1.0  0.37184  0.72080  0.02831  1.0000
  C   C1715     1.0  0.37695  0.71335  0.03428  1.0000
  P   P56       1.0  0.36031  0.71998  0.06544  1.0000
  C   C1716     1.0  0.35591  0.70797  0.10414  1.0000
  C   C1717     1.0  0.36150  0.72950  0.08873  1.0000
  C   C1718     1.0  0.35808  0.72723  0.13125  1.0000
  C   C1719     1.0  0.35872  0.73469  0.14875  1.0000
  C   C1720     1.0  0.36272  0.74446  0.12415  1.0000
  C   C1721     1.0  0.36572  0.74684  0.08192  1.0000
  C   C1722     1.0  0.36503  0.73942  0.06429  1.0000
  C   C1723     1.0  0.34704  0.70173  0.10921  1.0000
  C   C1724     1.0  0.34370  0.69248  0.13922  1.0000
  C   C1725     1.0  0.34915  0.68941  0.16459  1.0000
  C   C1726     1.0  0.35793  0.69562  0.16012  1.0000
  C   C1727     1.0  0.36131  0.70486  0.13004  1.0000
  C   C1728     1.0  0.35152  0.72214  0.03937  1.0000
  C   C1729     1.0  0.35257  0.72031  0.00233  1.0000
  C   C1730     1.0  0.34602  0.72252  0.98132  1.0000
  C   C1731     1.0  0.33833  0.72640  0.99738  1.0000
  C   C1732     1.0  0.33698  0.72790  0.03489  1.0000
  C   C1733     1.0  0.34357  0.72579  0.05588  1.0000
  H   H1374     1.0  0.38945  0.70812  0.00896  1.0000
  H   H1375     1.0  0.39613  0.72244  0.94632  1.0000
  H   H1376     1.0  0.38696  0.73538  0.93403  1.0000
  H   H1377     1.0  0.37163  0.73436  0.98491  1.0000
  H   H1378     1.0  0.37427  0.70693  0.06107  1.0000
  H   H1379     1.0  0.35474  0.71977  0.15121  1.0000
  H   H1380     1.0  0.35609  0.73292  0.18155  1.0000
  H   H1381     1.0  0.36321  0.75019  0.13798  1.0000
  H   H1382     1.0  0.36851  0.75444  0.06264  1.0000
  H   H1383     1.0  0.36714  0.74154  0.03157  1.0000
  H   H1384     1.0  0.34266  0.70398  0.09017  1.0000
  H   H1385     1.0  0.33685  0.68767  0.14301  1.0000
  H   H1386     1.0  0.34657  0.68223  0.18784  1.0000
  H   H1387     1.0  0.36210  0.69322  0.18004  1.0000
  H   H1388     1.0  0.36816  0.70957  0.12669  1.0000
  H   H1389     1.0  0.35855  0.71741  0.98908  1.0000
  H   H1390     1.0  0.34704  0.72152  0.95194  1.0000
  H   H1391     1.0  0.33352  0.72841  0.98023  1.0000
  H   H1392     1.0  0.33091  0.73085  0.04718  1.0000
  H   H1393     1.0  0.34255  0.72717  0.08459  1.0000
  C   C1734     1.0  0.39067  0.74915  0.06548  1.0000
  C   C1735     1.0  0.39613  0.74780  0.09200  1.0000
  C   C1736     1.0  0.40068  0.73995  0.09668  1.0000
  C   C1737     1.0  0.39997  0.73355  0.07395  1.0000
  C   C1738     1.0  0.41429  0.72464  0.10698  1.0000
  C   C1739     1.0  0.42603  0.72647  0.15595  1.0000
  C   C1740     1.0  0.41922  0.71765  0.16559  1.0000
  C   C1741     1.0  0.41336  0.71671  0.14126  1.0000
  C   C1742     1.0  0.39734  0.71237  0.09764  1.0000
  C   C1743     1.0  0.39687  0.70560  0.07636  1.0000
  C   C1744     1.0  0.39000  0.69655  0.09440  1.0000
  C   C1745     1.0  0.38351  0.69422  0.13364  1.0000
  C   C1746     1.0  0.38380  0.70099  0.15469  1.0000
  C   C1747     1.0  0.39060  0.71007  0.13659  1.0000
  H   H1394     1.0  0.38736  0.75535  0.06106  1.0000
  H   H1395     1.0  0.39708  0.75297  0.10819  1.0000
  H   H1396     1.0  0.40483  0.73907  0.11756  1.0000
  H   H1397     1.0  0.43034  0.72726  0.17563  1.0000
  H   H1398     1.0  0.41829  0.71157  0.19253  1.0000
  H   H1399     1.0  0.40808  0.70981  0.14983  1.0000
  H   H1400     1.0  0.38990  0.69121  0.07843  1.0000
  H   H1401     1.0  0.37847  0.68704  0.14810  1.0000
  H   H1402     1.0  0.37908  0.69905  0.18581  1.0000
  H   H1403     1.0  0.39093  0.71512  0.15379  1.0000
  H   H1404     1.0  0.36442  0.79161  0.08757  1.0000
  C   C1748     1.0  0.36717  0.82326  0.59230  1.0000
  C   C1749     1.0  0.36345  0.78416  0.32170  1.0000
  H   H1405     1.0  0.36356  0.79253  0.89822  1.0000
  C   C1750     1.0  0.27349  0.71091  0.15188  1.0000
  H   H1406     1.0  0.35693  0.76026  0.74674  1.0000
  C   C1751     1.0  0.26569  0.75552  0.02824  1.0000
  C   C1752     1.0  0.34054  0.77991  0.11216  1.0000
  C   C1753     1.0  0.39011  0.73828  0.34671  1.0000
  C   C1754     1.0  0.39078  0.72906  0.34331  1.0000
  C   C1755     1.0  0.38340  0.72344  0.33522  1.0000
  C   C1756     1.0  0.37518  0.72695  0.33095  1.0000
  P   P57       1.0  0.36613  0.72023  0.31603  1.0000
  C   C1757     1.0  0.37029  0.72364  0.26123  1.0000
  C   C1758     1.0  0.37635  0.73296  0.23728  1.0000
  C   C1759     1.0  0.37955  0.73558  0.19487  1.0000
  C   C1760     1.0  0.37691  0.72884  0.17611  1.0000
  C   C1761     1.0  0.37090  0.71953  0.19978  1.0000
  C   C1762     1.0  0.36750  0.71697  0.24212  1.0000
  C   C1763     1.0  0.36470  0.70711  0.33731  1.0000
  C   C1764     1.0  0.37194  0.70275  0.32034  1.0000
  C   C1765     1.0  0.37094  0.69261  0.33497  1.0000
  C   C1766     1.0  0.36264  0.68667  0.36683  1.0000
  C   C1767     1.0  0.35533  0.69090  0.38397  1.0000
  C   C1768     1.0  0.35633  0.70108  0.36925  1.0000
  H   H1407     1.0  0.39602  0.74270  0.35175  1.0000
  H   H1408     1.0  0.39725  0.72643  0.34531  1.0000
  H   H1409     1.0  0.38436  0.71651  0.33125  1.0000
  H   H1410     1.0  0.37871  0.73819  0.25118  1.0000
  H   H1411     1.0  0.38425  0.74278  0.17679  1.0000
  H   H1412     1.0  0.37951  0.73081  0.14328  1.0000
  H   H1413     1.0  0.36892  0.71426  0.18543  1.0000
  H   H1414     1.0  0.36280  0.70975  0.25993  1.0000
  H   H1415     1.0  0.37662  0.68940  0.32128  1.0000
  H   H1416     1.0  0.40382  0.83280  0.04839  1.0000
  H   H1417     1.0  0.34885  0.68628  0.40851  1.0000
  H   H1418     1.0  0.35049  0.70410  0.38266  1.0000
  H   H1419     1.0  0.42869  0.83224  0.76511  1.0000
  C   C1769     1.0  0.28580  0.76927  0.02754  1.0000
  H   H1420     1.0  0.26075  0.71634  0.05338  1.0000
  C   C1770     1.0  0.35866  0.68694  0.88819  1.0000
  C   C1771     1.0  0.35160  0.69230  0.88319  1.0000
  C   C1772     1.0  0.34507  0.68948  0.86362  1.0000
  P   P58       1.0  0.35173  0.70333  0.89751  1.0000
  C   C1773     1.0  0.35429  0.70091  0.94516  1.0000
  C   C1774     1.0  0.36147  0.71321  0.85902  1.0000
  C   C1775     1.0  0.36476  0.72181  0.86722  1.0000
  C   C1776     1.0  0.37260  0.72924  0.83825  1.0000
  C   C1777     1.0  0.37727  0.72813  0.80111  1.0000
  C   C1778     1.0  0.37402  0.71964  0.79263  1.0000
  C   C1779     1.0  0.36614  0.71221  0.82135  1.0000
  C   C1780     1.0  0.34672  0.69720  0.98266  1.0000
  C   C1781     1.0  0.36401  0.70213  0.94493  1.0000
  C   C1782     1.0  0.34000  0.70646  0.90347  1.0000
  C   C1783     1.0  0.32177  0.71111  0.91035  1.0000
  C   C1784     1.0  0.33036  0.71853  0.89148  1.0000
  C   C1785     1.0  0.33944  0.71623  0.88789  1.0000
  C   C1786     1.0  0.25227  0.70425  0.99622  1.0000
  H   H1421     1.0  0.27854  0.77018  0.04033  1.0000
  H   H1422     1.0  0.36418  0.68924  0.90087  1.0000
  H   H1423     1.0  0.36139  0.72271  0.89618  1.0000
  H   H1424     1.0  0.37536  0.73568  0.84526  1.0000
  H   H1425     1.0  0.38355  0.73376  0.77929  1.0000
  H   H1426     1.0  0.37777  0.71869  0.76416  1.0000
  H   H1427     1.0  0.36389  0.70564  0.81425  1.0000
  H   H1428     1.0  0.33916  0.69611  0.98398  1.0000
  H   H1429     1.0  0.36999  0.70488  0.91652  1.0000
  H   H1430     1.0  0.33000  0.72610  0.87933  1.0000
  H   H1431     1.0  0.34594  0.72216  0.87262  1.0000
  H   H1432     1.0  0.38355  0.79435  0.29054  1.0000
  Fe  Fe128     1.0  0.25614  0.68846  0.26602  1.0000
  H   H1433     1.0  0.30320  0.73465  0.14505  1.0000
  C   C1787     1.0  0.28773  0.74462  0.37508  1.0000
  C   C1788     1.0  0.31614  0.70189  0.09346  1.0000
  H   H1434     1.0  0.29922  0.70286  0.27450  1.0000
  C   C1789     1.0  0.34122  0.77765  0.78029  1.0000
  C   C1790     1.0  0.33520  0.78136  0.63670  1.0000
  H   H1435     1.0  0.42953  0.71308  0.97903  1.0000
  C   C1791     1.0  0.42162  0.73400  0.95387  1.0000
  H   H1436     1.0  0.41232  0.73931  0.99557  1.0000
  H   H1437     1.0  0.40182  0.70716  0.04608  1.0000
  H   H1438     1.0  0.36803  0.77672  0.92327  1.0000
  C   C1792     1.0  0.34031  0.79902  0.60499  1.0000
  H   H1439     1.0  0.28016  0.73987  0.23120  1.0000
  H   H1440     1.0  0.31209  0.76667  0.98200  1.0000
  C   C1793     1.0  0.31122  0.71957  0.18088  1.0000
  H   H1441     1.0  0.29422  0.72998  0.24380  1.0000
  H   H1442     1.0  0.31554  0.69562  0.94075  1.0000
  C   C1794     1.0  0.44695  0.80064  0.45448  1.0000
  C   C1795     1.0  0.33627  0.72717  0.36287  1.0000
  H   H1443     1.0  0.42245  0.73946  0.06955  1.0000
  C   C1796     1.0  0.45540  0.79109  0.55798  1.0000
  H   H1444     1.0  0.42240  0.74025  0.92774  1.0000
  H   H1445     1.0  0.34677  0.78167  0.54874  1.0000
  C   C1797     1.0  0.41453  0.72521  0.02639  1.0000
  H   H1446     1.0  0.40918  0.76799  0.49025  1.0000
  C   C1798     1.0  0.35858  0.69568  0.01844  1.0000
  C   C1799     1.0  0.27347  0.73524  0.19067  1.0000
  H   H1447     1.0  0.26115  0.70725  0.13218  1.0000
  H   H1448     1.0  0.26578  0.68278  0.98695  1.0000
  C   C1800     1.0  0.36217  0.79065  0.28818  1.0000
  H   H1449     1.0  0.33898  0.72472  0.42004  1.0000
  C   C1801     1.0  0.35344  0.78521  0.44715  1.0000
  C   C1802     1.0  0.27997  0.72927  0.00699  1.0000
  C   C1803     1.0  0.42148  0.73333  0.09639  1.0000
  C   C1804     1.0  0.42666  0.82519  0.20726  1.0000
  H   H1450     1.0  0.36853  0.80031  0.37076  1.0000
  C   C1805     1.0  0.36535  0.80400  0.31457  1.0000
  C   C1806     1.0  0.36091  0.78019  0.44356  1.0000
  C   C1807     1.0  0.43498  0.82133  0.20305  1.0000
  C   C1808     1.0  0.40685  0.81409  0.21601  1.0000
  C   C1809     1.0  0.44185  0.82388  0.22129  1.0000
  C   C1810     1.0  0.36242  0.78925  0.93028  1.0000
  H   H1451     1.0  0.30822  0.78286  0.96241  1.0000
  H   H1452     1.0  0.38075  0.80783  0.81798  1.0000
  H   H1453     1.0  0.37520  0.76935  0.16384  1.0000
  H   H1454     1.0  0.32836  0.78402  0.14674  1.0000
  C   C1811     1.0  0.34784  0.78073  0.74075  1.0000
  C   C1812     1.0  0.27966  0.74176  0.20072  1.0000
  C   C1813     1.0  0.36782  0.79988  0.64561  1.0000
  H   H1455     1.0  0.32425  0.79515  0.84385  1.0000
  C   C1814     1.0  0.25894  0.70898  0.01047  1.0000
  Fe  Fe129     1.0  0.40292  0.67154  0.89530  1.0000
  H   H1456     1.0  0.35244  0.73937  0.41061  1.0000
  H   H1457     1.0  0.25866  0.74451  0.13098  1.0000
  C   C1815     1.0  0.42333  0.81671  0.14499  1.0000
  P   P59       1.0  0.27835  0.74910  0.06975  1.0000
  C   C1816     1.0  0.40084  0.80850  0.20131  1.0000
  C   C1817     1.0  0.42231  0.81233  0.51483  1.0000
  H   H1458     1.0  0.33587  0.77391  0.10848  1.0000
  H   H1459     1.0  0.41969  0.80231  0.19046  1.0000
  H   H1460     1.0  0.48466  0.82435  0.75552  1.0000
  C   C1818     1.0  0.28919  0.71975  0.30466  1.0000
  C   C1819     1.0  0.42303  0.68633  0.94055  1.0000
  H   H1461     1.0  0.36435  0.79862  0.62380  1.0000
  C   C1820     1.0  0.34021  0.76835  0.80725  1.0000
  H   H1462     1.0  0.29345  0.69383  0.23349  1.0000
  C   C1821     1.0  0.35663  0.78956  0.99928  1.0000
  S   S259      1.0  0.29713  0.72640  0.32411  1.0000
  C   C1822     1.0  0.32090  0.70637  0.02007  1.0000
  C   C1823     1.0  0.25559  0.71276  0.04197  1.0000
  C   C1824     1.0  0.41551  0.81754  0.52748  1.0000
  H   H1463     1.0  0.40913  0.78914  0.57382  1.0000
  C   C1825     1.0  0.34829  0.78566  0.48506  1.0000
  C   C1826     1.0  0.28601  0.70190  0.13886  1.0000
  C   C1827     1.0  0.35820  0.79380  0.95772  1.0000
  S   S260      1.0  0.36697  0.82609  0.35346  1.0000
  H   H1464     1.0  0.32651  0.70828  0.99086  1.0000
  H   H1465     1.0  0.28333  0.73125  0.89070  1.0000
  C   C1828     1.0  0.36739  0.77324  0.08098  1.0000
  H   H1466     1.0  0.29149  0.78467  0.99257  1.0000
  H   H1467     1.0  0.34252  0.75164  0.39884  1.0000
  H   H1468     1.0  0.43318  0.76686  0.64898  1.0000
  C   C1829     1.0  0.33550  0.78667  0.39752  1.0000
  H   H1469     1.0  0.27361  0.74154  0.00665  1.0000
  C   C1830     1.0  0.44498  0.81005  0.50097  1.0000
  C   C1831     1.0  0.29855  0.70091  0.21804  1.0000
  C   C1832     1.0  0.34273  0.80055  0.72611  1.0000
  C   C1833     1.0  0.39572  0.83447  0.57803  1.0000
  H   H1470     1.0  0.32862  0.79034  0.74601  1.0000
  C   C1834     1.0  0.32334  0.70408  0.05582  1.0000
  H   H1471     1.0  0.33687  0.78238  0.79076  1.0000
  C   C1835     1.0  0.34382  0.76015  0.05433  1.0000
  C   C1836     1.0  0.30820  0.71531  0.22307  1.0000
  C   C1837     1.0  0.43324  0.69070  0.97883  1.0000
  H   H1472     1.0  0.34263  0.78971  0.48733  1.0000
  H   H1473     1.0  0.26915  0.72830  0.21348  1.0000
  H   H1474     1.0  0.32920  0.72869  0.37395  1.0000
  C   C1838     1.0  0.30407  0.70433  0.05937  1.0000
  H   H1475     1.0  0.39173  0.77515  0.03885  1.0000
  C   C1839     1.0  0.34774  0.79720  0.84480  1.0000
  C   C1840     1.0  0.28922  0.72314  0.26441  1.0000
  C   C1841     1.0  0.42773  0.82210  0.10348  1.0000
  C   C1842     1.0  0.43667  0.81100  0.61605  1.0000
  C   C1843     1.0  0.45130  0.79288  0.76859  1.0000
  C   C1844     1.0  0.40575  0.82157  0.45010  1.0000
  C   C1845     1.0  0.38439  0.77207  0.10267  1.0000
  C   C1846     1.0  0.36343  0.77616  0.98569  1.0000
  H   H1476     1.0  0.42648  0.78098  0.65941  1.0000
  H   H1477     1.0  0.34061  0.80561  0.58134  1.0000
  C   C1847     1.0  0.34898  0.72551  0.30792  1.0000
  C   C1848     1.0  0.37965  0.81544  0.88796  1.0000
  C   C1849     1.0  0.29379  0.68559  0.16982  1.0000
  C   C1850     1.0  0.33205  0.81337  0.75286  1.0000
  H   H1478     1.0  0.37369  0.70015  0.98038  1.0000
  H   H1479     1.0  0.37233  0.81876  0.58890  1.0000
  C   C1851     1.0  0.39414  0.73475  0.04862  1.0000
  P   P60       1.0  0.40648  0.72389  0.07618  1.0000
  H   H1480     1.0  0.38555  0.74378  0.02281  1.0000
  C   C1852     1.0  0.44110  0.78464  0.72535  1.0000
  H   H1481     1.0  0.30663  0.76166  0.39975  1.0000
  C   C1853     1.0  0.41102  0.79709  0.56105  1.0000
  C   C1854     1.0  0.42646  0.72663  0.94887  1.0000
  C   C1855     1.0  0.35990  0.83412  0.62591  1.0000
  H   H1482     1.0  0.45769  0.78448  0.66607  1.0000
  C   C1856     1.0  0.41369  0.77544  0.47723  1.0000
  H   H1483     1.0  0.39348  0.72989  0.03098  1.0000
  H   H1484     1.0  0.43253  0.74112  0.11360  1.0000
  H   H1485     1.0  0.39607  0.80842  0.45348  1.0000
  C   C1857     1.0  0.29746  0.75914  0.02208  1.0000
  H   H1486     1.0  0.42002  0.68844  0.91600  1.0000
  H   H1487     1.0  0.39325  0.82699  0.64137  1.0000
  C   C1858     1.0  0.46031  0.78101  0.61077  1.0000
  C   C1859     1.0  0.42787  0.79925  0.68296  1.0000
  H   H1488     1.0  0.33412  0.74908  0.04429  1.0000
  H   H1489     1.0  0.41226  0.77733  0.41779  1.0000
  C   C1860     1.0  0.42565  0.71872  0.98274  1.0000
  H   H1490     1.0  0.41923  0.71190  0.04747  1.0000
  C   C1861     1.0  0.47817  0.83431  0.78244  1.0000
  H   H1491     1.0  0.42953  0.80225  0.42990  1.0000
  Fe  Fe130     1.0  0.40508  0.67313  0.27814  1.0000
  C   C1862     1.0  0.42381  0.78936  0.48408  1.0000
  H   H1492     1.0  0.37714  0.77651  0.01935  1.0000
  C   C1863     1.0  0.38484  0.77409  0.06205  1.0000
  C   C1864     1.0  0.40860  0.82218  0.35561  1.0000
  H   H1493     1.0  0.33505  0.76601  0.83768  1.0000
  P   P61       1.0  0.35646  0.77460  0.06748  1.0000
  H   H1494     1.0  0.36185  0.80557  0.25927  1.0000
  H   H1495     1.0  0.29662  0.76997  0.44171  1.0000
  H   H1496     1.0  0.25817  0.78239  0.40808  1.0000
  C   C1865     1.0  0.26661  0.75106  0.06638  1.0000
  C   C1866     1.0  0.42106  0.79035  0.41979  1.0000
  C   C1867     1.0  0.42519  0.79472  0.44350  1.0000
  H   H1497     1.0  0.42230  0.79442  0.38831  1.0000
  C   C1868     1.0  0.33959  0.78209  0.66619  1.0000
  H   H1498     1.0  0.35869  0.77665  0.69838  1.0000
  C   C1869     1.0  0.35253  0.76512  0.75596  1.0000
  H   H1499     1.0  0.34507  0.75492  0.81641  1.0000
  C   C1870     1.0  0.33111  0.77857  0.35057  1.0000
  C   C1871     1.0  0.34586  0.76210  0.79521  1.0000
  C   C1872     1.0  0.35351  0.77440  0.72877  1.0000
  C   C1873     1.0  0.33740  0.75098  0.06569  1.0000
  H   H1500     1.0  0.39373  0.80439  0.31684  1.0000
  H   H1501     1.0  0.44062  0.81168  0.52666  1.0000
  H   H1502     1.0  0.38238  0.82746  0.50977  1.0000
  S   S261      1.0  0.26822  0.70207  0.25700  1.0000
  C   C1874     1.0  0.37715  0.80338  0.70061  1.0000
  S   S262      1.0  0.45359  0.82537  0.78763  1.0000
  C   C1875     1.0  0.27304  0.73755  0.15107  1.0000
  C   C1876     1.0  0.43210  0.83394  0.24923  1.0000
  H   H1503     1.0  0.42468  0.79338  0.60178  1.0000
  C   C1877     1.0  0.39734  0.67387  0.04258  1.0000
  C   C1878     1.0  0.37550  0.77071  0.13245  1.0000
  H   H1504     1.0  0.43800  0.69622  0.98463  1.0000
  C   C1879     1.0  0.37861  0.78324  0.83797  1.0000
  H   H1505     1.0  0.36308  0.77661  0.32293  1.0000
  H   H1506     1.0  0.43509  0.67886  0.02379  1.0000
  H   H1507     1.0  0.37601  0.80777  0.89695  1.0000
  C   C1880     1.0  0.31128  0.70647  0.02190  1.0000
  H   H1508     1.0  0.28248  0.70803  0.36181  1.0000
  H   H1509     1.0  0.40107  0.81664  0.56534  1.0000
  C   C1881     1.0  0.30475  0.76739  0.99501  1.0000
  H   H1510     1.0  0.47211  0.82856  0.80513  1.0000
  H   H1511     1.0  0.44560  0.83186  0.25943  1.0000
  C   C1882     1.0  0.40178  0.80343  0.96218  1.0000
  H   H1512     1.0  0.28803  0.79111  0.33040  1.0000
  C   C1883     1.0  0.43183  0.83425  0.91097  1.0000
  H   H1513     1.0  0.42159  0.67168  0.45176  1.0000
  C   C1884     1.0  0.30185  0.70600  0.24162  1.0000
  H   H1514     1.0  0.37143  0.79343  0.80884  1.0000
  C   C1885     1.0  0.39750  0.80634  0.93193  1.0000
  C   C1886     1.0  0.33150  0.77819  0.38956  1.0000
  C   C1887     1.0  0.41051  0.80042  0.95310  1.0000
  C   C1888     1.0  0.33811  0.78015  0.87674  1.0000
  H   H1515     1.0  0.28278  0.73984  0.36674  1.0000
  C   C1889     1.0  0.31345  0.79135  0.41679  1.0000
  H   H1516     1.0  0.27266  0.69520  0.91997  1.0000
  C   C1890     1.0  0.36272  0.76649  0.40043  1.0000
  C   C1891     1.0  0.34204  0.79340  0.13933  1.0000
  C   C1892     1.0  0.33059  0.79290  0.84969  1.0000
  C   C1893     1.0  0.42221  0.82738  0.76609  1.0000
  C   C1894     1.0  0.42129  0.82600  0.73034  1.0000
  H   H1517     1.0  0.38695  0.77486  0.86840  1.0000
  H   H1518     1.0  0.40175  0.82711  0.15256  1.0000
  P   P62       1.0  0.29713  0.69873  0.14464  1.0000
  H   H1519     1.0  0.44463  0.77916  0.81751  1.0000
  H   H1520     1.0  0.46096  0.80488  0.40777  1.0000
  H   H1521     1.0  0.41203  0.81895  0.70368  1.0000
  C   C1895     1.0  0.35885  0.67864  0.87569  1.0000
  C   C1896     1.0  0.35074  0.78192  0.09562  1.0000
  C   C1897     1.0  0.41286  0.81982  0.73150  1.0000
  C   C1898     1.0  0.40536  0.81501  0.76839  1.0000
  S   S263      1.0  0.34284  0.80708  0.37708  1.0000
  C   C1899     1.0  0.41490  0.80021  0.91407  1.0000
  H   H1522     1.0  0.36595  0.81165  0.31205  1.0000
  C   C1900     1.0  0.39236  0.80154  0.22806  1.0000
  H   H1523     1.0  0.33210  0.78929  0.58347  1.0000
  H   H1524     1.0  0.42354  0.82779  0.35100  1.0000
  C   C1901     1.0  0.36305  0.80057  0.28474  1.0000
  C   C1902     1.0  0.41484  0.82240  0.80314  1.0000
  H   H1525     1.0  0.39658  0.78913  0.87647  1.0000
  H   H1526     1.0  0.35596  0.80051  0.94667  1.0000
  H   H1527     1.0  0.42135  0.81879  0.97445  1.0000
  C   C1903     1.0  0.38566  0.78208  0.85723  1.0000
  H   H1528     1.0  0.32978  0.73744  0.11382  1.0000
  C   C1904     1.0  0.33493  0.74443  0.10497  1.0000
  C   C1905     1.0  0.32985  0.78291  0.86920  1.0000
  H   H1529     1.0  0.36025  0.77024  0.14554  1.0000
  C   C1906     1.0  0.33888  0.74702  0.13296  1.0000
  C   C1907     1.0  0.40631  0.81625  0.80461  1.0000
  Fe  Fe131     1.0  0.44903  0.82782  0.36118  1.0000
  C   C1908     1.0  0.39101  0.79019  0.86236  1.0000
  H   H1530     1.0  0.39886  0.81042  0.76824  1.0000
  H   H1531     1.0  0.35328  0.78486  0.86990  1.0000
  P   P63       1.0  0.36735  0.77915  0.39536  1.0000
  C   C1909     1.0  0.34535  0.75618  0.12166  1.0000
  P   P64       1.0  0.41812  0.82258  0.18106  1.0000
  H   H1532     1.0  0.41730  0.82545  0.51392  1.0000
  H   H1533     1.0  0.43362  0.80353  0.06811  1.0000
  H   H1534     1.0  0.33688  0.74200  0.16367  1.0000
  C   C1910     1.0  0.45461  0.81555  0.48094  1.0000
  C   C1911     1.0  0.40641  0.81257  0.55653  1.0000
  H   H1535     1.0  0.34812  0.75809  0.14419  1.0000
  C   C1912     1.0  0.33251  0.79757  0.74334  1.0000
  C   C1913     1.0  0.39565  0.80568  0.28448  1.0000
  Fe  Fe132     1.0  0.36110  0.82001  0.47089  1.0000
  C   C1914     1.0  0.38986  0.80004  0.26967  1.0000
  H   H1536     1.0  0.42828  0.82991  0.09246  1.0000
  C   C1915     1.0  0.34697  0.78722  0.86442  1.0000
  H   H1537     1.0  0.41406  0.80276  0.85387  1.0000
  H   H1538     1.0  0.42157  0.79769  0.90735  1.0000
  C   C1916     1.0  0.36441  0.74967  0.41215  1.0000
  C   C1917     1.0  0.41065  0.80310  0.88383  1.0000
  C   C1918     1.0  0.38920  0.79954  0.84900  1.0000
  P   P65       1.0  0.39666  0.81018  0.85262  1.0000
  C   C1919     1.0  0.40198  0.80630  0.89233  1.0000
  C   C1920     1.0  0.33556  0.78982  0.60614  1.0000
  H   H1539     1.0  0.32843  0.77130  0.41423  1.0000
  Fe  Fe133     1.0  0.38598  0.66974  0.96904  1.0000
  H   H1540     1.0  0.34146  0.80322  0.30346  1.0000
  C   C1921     1.0  0.33888  0.79621  0.32752  1.0000
  H   H1541     1.0  0.41388  0.79815  0.97623  1.0000
  H   H1542     1.0  0.45750  0.82149  0.49062  1.0000
  H   H1543     1.0  0.44808  0.82062  0.21910  1.0000
  H   H1544     1.0  0.39068  0.80853  0.93961  1.0000
  H   H1545     1.0  0.39830  0.80340  0.99275  1.0000
  S   S264      1.0  0.35906  0.80578  0.83185  1.0000
  H   H1546     1.0  0.33865  0.79775  0.15654  1.0000
  C   C1922     1.0  0.36662  0.79750  0.34821  1.0000
  H   H1547     1.0  0.40159  0.77977  0.32812  1.0000
  H   H1548     1.0  0.43614  0.77743  0.52215  1.0000
  C   C1923     1.0  0.43391  0.77822  0.55207  1.0000
  H   H1549     1.0  0.38384  0.77458  0.34331  1.0000
  C   C1924     1.0  0.36229  0.79798  0.68631  1.0000
  C   C1925     1.0  0.43502  0.77127  0.58488  1.0000
  C   C1926     1.0  0.38665  0.77919  0.35880  1.0000
  H   H1550     1.0  0.43801  0.76513  0.58031  1.0000
  H   H1551     1.0  0.46372  0.77514  0.62118  1.0000
  H   H1552     1.0  0.42614  0.79408  0.14131  1.0000
  C   C1927     1.0  0.42664  0.80192  0.13074  1.0000
  C   C1928     1.0  0.39673  0.78216  0.34992  1.0000
  C   C1929     1.0  0.35522  0.74688  0.40845  1.0000
  C   C1930     1.0  0.36703  0.77123  0.12181  1.0000
  C   C1931     1.0  0.43086  0.80727  0.08942  1.0000
  C   C1932     1.0  0.43148  0.81737  0.07581  1.0000
  H   H1553     1.0  0.43480  0.82150  0.04377  1.0000
  H   H1554     1.0  0.43617  0.81622  0.18637  1.0000
  H   H1555     1.0  0.37524  0.76142  0.41164  1.0000
  C   C1933     1.0  0.40058  0.78852  0.36782  1.0000
  C   C1934     1.0  0.38420  0.78890  0.40400  1.0000
  C   C1935     1.0  0.38030  0.78233  0.38671  1.0000
  H   H1556     1.0  0.40842  0.79106  0.35960  1.0000
  C   C1936     1.0  0.39432  0.79190  0.39485  1.0000
  C   C1937     1.0  0.38215  0.80066  0.82933  1.0000
  H   H1557     1.0  0.39730  0.79717  0.40735  1.0000
  H   H1558     1.0  0.37950  0.79200  0.42338  1.0000
  C   C1938     1.0  0.40665  0.82652  0.04462  1.0000
  P   P66       1.0  0.34932  0.79263  0.70475  1.0000
  C   C1939     1.0  0.27868  0.74647  0.12130  1.0000
  S   S265      1.0  0.35106  0.82587  0.43725  1.0000
  C   C1940     1.0  0.26525  0.78075  0.39873  1.0000
  C   C1941     1.0  0.48526  0.83194  0.75442  1.0000
  H   H1559     1.0  0.36869  0.74429  0.41749  1.0000
  C   C1942     1.0  0.36540  0.78747  0.35261  1.0000
  C   C1943     1.0  0.42995  0.78614  0.55789  1.0000
  C   C1944     1.0  0.37692  0.79254  0.82373  1.0000
  C   C1945     1.0  0.34444  0.79133  0.66502  1.0000
  C   C1946     1.0  0.43231  0.77225  0.62357  1.0000
  H   H1560     1.0  0.36187  0.67879  0.37799  1.0000
  H   H1561     1.0  0.45650  0.80583  0.71645  1.0000
  S   S266      1.0  0.29732  0.72184  0.92455  1.0000
  H   H1562     1.0  0.36874  0.77145  0.47632  1.0000
  P   P67       1.0  0.42877  0.79518  0.51516  1.0000
  H   H1563     1.0  0.41579  0.82334  0.83069  1.0000
  H   H1564     1.0  0.35170  0.78892  0.42065  1.0000
  H   H1565     1.0  0.28296  0.75752  0.35112  1.0000
  C   C1947     1.0  0.35801  0.77605  0.51630  1.0000
  C   C1948     1.0  0.25826  0.74788  0.10110  1.0000
  H   H1566     1.0  0.36523  0.76916  0.99605  1.0000
  H   H1567     1.0  0.38794  0.79697  0.21690  1.0000
  H   H1568     1.0  0.31782  0.79537  0.42998  1.0000
  H   H1569     1.0  0.36043  0.78794  0.26510  1.0000
  C   C1949     1.0  0.44103  0.80263  0.48763  1.0000
  C   C1950     1.0  0.42853  0.78021  0.62945  1.0000
  C   C1951     1.0  0.42743  0.78718  0.59670  1.0000
  C   C1952     1.0  0.47330  0.82309  0.59798  1.0000
  H   H1570     1.0  0.44418  0.79491  0.44360  1.0000
  H   H1571     1.0  0.28062  0.68595  0.21397  1.0000
  C   C1953     1.0  0.28645  0.71726  0.91411  1.0000
  C   C1954     1.0  0.37425  0.82205  0.89851  1.0000
  C   C1955     1.0  0.35654  0.78985  0.10053  1.0000
  H   H1572     1.0  0.33510  0.78621  0.42831  1.0000
  C   C1956     1.0  0.33948  0.80002  0.83744  1.0000
  H   H1573     1.0  0.28306  0.72035  0.21932  1.0000
  C   C1957     1.0  0.36703  0.79966  0.71384  1.0000
  C   C1958     1.0  0.28324  0.70704  0.92252  1.0000
  C   C1959     1.0  0.27856  0.67689  0.97667  1.0000
  C   C1960     1.0  0.34750  0.81015  0.72129  1.0000
  H   H1574     1.0  0.35979  0.77252  0.54308  1.0000
  C   C1961     1.0  0.45201  0.79839  0.72922  1.0000
  C   C1962     1.0  0.35063  0.78116  0.51956  1.0000
  C   C1963     1.0  0.35219  0.79552  0.12254  1.0000
  C   C1964     1.0  0.45224  0.79386  0.62335  1.0000
  S   S267      1.0  0.37673  0.67500  0.93109  1.0000
  H   H1575     1.0  0.27200  0.75804  0.00097  1.0000
  H   H1576     1.0  0.35670  0.80154  0.12672  1.0000
  H   H1577     1.0  0.31934  0.80233  0.35763  1.0000
  H   H1578     1.0  0.36286  0.79816  0.74552  1.0000
  C   C1965     1.0  0.44030  0.77920  0.76492  1.0000
  H   H1579     1.0  0.28640  0.77546  0.29513  1.0000
  C   C1966     1.0  0.32721  0.80392  0.75701  1.0000
  H   H1580     1.0  0.42706  0.82979  0.70172  1.0000
  H   H1581     1.0  0.29932  0.75213  0.03074  1.0000
  H   H1582     1.0  0.31935  0.80150  0.77089  1.0000
  C   C1967     1.0  0.28103  0.72339  0.89752  1.0000
  C   C1968     1.0  0.38261  0.80536  0.65992  1.0000
  C   C1969     1.0  0.28356  0.77649  0.37444  1.0000
  H   H1583     1.0  0.38071  0.80480  0.72197  1.0000
  C   C1970     1.0  0.41658  0.81878  0.00301  1.0000
  H   H1584     1.0  0.28638  0.71291  0.16902  1.0000
  H   H1585     1.0  0.46781  0.81802  0.43153  1.0000
  H   H1586     1.0  0.42914  0.81635  0.49127  1.0000
  H   H1587     1.0  0.33992  0.80768  0.82278  1.0000
  C   C1971     1.0  0.38594  0.83331  0.23690  1.0000
  C   C1972     1.0  0.28262  0.71076  0.33061  1.0000
  C   C1973     1.0  0.44540  0.78332  0.78655  1.0000
  C   C1974     1.0  0.45962  0.78340  0.57162  1.0000
  H   H1588     1.0  0.34591  0.82389  0.73085  1.0000
  H   H1589     1.0  0.28955  0.75980  0.10929  1.0000
  C   C1975     1.0  0.45676  0.78629  0.63637  1.0000
  C   C1976     1.0  0.29945  0.67944  0.15599  1.0000
  H   H1590     1.0  0.44733  0.81962  0.67142  1.0000
  P   P68       1.0  0.44818  0.80113  0.65536  1.0000
  H   H1591     1.0  0.32231  0.78376  0.22909  1.0000
  C   C1977     1.0  0.46140  0.82948  0.63794  1.0000
  H   H1592     1.0  0.29441  0.73312  0.39840  1.0000
  C   C1978     1.0  0.31432  0.79527  0.37584  1.0000
  H   H1593     1.0  0.32795  0.81831  0.76341  1.0000
  C   C1979     1.0  0.41321  0.82714  0.00708  1.0000
  H   H1594     1.0  0.31552  0.77982  0.30325  1.0000
  H   H1595     1.0  0.39043  0.80832  0.64971  1.0000
  C   C1980     1.0  0.34218  0.81650  0.73481  1.0000
  C   C1981     1.0  0.29432  0.74081  0.39290  1.0000
  H   H1596     1.0  0.29676  0.70468  0.05947  1.0000
  C   C1982     1.0  0.46655  0.81402  0.61157  1.0000
  C   C1983     1.0  0.45710  0.81269  0.63802  1.0000
  C   C1984     1.0  0.30164  0.77696  0.42288  1.0000
  H   H1597     1.0  0.31122  0.78357  0.18763  1.0000
  H   H1598     1.0  0.36647  0.81950  0.91456  1.0000
  H   H1599     1.0  0.30635  0.77922  0.47220  1.0000
  C   C1985     1.0  0.41911  0.80143  0.67901  1.0000
  S   S268      1.0  0.44185  0.83447  0.49771  1.0000
  H   H1600     1.0  0.27124  0.69840  0.33725  1.0000
  H   H1601     1.0  0.43714  0.78131  0.70899  1.0000
  H   H1602     1.0  0.41236  0.79789  0.70406  1.0000
  C   C1986     1.0  0.26952  0.70916  0.89691  1.0000
  C   C1987     1.0  0.31449  0.78226  0.24341  1.0000
  C   C1988     1.0  0.45457  0.82049  0.65107  1.0000
  C   C1989     1.0  0.41910  0.80823  0.64332  1.0000
  H   H1603     1.0  0.30938  0.70842  0.99419  1.0000
  C   C1990     1.0  0.42788  0.81302  0.61188  1.0000
  C   C1991     1.0  0.27586  0.76960  0.40696  1.0000
  C   C1992     1.0  0.27622  0.70525  0.31672  1.0000
  H   H1604     1.0  0.38116  0.81231  0.49172  1.0000
  Fe  Fe134     1.0  0.35378  0.81506  0.40206  1.0000
  C   C1993     1.0  0.30825  0.78213  0.22011  1.0000
  C   C1994     1.0  0.31061  0.78003  0.28552  1.0000
  C   C1995     1.0  0.28786  0.75995  0.03733  1.0000
  H   H1605     1.0  0.30960  0.79331  0.32667  1.0000
  C   C1996     1.0  0.29815  0.77978  0.23889  1.0000
  S   S269      1.0  0.36112  0.81629  0.53686  1.0000
  H   H1606     1.0  0.42761  0.79411  0.71135  1.0000
  C   C1997     1.0  0.30047  0.77779  0.30462  1.0000
  C   C1998     1.0  0.43673  0.80389  0.65120  1.0000
  C   C1999     1.0  0.30115  0.75699  0.39357  1.0000
  H   H1607     1.0  0.27779  0.72805  0.98188  1.0000
  C   C2000     1.0  0.45657  0.80618  0.43440  1.0000
  C   C2001     1.0  0.28857  0.72511  0.05535  1.0000
  H   H1608     1.0  0.30632  0.74411  0.41489  1.0000
  H   H1609     1.0  0.26866  0.72424  0.87562  1.0000
  C   C2002     1.0  0.30101  0.74699  0.40220  1.0000
  H   H1610     1.0  0.26078  0.76637  0.44388  1.0000
  C   C2003     1.0  0.29425  0.77758  0.28101  1.0000
  H   H1611     1.0  0.44865  0.80228  0.57234  1.0000
  S   S270      1.0  0.40822  0.67681  0.13171  1.0000
  H   H1612     1.0  0.38211  0.80524  0.60077  1.0000
  H   H1613     1.0  0.44343  0.81507  0.59187  1.0000
  S   S271      1.0  0.43586  0.82893  0.40718  1.0000
  H   H1614     1.0  0.31588  0.72692  0.16685  1.0000
  H   H1615     1.0  0.40851  0.81684  0.27047  1.0000
  C   C2004     1.0  0.39418  0.82879  0.85433  1.0000
  H   H1616     1.0  0.31812  0.70016  0.12098  1.0000
  C   C2005     1.0  0.46041  0.81361  0.44769  1.0000
  C   C2006     1.0  0.29460  0.76090  0.37550  1.0000
  C   C2007     1.0  0.28245  0.70902  0.15416  1.0000
  S   S272      1.0  0.37239  0.82476  0.72251  1.0000
  C   C2008     1.0  0.41669  0.82956  0.35017  1.0000
  H   H1617     1.0  0.48054  0.82415  0.57716  1.0000
  H   H1618     1.0  0.27052  0.71596  0.16596  1.0000
  H   H1619     1.0  0.25599  0.76018  0.99532  1.0000
  C   C2009     1.0  0.38826  0.81727  0.48304  1.0000
  C   C2010     1.0  0.28050  0.69674  0.12113  1.0000
  C   C2011     1.0  0.30892  0.79003  0.35824  1.0000
  C   C2012     1.0  0.36120  0.82411  0.56744  1.0000
  C   C2013     1.0  0.27295  0.78771  0.36683  1.0000
  C   C2014     1.0  0.28624  0.73277  0.06971  1.0000
  S   S273      1.0  0.39929  0.68184  0.93102  1.0000
  C   C2015     1.0  0.30278  0.78066  0.38129  1.0000
  C   C2016     1.0  0.26672  0.77172  0.41886  1.0000
  C   C2017     1.0  0.27763  0.73696  0.02118  1.0000
  Fe  Fe135     1.0  0.36486  0.82163  0.78913  1.0000
  C   C2018     1.0  0.30705  0.78223  0.44039  1.0000
  C   C2019     1.0  0.38877  0.83537  0.86510  1.0000
  C   C2020     1.0  0.43145  0.68077  0.00145  1.0000
  C   C2021     1.0  0.38897  0.82598  0.49267  1.0000
  C   C2022     1.0  0.28788  0.75463  0.36628  1.0000
  H   H1620     1.0  0.45499  0.79305  0.52739  1.0000
  C   C2023     1.0  0.35462  0.83013  0.57163  1.0000
  H   H1621     1.0  0.42791  0.81838  0.58430  1.0000
  H   H1622     1.0  0.44333  0.83076  0.86914  1.0000
  S   S274      1.0  0.39061  0.67611  0.30596  1.0000
  H   H1623     1.0  0.27184  0.79475  0.35153  1.0000
  C   C2024     1.0  0.26867  0.67631  0.99411  1.0000
  C   C2025     1.0  0.30788  0.71456  0.15710  1.0000
  H   H1624     1.0  0.37123  0.82742  0.63997  1.0000
  H   H1625     1.0  0.36438  0.67459  0.87902  1.0000
  H   H1626     1.0  0.41090  0.82968  0.63395  1.0000
  C   C2026     1.0  0.25661  0.75674  0.02489  1.0000
  C   C2027     1.0  0.40645  0.83043  0.45858  1.0000
  C   C2028     1.0  0.26818  0.70593  0.13327  1.0000
  C   C2029     1.0  0.43668  0.83337  0.87348  1.0000
  H   H1627     1.0  0.24932  0.68977  0.65225  1.0000
  S   S275      1.0  0.35744  0.83413  0.78007  1.0000
  C   C2030     1.0  0.36654  0.82818  0.62134  1.0000
  H   H1628     1.0  0.43494  0.83252  0.93534  1.0000
  H   H1629     1.0  0.38801  0.83288  0.58144  1.0000
  C   C2031     1.0  0.39878  0.83416  0.35078  1.0000
  H   H1630     1.0  0.38974  0.83086  0.29175  1.0000
  C   C2032     1.0  0.42522  0.83146  0.23084  1.0000
  H   H1631     1.0  0.26749  0.69489  0.10395  1.0000
  C   C2033     1.0  0.40862  0.83244  0.60770  1.0000
  H   H1632     1.0  0.41640  0.67105  0.95684  1.0000
  C   C2034     1.0  0.44044  0.83022  0.24411  1.0000
  H   H1633     1.0  0.30607  0.68244  0.13024  1.0000
  C   C2035     1.0  0.41575  0.83394  0.15441  1.0000
  H   H1634     1.0  0.34985  0.83075  0.55327  1.0000
  H   H1635     1.0  0.39858  0.82947  0.95869  1.0000
  C   C2036     1.0  0.35400  0.83510  0.60064  1.0000
  H   H1636     1.0  0.43684  0.83529  0.81213  1.0000
  S   S276      1.0  0.45969  0.83547  0.38575  1.0000
  H   H1637     1.0  0.36270  0.67089  0.01189  1.0000
  C   C2037     1.0  0.39016  0.66938  0.12713  1.0000
  C   C2038     1.0  0.29648  0.66924  0.17522  1.0000
  C   C2039     1.0  0.28223  0.67120  0.22215  1.0000
  C   C2040     1.0  0.24919  0.74910  0.09763  1.0000
  C   C2041     1.0  0.37879  0.83203  0.88683  1.0000
  S   S277      1.0  0.37780  0.83067  0.79645  1.0000
  H   H1638     1.0  0.43760  0.83376  0.58121  1.0000
  Fe  Fe136     1.0  0.38434  0.83511  0.72914  1.0000
  C   C2042     1.0  0.38751  0.66912  0.06340  1.0000
  S   S278      1.0  0.41367  0.66917  0.32107  1.0000
  H   H1639     1.0  0.38382  0.83536  0.95394  1.0000
  S   S279      1.0  0.45989  0.95851  0.47641  1.0000
  S   S280      1.0  0.45297  0.95321  0.38315  1.0000
  Fe  Fe137     1.0  0.47534  0.96712  0.44515  1.0000
  S   S281      1.0  0.48717  0.96044  0.46132  1.0000
  C   C2043     1.0  0.46757  0.95050  0.56508  1.0000
  H   H1640     1.0  0.46595  0.90091  0.09103  1.0000
  C   C2044     1.0  0.45076  0.89935  0.12093  1.0000
  C   C2045     1.0  0.38982  0.84008  0.95722  1.0000
  H   H1641     1.0  0.39908  0.84253  0.11269  1.0000
  H   H1642     1.0  0.48314  0.86660  0.34576  1.0000
  C   C2046     1.0  0.41581  0.83923  0.34473  1.0000
  H   H1643     1.0  0.46571  0.86355  0.09842  1.0000
  H   H1644     1.0  0.37753  0.86488  0.59537  1.0000
  C   C2047     1.0  0.48256  0.96688  0.13402  1.0000
  C   C2048     1.0  0.41956  0.84015  0.88374  1.0000
  S   S282      1.0  0.47837  0.93597  0.23310  1.0000
  Fe  Fe138     1.0  0.49307  0.93247  0.21834  1.0000
  H   H1645     1.0  0.42172  0.85860  0.57855  1.0000
  Fe  Fe139     1.0  0.41956  0.92016  0.28821  1.0000
  S   S283      1.0  0.42516  0.92464  0.21951  1.0000
  S   S284      1.0  0.42038  0.93049  0.32692  1.0000
  Fe  Fe140     1.0  0.41206  0.89837  0.29615  1.0000
  S   S285      1.0  0.41771  0.90104  0.22897  1.0000
  S   S286      1.0  0.40594  0.88286  0.34075  1.0000
  Fe  Fe141     1.0  0.43081  0.91101  0.22993  1.0000
  S   S287      1.0  0.44567  0.91114  0.19142  1.0000
  Fe  Fe142     1.0  0.41153  0.91429  0.22315  1.0000
  S   S288      1.0  0.40273  0.91756  0.17971  1.0000
  S   S289      1.0  0.42601  0.90700  0.29778  1.0000
  S   S290      1.0  0.40508  0.91117  0.29108  1.0000
  C   C2049     1.0  0.46516  0.98447  0.56189  1.0000
  Fe  Fe143     1.0  0.45625  0.84071  0.74297  1.0000
  H   H1646     1.0  0.45111  0.90708  0.10778  1.0000
  C   C2050     1.0  0.48808  0.88513  0.13155  1.0000
  C   C2051     1.0  0.49689  0.93095  0.45663  1.0000
  H   H1647     1.0  0.45790  0.92586  0.65421  1.0000
  C   C2052     1.0  0.49382  0.99333  0.48580  1.0000
  S   S291      1.0  0.36669  0.85272  0.36485  1.0000
  C   C2053     1.0  0.42270  0.84290  0.14228  1.0000
  C   C2054     1.0  0.48839  0.86686  0.60236  1.0000
  C   C2055     1.0  0.39020  0.83624  0.26344  1.0000
  C   C2056     1.0  0.43805  0.86260  0.98402  1.0000
  Fe  Fe144     1.0  0.41539  0.91231  0.89827  1.0000
  S   S292      1.0  0.41835  0.90860  0.95777  1.0000
  S   S293      1.0  0.42100  0.92718  0.84783  1.0000
  Fe  Fe145     1.0  0.40450  0.89070  0.91337  1.0000
  S   S294      1.0  0.40688  0.88549  0.97441  1.0000
  S   S295      1.0  0.40040  0.88062  0.87696  1.0000
  Fe  Fe146     1.0  0.40311  0.89934  0.98431  1.0000
  S   S296      1.0  0.39376  0.89986  0.04491  1.0000
  Fe  Fe147     1.0  0.42203  0.89521  0.94403  1.0000
  S   S297      1.0  0.43527  0.89004  0.95357  1.0000
  S   S298      1.0  0.39955  0.90399  0.92538  1.0000
  S   S299      1.0  0.42009  0.89950  0.88284  1.0000
  C   C2057     1.0  0.43816  0.95764  0.98184  1.0000
  C   C2058     1.0  0.47937  0.88824  0.13370  1.0000
  C   C2059     1.0  0.49379  0.95571  0.71346  1.0000
  Fe  Fe148     1.0  0.37098  0.84348  0.78359  1.0000
  S   S300      1.0  0.37821  0.84834  0.71550  1.0000
  S   S301      1.0  0.37034  0.85335  0.82465  1.0000
  H   H1648     1.0  0.46325  0.84117  0.20823  1.0000
  C   C2060     1.0  0.48182  0.93057  0.37444  1.0000
  H   H1649     1.0  0.44102  0.94801  0.60236  1.0000
  P   P69       1.0  0.39440  0.88148  0.54863  1.0000
  C   C2061     1.0  0.45048  0.00182  0.58237  1.0000
  C   C2062     1.0  0.47390  0.88379  0.06504  1.0000
  S   S302      1.0  0.45880  0.86724  0.67574  1.0000
  S   S303      1.0  0.43125  0.86018  0.74731  1.0000
  S   S304      1.0  0.47860  0.87566  0.71796  1.0000
  C   C2063     1.0  0.46966  0.98887  0.58499  1.0000
  C   C2064     1.0  0.39999  0.86506  0.58977  1.0000
  C   C2065     1.0  0.47765  0.97313  0.15099  1.0000
  S   S305      1.0  0.48954  0.90846  0.90892  1.0000
  H   H1650     1.0  0.46940  0.87141  0.20190  1.0000
  Fe  Fe149     1.0  0.48720  0.92269  0.87582  1.0000
  S   S306      1.0  0.47230  0.92584  0.88900  1.0000
  C   C2066     1.0  0.46409  0.85164  0.15148  1.0000
  C   C2067     1.0  0.49022  0.88876  0.80559  1.0000
  H   H1651     1.0  0.38754  0.90445  0.66665  1.0000
  H   H1652     1.0  0.48430  0.94946  0.87302  1.0000
  C   C2068     1.0  0.48271  0.88045  0.75323  1.0000
  C   C2069     1.0  0.48308  0.87440  0.78994  1.0000
  C   C2070     1.0  0.48689  0.87852  0.81561  1.0000
  H   H1653     1.0  0.47588  0.83792  0.60039  1.0000
  C   C2071     1.0  0.48622  0.96204  0.89329  1.0000
  C   C2072     1.0  0.48620  0.89070  0.74287  1.0000
  H   H1654     1.0  0.48065  0.86652  0.79828  1.0000
  C   C2073     1.0  0.49738  0.96672  0.58698  1.0000
  C   C2074     1.0  0.48609  0.89172  0.26529  1.0000
  H   H1655     1.0  0.48616  0.89550  0.71427  1.0000
  C   C2075     1.0  0.40837  0.84383  0.70839  1.0000
  C   C2076     1.0  0.41820  0.84666  0.68414  1.0000
  C   C2077     1.0  0.42522  0.85186  0.69559  1.0000
  C   C2078     1.0  0.42242  0.85434  0.73111  1.0000
  C   C2079     1.0  0.41252  0.85200  0.75422  1.0000
  C   C2080     1.0  0.40549  0.84670  0.74295  1.0000
  H   H1656     1.0  0.40435  0.85256  0.62152  1.0000
  H   H1657     1.0  0.43282  0.85391  0.67702  1.0000
  H   H1658     1.0  0.41031  0.85403  0.78141  1.0000
  H   H1659     1.0  0.39789  0.84463  0.76151  1.0000
  C   C2081     1.0  0.39195  0.87298  0.86295  1.0000
  C   C2082     1.0  0.39553  0.86846  0.83377  1.0000
  C   C2083     1.0  0.38912  0.86246  0.82161  1.0000
  C   C2084     1.0  0.37896  0.86082  0.83857  1.0000
  C   C2085     1.0  0.37541  0.86536  0.86762  1.0000
  C   C2086     1.0  0.38181  0.87136  0.87972  1.0000
  H   H1660     1.0  0.40333  0.86962  0.82035  1.0000
  H   H1661     1.0  0.39203  0.85913  0.79899  1.0000
  H   H1662     1.0  0.36761  0.86423  0.88091  1.0000
  H   H1663     1.0  0.37887  0.87477  0.90201  1.0000
  C   C2087     1.0  0.44562  0.89992  0.93648  1.0000
  C   C2088     1.0  0.44467  0.90962  0.92676  1.0000
  C   C2089     1.0  0.45286  0.91745  0.91407  1.0000
  C   C2090     1.0  0.46217  0.91570  0.90860  1.0000
  C   C2091     1.0  0.46319  0.90599  0.91776  1.0000
  C   C2092     1.0  0.45490  0.89810  0.93255  1.0000
  H   H1664     1.0  0.43767  0.91117  0.92861  1.0000
  H   H1665     1.0  0.45201  0.92493  0.90687  1.0000
  H   H1666     1.0  0.47032  0.90453  0.91324  1.0000
  H   H1667     1.0  0.45572  0.89063  0.93998  1.0000
  C   C2093     1.0  0.47780  0.89586  0.14994  1.0000
  C   C2094     1.0  0.45185  0.97500  0.62292  1.0000
  C   C2095     1.0  0.48372  0.88772  0.04066  1.0000
  C   C2096     1.0  0.45408  0.00197  0.54215  1.0000
  C   C2097     1.0  0.42102  0.85165  0.12051  1.0000
  C   C2098     1.0  0.46783  0.86887  0.14698  1.0000
  H   H1668     1.0  0.48650  0.85913  0.74824  1.0000
  C   C2099     1.0  0.49255  0.94441  0.02528  1.0000
  C   C2100     1.0  0.49209  0.89109  0.28982  1.0000
  H   H1669     1.0  0.36479  0.87150  0.77809  1.0000
  C   C2101     1.0  0.49366  0.89744  0.15950  1.0000
  H   H1670     1.0  0.48775  0.86185  0.55194  1.0000
  C   C2102     1.0  0.41286  0.87740  0.53344  1.0000
  C   C2103     1.0  0.46792  0.86599  0.18728  1.0000
  C   C2104     1.0  0.40098  0.91239  0.14176  1.0000
  C   C2105     1.0  0.39266  0.91333  0.13033  1.0000
  C   C2106     1.0  0.39074  0.90955  0.10055  1.0000
  C   C2107     1.0  0.39725  0.90501  0.08026  1.0000
  C   C2108     1.0  0.40576  0.90417  0.09087  1.0000
  C   C2109     1.0  0.40751  0.90768  0.12216  1.0000
  H   H1671     1.0  0.38752  0.91688  0.14522  1.0000
  H   H1672     1.0  0.38411  0.91017  0.09318  1.0000
  H   H1673     1.0  0.41086  0.90065  0.07572  1.0000
  H   H1674     1.0  0.41389  0.90678  0.13102  1.0000
  C   C2110     1.0  0.39523  0.87483  0.34309  1.0000
  C   C2111     1.0  0.38696  0.87813  0.33879  1.0000
  C   C2112     1.0  0.37820  0.87129  0.34613  1.0000
  C   C2113     1.0  0.37773  0.86114  0.35655  1.0000
  C   C2114     1.0  0.38608  0.85791  0.35978  1.0000
  C   C2115     1.0  0.39471  0.86470  0.35346  1.0000
  H   H1675     1.0  0.38720  0.88590  0.33120  1.0000
  H   H1676     1.0  0.37177  0.87388  0.34370  1.0000
  H   H1677     1.0  0.38590  0.85017  0.36722  1.0000
  H   H1678     1.0  0.40104  0.86209  0.35639  1.0000
  Fe  Fe150     1.0  0.36565  0.83765  0.71300  1.0000
  Fe  Fe151     1.0  0.48452  0.98467  0.76858  1.0000
  C   C2116     1.0  0.40526  0.91035  0.47594  1.0000
  C   C2117     1.0  0.39481  0.84612  0.25411  1.0000
  H   H1679     1.0  0.48783  0.97303  0.92227  1.0000
  H   H1680     1.0  0.38290  0.85222  0.95458  1.0000
  C   C2118     1.0  0.45651  0.97919  0.64626  1.0000
  C   C2119     1.0  0.45941  0.95014  0.04351  1.0000
  Fe  Fe152     1.0  0.47028  0.98932  0.72141  1.0000
  C   C2120     1.0  0.47945  0.94522  0.93827  1.0000
  H   H1681     1.0  0.44273  0.86848  0.98837  1.0000
  C   C2121     1.0  0.44545  0.99217  0.70580  1.0000
  C   C2122     1.0  0.48376  0.87360  0.32386  1.0000
  C   C2123     1.0  0.46218  0.94119  0.05343  1.0000
  C   C2124     1.0  0.39817  0.83675  0.96015  1.0000
  H   H1682     1.0  0.48997  0.87017  0.65503  1.0000
  C   C2125     1.0  0.47833  0.94841  0.97236  1.0000
  C   C2126     1.0  0.46939  0.92836  0.22358  1.0000
  C   C2127     1.0  0.47189  0.92343  0.19534  1.0000
  C   C2128     1.0  0.46457  0.91805  0.18577  1.0000
  C   C2129     1.0  0.45474  0.91748  0.20488  1.0000
  C   C2130     1.0  0.45222  0.92217  0.23395  1.0000
  C   C2131     1.0  0.45955  0.92760  0.24328  1.0000
  H   H1683     1.0  0.47945  0.92401  0.17981  1.0000
  H   H1684     1.0  0.46654  0.91444  0.16324  1.0000
  H   H1685     1.0  0.44464  0.92179  0.24874  1.0000
  H   H1686     1.0  0.45760  0.93130  0.26551  1.0000
  Fe  Fe153     1.0  0.45762  0.96411  0.41544  1.0000
  C   C2132     1.0  0.44465  0.95172  0.84975  1.0000
  C   C2133     1.0  0.44007  0.95348  0.81998  1.0000
  C   C2134     1.0  0.43299  0.94584  0.81916  1.0000
  C   C2135     1.0  0.43040  0.93641  0.84816  1.0000
  C   C2136     1.0  0.43514  0.93461  0.87735  1.0000
  C   C2137     1.0  0.44218  0.94224  0.87820  1.0000
  H   H1687     1.0  0.44178  0.96077  0.79834  1.0000
  H   H1688     1.0  0.42932  0.94733  0.79668  1.0000
  H   H1689     1.0  0.43323  0.92742  0.89987  1.0000
  H   H1690     1.0  0.44566  0.94080  0.90138  1.0000
  H   H1691     1.0  0.39185  0.83596  0.35145  1.0000
  H   H1692     1.0  0.47727  0.97115  0.56202  1.0000
  C   C2138     1.0  0.44380  0.94700  0.36758  1.0000
  C   C2139     1.0  0.43415  0.94798  0.37799  1.0000
  C   C2140     1.0  0.42715  0.94287  0.36537  1.0000
  C   C2141     1.0  0.42962  0.93666  0.34218  1.0000
  C   C2142     1.0  0.43925  0.93559  0.33210  1.0000
  C   C2143     1.0  0.44627  0.94077  0.34442  1.0000
  H   H1693     1.0  0.43207  0.95274  0.39558  1.0000
  H   H1694     1.0  0.41976  0.94381  0.37340  1.0000
  H   H1695     1.0  0.44132  0.93086  0.31440  1.0000
  H   H1696     1.0  0.45371  0.94001  0.33548  1.0000
  C   C2144     1.0  0.45617  0.97757  0.58057  1.0000
  C   C2145     1.0  0.44678  0.96491  0.95938  1.0000
  C   C2146     1.0  0.40568  0.84262  0.12095  1.0000
  H   H1697     1.0  0.44043  0.92248  0.65142  1.0000
  C   C2147     1.0  0.45991  0.94962  0.59966  1.0000
  C   C2148     1.0  0.40390  0.91442  0.80504  1.0000
  C   C2149     1.0  0.40489  0.92224  0.58701  1.0000
  H   H1698     1.0  0.42199  0.84187  0.82033  1.0000
  H   H1699     1.0  0.39562  0.89204  0.79833  1.0000
  H   H1700     1.0  0.42715  0.87445  0.52182  1.0000
  C   C2150     1.0  0.38890  0.88127  0.72455  1.0000
  C   C2151     1.0  0.40525  0.85225  0.96619  1.0000
  H   H1701     1.0  0.37918  0.86717  0.73916  1.0000
  C   C2152     1.0  0.39105  0.85012  0.19109  1.0000
  C   C2153     1.0  0.48974  0.89485  0.76914  1.0000
  C   C2154     1.0  0.48160  0.95847  0.96631  1.0000
  C   C2155     1.0  0.47434  0.98019  0.12633  1.0000
  C   C2156     1.0  0.42460  0.83953  0.84599  1.0000
  H   H1702     1.0  0.46200  0.96790  0.92466  1.0000
  H   H1703     1.0  0.40986  0.91990  0.70292  1.0000
  H   H1704     1.0  0.37565  0.88943  0.66776  1.0000
  H   H1705     1.0  0.39511  0.87906  0.70852  1.0000
  C   C2157     1.0  0.43677  0.86383  0.94618  1.0000
  C   C2158     1.0  0.48257  0.94157  0.04814  1.0000
  C   C2159     1.0  0.37257  0.88626  0.76792  1.0000
  S   S307      1.0  0.45896  0.98965  0.77776  1.0000
  C   C2160     1.0  0.42302  0.95657  0.65340  1.0000
  C   C2161     1.0  0.42688  0.98482  0.70360  1.0000
  C   C2162     1.0  0.42876  0.91498  0.76831  1.0000
  H   H1706     1.0  0.41110  0.85712  0.96957  1.0000
  C   C2163     1.0  0.46976  0.88241  0.00538  1.0000
  C   C2164     1.0  0.43498  0.90894  0.06630  1.0000
  C   C2165     1.0  0.43403  0.91172  0.02762  1.0000
  C   C2166     1.0  0.43165  0.92063  0.01269  1.0000
  C   C2167     1.0  0.42989  0.92669  0.03698  1.0000
  C   C2168     1.0  0.43102  0.92393  0.07558  1.0000
  P   P70       1.0  0.42697  0.93827  0.01732  1.0000
  C   C2169     1.0  0.41987  0.93696  0.98415  1.0000
  C   C2170     1.0  0.41970  0.94129  0.05955  1.0000
  C   C2171     1.0  0.40958  0.93725  0.07640  1.0000
  C   C2172     1.0  0.40410  0.93927  0.11014  1.0000
  C   C2173     1.0  0.40866  0.94523  0.12773  1.0000
  C   C2174     1.0  0.41871  0.94929  0.11126  1.0000
  C   C2175     1.0  0.42421  0.94732  0.07737  1.0000
  C   C2176     1.0  0.41248  0.92841  0.99523  1.0000
  C   C2177     1.0  0.40696  0.92731  0.96982  1.0000
  C   C2178     1.0  0.40890  0.93466  0.93275  1.0000
  C   C2179     1.0  0.41626  0.94319  0.92139  1.0000
  C   C2180     1.0  0.42174  0.94435  0.94691  1.0000
  C   C2181     1.0  0.43818  0.94765  0.98946  1.0000
  C   C2182     1.0  0.44692  0.94507  0.97362  1.0000
  H   H1707     1.0  0.44483  0.96979  0.63773  1.0000
  P   P71       1.0  0.44623  0.93955  0.67636  1.0000
  H   H1708     1.0  0.44908  0.95847  0.06169  1.0000
  S   S308      1.0  0.47409  0.98374  0.82805  1.0000
  H   H1709     1.0  0.43674  0.90200  0.07775  1.0000
  H   H1710     1.0  0.43510  0.90694  0.00920  1.0000
  H   H1711     1.0  0.43117  0.92279  0.98224  1.0000
  H   H1712     1.0  0.40587  0.93231  0.06453  1.0000
  H   H1713     1.0  0.39635  0.93585  0.12375  1.0000
  H   H1714     1.0  0.40441  0.94651  0.15466  1.0000
  H   H1715     1.0  0.42225  0.95383  0.12523  1.0000
  H   H1716     1.0  0.43198  0.95039  0.06549  1.0000
  H   H1717     1.0  0.41100  0.92253  0.02343  1.0000
  H   H1718     1.0  0.40128  0.92066  0.97871  1.0000
  H   H1719     1.0  0.40484  0.93367  0.91246  1.0000
  H   H1720     1.0  0.41792  0.94879  0.89221  1.0000
  H   H1721     1.0  0.42755  0.95092  0.93685  1.0000
  H   H1722     1.0  0.48049  0.94074  0.45003  1.0000
  C   C2183     1.0  0.40699  0.91541  0.73450  1.0000
  C   C2184     1.0  0.47161  0.94250  0.56236  1.0000
  H   H1723     1.0  0.45316  0.97706  0.67873  1.0000
  C   C2185     1.0  0.45543  0.96227  0.94379  1.0000
  H   H1724     1.0  0.36873  0.86810  0.28136  1.0000
  C   C2186     1.0  0.46440  0.84887  0.19124  1.0000
  C   C2187     1.0  0.41959  0.87186  0.54093  1.0000
  H   H1725     1.0  0.46741  0.97434  0.28309  1.0000
  C   C2188     1.0  0.45547  0.95236  0.95067  1.0000
  H   H1726     1.0  0.49161  0.91468  0.40629  1.0000
  C   C2189     1.0  0.43068  0.94794  0.69920  1.0000
  H   H1727     1.0  0.47104  0.89817  0.15404  1.0000
  H   H1728     1.0  0.47736  0.93751  0.94150  1.0000
  C   C2190     1.0  0.41064  0.86648  0.23036  1.0000
  C   C2191     1.0  0.43629  0.94941  0.62786  1.0000
  H   H1729     1.0  0.42953  0.87620  0.68564  1.0000
  H   H1730     1.0  0.46364  0.95612  0.01617  1.0000
  C   C2192     1.0  0.42692  0.84646  0.01069  1.0000
  H   H1731     1.0  0.43573  0.92953  0.76288  1.0000
  H   H1732     1.0  0.48456  0.96087  0.15289  1.0000
  H   H1733     1.0  0.47754  0.94326  0.53538  1.0000
  C   C2193     1.0  0.41672  0.85986  0.22988  1.0000
  H   H1734     1.0  0.36404  0.86149  0.65869  1.0000
  H   H1735     1.0  0.41099  0.92770  0.75456  1.0000
  H   H1736     1.0  0.48878  0.91049  0.32576  1.0000
  H   H1737     1.0  0.38218  0.90024  0.75490  1.0000
  C   C2194     1.0  0.49234  0.86628  0.63395  1.0000
  H   H1738     1.0  0.42894  0.95746  0.59070  1.0000
  C   C2195     1.0  0.48381  0.96429  0.64732  1.0000
  C   C2196     1.0  0.43154  0.91089  0.70623  1.0000
  C   C2197     1.0  0.38987  0.89061  0.72924  1.0000
  C   C2198     1.0  0.49036  0.94546  0.73086  1.0000
  C   C2199     1.0  0.48461  0.94128  0.77176  1.0000
  C   C2200     1.0  0.48222  0.94728  0.79543  1.0000
  C   C2201     1.0  0.48566  0.95746  0.77843  1.0000
  C   C2202     1.0  0.49132  0.96168  0.73745  1.0000
  S   S309      1.0  0.45356  0.97770  0.42878  1.0000
  C   C2203     1.0  0.40096  0.89429  0.52762  1.0000
  C   C2204     1.0  0.39903  0.89983  0.78804  1.0000
  H   H1739     1.0  0.43020  0.90567  0.69067  1.0000
  S   S310      1.0  0.47308  0.98088  0.45873  1.0000
  H   H1740     1.0  0.47136  0.92751  0.59272  1.0000
  H   H1741     1.0  0.39648  0.86295  0.96305  1.0000
  C   C2205     1.0  0.42396  0.86035  0.24833  1.0000
  H   H1742     1.0  0.42511  0.91306  0.80066  1.0000
  C   C2206     1.0  0.36956  0.86838  0.64664  1.0000
  C   C2207     1.0  0.42366  0.95313  0.69249  1.0000
  H   H1743     1.0  0.48068  0.96259  0.67985  1.0000
  H   H1744     1.0  0.47046  0.96690  0.63683  1.0000
  H   H1745     1.0  0.49217  0.94067  0.71310  1.0000
  H   H1746     1.0  0.48200  0.93338  0.78534  1.0000
  H   H1747     1.0  0.47766  0.94405  0.82693  1.0000
  H   H1748     1.0  0.48395  0.96212  0.79700  1.0000
  H   H1749     1.0  0.49413  0.89186  0.98056  1.0000
  H   H1750     1.0  0.39114  0.85539  0.16334  1.0000
  H   H1751     1.0  0.42487  0.88513  0.62754  1.0000
  H   H1752     1.0  0.48917  0.96730  0.86272  1.0000
  C   C2208     1.0  0.48374  0.95360  0.28850  1.0000
  C   C2209     1.0  0.49370  0.95530  0.26799  1.0000
  H   H1753     1.0  0.48061  0.94878  0.31959  1.0000
  H   H1754     1.0  0.49265  0.95313  0.35838  1.0000
  C   C2210     1.0  0.47802  0.89739  0.36528  1.0000
  C   C2211     1.0  0.48114  0.90683  0.33703  1.0000
  C   C2212     1.0  0.47452  0.91131  0.32177  1.0000
  C   C2213     1.0  0.46467  0.90644  0.33580  1.0000
  C   C2214     1.0  0.46139  0.89711  0.36560  1.0000
  C   C2215     1.0  0.46819  0.89245  0.37912  1.0000
  P   P72       1.0  0.44873  0.89079  0.38241  1.0000
  C   C2216     1.0  0.44122  0.89918  0.39347  1.0000
  C   C2217     1.0  0.44765  0.88687  0.33999  1.0000
  C   C2218     1.0  0.44392  0.89227  0.31150  1.0000
  C   C2219     1.0  0.44361  0.88957  0.27742  1.0000
  C   C2220     1.0  0.44744  0.88173  0.27050  1.0000
  C   C2221     1.0  0.45144  0.87650  0.29797  1.0000
  C   C2222     1.0  0.45172  0.87915  0.33222  1.0000
  C   C2223     1.0  0.43163  0.89765  0.39207  1.0000
  C   C2224     1.0  0.42604  0.90442  0.39828  1.0000
  C   C2225     1.0  0.42995  0.91277  0.40622  1.0000
  C   C2226     1.0  0.43935  0.91420  0.40915  1.0000
  C   C2227     1.0  0.44494  0.90740  0.40323  1.0000
  C   C2228     1.0  0.44610  0.88078  0.42917  1.0000
  C   C2229     1.0  0.44871  0.88267  0.46167  1.0000
  C   C2230     1.0  0.44749  0.87493  0.49684  1.0000
  C   C2231     1.0  0.44346  0.86528  0.50022  1.0000
  C   C2232     1.0  0.44059  0.86336  0.46857  1.0000
  C   C2233     1.0  0.44190  0.87107  0.43317  1.0000
  H   H1755     1.0  0.49543  0.99438  0.04860  1.0000
  H   H1756     1.0  0.42636  0.85853  0.11159  1.0000
  H   H1757     1.0  0.47706  0.91846  0.29841  1.0000
  H   H1758     1.0  0.45965  0.90992  0.32297  1.0000
  H   H1759     1.0  0.46603  0.88495  0.39953  1.0000
  H   H1760     1.0  0.44155  0.89878  0.31465  1.0000
  H   H1761     1.0  0.44062  0.89370  0.25582  1.0000
  H   H1762     1.0  0.44744  0.87981  0.24352  1.0000
  H   H1763     1.0  0.45452  0.87050  0.29230  1.0000
  H   H1764     1.0  0.45533  0.87531  0.35197  1.0000
  H   H1765     1.0  0.42856  0.89146  0.38454  1.0000
  H   H1766     1.0  0.41880  0.90341  0.39532  1.0000
  H   H1767     1.0  0.42578  0.91824  0.40907  1.0000
  H   H1768     1.0  0.44239  0.92076  0.41484  1.0000
  H   H1769     1.0  0.45224  0.90872  0.40530  1.0000
  H   H1770     1.0  0.45201  0.89009  0.45915  1.0000
  H   H1771     1.0  0.44986  0.87636  0.52121  1.0000
  H   H1772     1.0  0.44270  0.85927  0.52713  1.0000
  H   H1773     1.0  0.43760  0.85584  0.47100  1.0000
  H   H1774     1.0  0.43971  0.86937  0.40895  1.0000
  H   H1775     1.0  0.49627  0.94506  0.46498  1.0000
  H   H1776     1.0  0.44653  0.84212  0.61707  1.0000
  C   C2234     1.0  0.46582  0.86160  0.12933  1.0000
  H   H1777     1.0  0.41972  0.98195  0.70251  1.0000
  C   C2235     1.0  0.40673  0.85952  0.59692  1.0000
  C   C2236     1.0  0.40759  0.91993  0.76376  1.0000
  P   P73       1.0  0.39907  0.84349  0.49545  1.0000
  C   C2237     1.0  0.43991  0.98287  0.73231  1.0000
  C   C2238     1.0  0.40797  0.85390  0.45688  1.0000
  C   C2239     1.0  0.41268  0.86142  0.46769  1.0000
  C   C2240     1.0  0.41920  0.86979  0.43761  1.0000
  C   C2241     1.0  0.42101  0.87068  0.39662  1.0000
  C   C2242     1.0  0.41621  0.86332  0.38586  1.0000
  C   C2243     1.0  0.40969  0.85496  0.41578  1.0000
  H   H1778     1.0  0.38927  0.89298  0.60442  1.0000
  C   C2244     1.0  0.38386  0.88608  0.61578  1.0000
  H   H1779     1.0  0.44289  0.97848  0.75337  1.0000
  H   H1780     1.0  0.40999  0.88715  0.76493  1.0000
  H   H1781     1.0  0.44044  0.87064  0.92149  1.0000
  C   C2245     1.0  0.38768  0.84720  0.50210  1.0000
  C   C2246     1.0  0.38324  0.84972  0.53633  1.0000
  C   C2247     1.0  0.37419  0.85215  0.54110  1.0000
  C   C2248     1.0  0.36964  0.85223  0.51156  1.0000
  C   C2249     1.0  0.37423  0.85015  0.47662  1.0000
  C   C2250     1.0  0.38327  0.84775  0.47171  1.0000
  H   H1782     1.0  0.41771  0.96076  0.64793  1.0000
  C   C2251     1.0  0.48179  0.96916  0.58082  1.0000
  S   S311      1.0  0.39995  0.83636  0.69574  1.0000
  C   C2252     1.0  0.47175  0.98985  0.27177  1.0000
  C   C2253     1.0  0.39471  0.90909  0.64833  1.0000
  H   H1783     1.0  0.41113  0.86087  0.49932  1.0000
  H   H1784     1.0  0.42278  0.87560  0.44602  1.0000
  H   H1785     1.0  0.42601  0.87706  0.37274  1.0000
  H   H1786     1.0  0.41748  0.86416  0.35406  1.0000
  H   H1787     1.0  0.40592  0.84939  0.40674  1.0000
  H   H1788     1.0  0.47649  0.99437  0.56987  1.0000
  C   C2254     1.0  0.38304  0.86712  0.24933  1.0000
  C   C2255     1.0  0.37591  0.87218  0.26030  1.0000
  H   H1789     1.0  0.48934  0.87908  0.12034  1.0000
  C   C2256     1.0  0.41653  0.86292  0.57269  1.0000
  H   H1790     1.0  0.38662  0.84972  0.55954  1.0000
  H   H1791     1.0  0.37052  0.85367  0.56828  1.0000
  H   H1792     1.0  0.36253  0.85388  0.51579  1.0000
  H   H1793     1.0  0.37077  0.85032  0.45339  1.0000
  H   H1794     1.0  0.38676  0.84619  0.44437  1.0000
  C   C2257     1.0  0.46281  0.87501  0.88494  1.0000
  C   C2258     1.0  0.46372  0.86640  0.87560  1.0000
  C   C2259     1.0  0.46075  0.86466  0.84386  1.0000
  C   C2260     1.0  0.45705  0.87162  0.82093  1.0000
  C   C2261     1.0  0.45608  0.88026  0.83016  1.0000
  C   C2262     1.0  0.45879  0.88180  0.86297  1.0000
  P   P74       1.0  0.44930  0.88796  0.80638  1.0000
  C   C2263     1.0  0.43692  0.88074  0.83072  1.0000
  C   C2264     1.0  0.45136  0.89995  0.81222  1.0000
  C   C2265     1.0  0.46068  0.90471  0.81016  1.0000
  C   C2266     1.0  0.46213  0.91385  0.81623  1.0000
  C   C2267     1.0  0.45437  0.91840  0.82326  1.0000
  C   C2268     1.0  0.44523  0.91394  0.82329  1.0000
  C   C2269     1.0  0.44378  0.90480  0.81717  1.0000
  C   C2270     1.0  0.43126  0.88130  0.86765  1.0000
  C   C2271     1.0  0.42181  0.87531  0.88729  1.0000
  C   C2272     1.0  0.41804  0.86863  0.87043  1.0000
  C   C2273     1.0  0.42380  0.86772  0.83468  1.0000
  C   C2274     1.0  0.43325  0.87368  0.81506  1.0000
  C   C2275     1.0  0.45256  0.89027  0.75236  1.0000
  C   C2276     1.0  0.44573  0.89225  0.73220  1.0000
  C   C2277     1.0  0.44825  0.89392  0.69029  1.0000
  C   C2278     1.0  0.45765  0.89380  0.66825  1.0000
  C   C2279     1.0  0.46454  0.89212  0.68804  1.0000
  C   C2280     1.0  0.46200  0.89042  0.72992  1.0000
  H   H1795     1.0  0.46518  0.87642  0.90930  1.0000
  H   H1796     1.0  0.46687  0.86115  0.89254  1.0000
  H   H1797     1.0  0.46151  0.85803  0.83637  1.0000
  H   H1798     1.0  0.45479  0.87020  0.79637  1.0000
  H   H1799     1.0  0.45763  0.88812  0.87226  1.0000
  H   H1800     1.0  0.46676  0.90127  0.80489  1.0000
  H   H1801     1.0  0.46917  0.91724  0.81697  1.0000
  H   H1802     1.0  0.45536  0.92526  0.82982  1.0000
  H   H1803     1.0  0.43924  0.91749  0.82908  1.0000
  H   H1804     1.0  0.43672  0.90144  0.81681  1.0000
  H   H1805     1.0  0.43416  0.88633  0.88129  1.0000
  H   H1806     1.0  0.41734  0.87596  0.91524  1.0000
  H   H1807     1.0  0.41060  0.86426  0.88467  1.0000
  H   H1808     1.0  0.42092  0.86242  0.82205  1.0000
  H   H1809     1.0  0.43771  0.87272  0.78781  1.0000
  H   H1810     1.0  0.43843  0.89233  0.74899  1.0000
  H   H1811     1.0  0.44290  0.89519  0.67502  1.0000
  H   H1812     1.0  0.45958  0.89490  0.63596  1.0000
  H   H1813     1.0  0.47181  0.89192  0.67122  1.0000
  H   H1814     1.0  0.46735  0.88911  0.74502  1.0000
  C   C2281     1.0  0.43065  0.97919  0.73115  1.0000
  Fe  Fe154     1.0  0.46741  0.86255  0.71806  1.0000
  C   C2282     1.0  0.37985  0.87449  0.74170  1.0000
  Fe  Fe155     1.0  0.44578  0.85676  0.72531  1.0000
  C   C2283     1.0  0.47934  0.88325  0.26861  1.0000
  H   H1815     1.0  0.49220  0.98006  0.40619  1.0000
  C   C2284     1.0  0.36900  0.87527  0.66712  1.0000
  C   C2285     1.0  0.43363  0.91511  0.09006  1.0000
  C   C2286     1.0  0.47818  0.87411  0.29765  1.0000
  C   C2287     1.0  0.40284  0.90826  0.66153  1.0000
  H   H1816     1.0  0.41876  0.95455  0.71758  1.0000
  C   C2288     1.0  0.39981  0.90059  0.49291  1.0000
  H   H1817     1.0  0.48367  0.99221  0.15882  1.0000
  H   H1818     1.0  0.48305  0.87118  0.59918  1.0000
  H   H1819     1.0  0.44711  0.93747  0.97757  1.0000
  C   C2289     1.0  0.49074  0.88201  0.31965  1.0000
  C   C2290     1.0  0.43722  0.94625  0.66674  1.0000
  C   C2291     1.0  0.42019  0.88137  0.72858  1.0000
  C   C2292     1.0  0.40750  0.89797  0.54542  1.0000
  C   C2293     1.0  0.43479  0.92436  0.74662  1.0000
  H   H1820     1.0  0.42975  0.92849  0.09481  1.0000
  S   S312      1.0  0.45401  0.85293  0.76921  1.0000
  S   S313      1.0  0.35914  0.84082  0.66108  1.0000
  C   C2294     1.0  0.41203  0.91446  0.63685  1.0000
  H   H1821     1.0  0.47042  0.95742  0.54029  1.0000
  H   H1822     1.0  0.41536  0.88422  0.50821  1.0000
  C   C2295     1.0  0.49367  0.84923  0.72277  1.0000
  H   H1823     1.0  0.49560  0.93965  0.53640  1.0000
  H   H1824     1.0  0.46976  0.85703  0.50442  1.0000
  S   S314      1.0  0.47131  0.99242  0.65432  1.0000
  S   S315      1.0  0.44992  0.97232  0.55202  1.0000
  H   H1825     1.0  0.41576  0.85424  0.21580  1.0000
  C   C2296     1.0  0.43743  0.92037  0.68419  1.0000
  C   C2297     1.0  0.41295  0.90773  0.52826  1.0000
  C   C2298     1.0  0.45600  0.94060  0.63136  1.0000
  Fe  Fe156     1.0  0.46966  0.98517  0.40047  1.0000
  C   C2299     1.0  0.45236  0.94418  0.70715  1.0000
  C   C2300     1.0  0.42530  0.86752  0.26672  1.0000
  C   C2301     1.0  0.41303  0.92146  0.59990  1.0000
  Fe  Fe157     1.0  0.46088  0.85411  0.65581  1.0000
  S   S316      1.0  0.46562  0.85610  0.58797  1.0000
  H   H1826     1.0  0.43483  0.87821  0.18709  1.0000
  H   H1827     1.0  0.47515  0.88376  0.24785  1.0000
  C   C2302     1.0  0.44427  0.96253  0.24974  1.0000
  P   P75       1.0  0.49723  0.93516  0.40402  1.0000
  H   H1828     1.0  0.43143  0.95981  0.99248  1.0000
  C   C2303     1.0  0.47109  0.98143  0.26005  1.0000
  H   H1829     1.0  0.47221  0.93830  0.10861  1.0000
  C   C2304     1.0  0.41210  0.87373  0.24859  1.0000
  C   C2305     1.0  0.49674  0.94524  0.08501  1.0000
  H   H1830     1.0  0.46673  0.85392  0.23961  1.0000
  S   S317      1.0  0.47112  0.86330  0.29491  1.0000
  S   S318      1.0  0.47042  0.84995  0.69450  1.0000
  S   S319      1.0  0.44709  0.84399  0.70251  1.0000
  C   C2306     1.0  0.42556  0.84768  0.97270  1.0000
  S   S320      1.0  0.48219  0.99874  0.73310  1.0000
  H   H1831     1.0  0.40441  0.91791  0.82771  1.0000
  H   H1832     1.0  0.40566  0.92767  0.55836  1.0000
  C   C2307     1.0  0.47509  0.98217  0.21903  1.0000
  H   H1833     1.0  0.43436  0.91300  0.12014  1.0000
  C   C2308     1.0  0.46272  0.85196  0.52128  1.0000
  H   H1834     1.0  0.40637  0.84911  0.33775  1.0000
  H   H1835     1.0  0.41812  0.91049  0.54163  1.0000
  C   C2309     1.0  0.49521  0.88976  0.14417  1.0000
  C   C2310     1.0  0.47774  0.95809  0.26891  1.0000
  H   H1836     1.0  0.47003  0.95666  0.28548  1.0000
  S   S321      1.0  0.44663  0.85218  0.38626  1.0000
  S   S322      1.0  0.42555  0.84843  0.34080  1.0000
  C   C2311     1.0  0.49620  0.92479  0.53850  1.0000
  C   C2312     1.0  0.42725  0.90818  0.74837  1.0000
  C   C2313     1.0  0.43235  0.99418  0.67746  1.0000
  H   H1837     1.0  0.39671  0.90011  0.84914  1.0000
  H   H1838     1.0  0.46394  0.94043  0.44571  1.0000
  S   S323      1.0  0.47352  0.97204  0.38388  1.0000
  C   C2314     1.0  0.45881  0.85011  0.56341  1.0000
  C   C2315     1.0  0.41183  0.91393  0.49355  1.0000
  H   H1839     1.0  0.48928  0.89011  0.05295  1.0000
  C   C2316     1.0  0.39549  0.85311  0.21733  1.0000
  C   C2317     1.0  0.42930  0.95465  0.62120  1.0000
  H   H1840     1.0  0.43434  0.85288  0.04526  1.0000
  C   C2318     1.0  0.42441  0.88079  0.68995  1.0000
  H   H1841     1.0  0.49357  0.99902  0.29732  1.0000
  C   C2319     1.0  0.39961  0.90439  0.81711  1.0000
  H   H1842     1.0  0.41840  0.91395  0.64646  1.0000
  C   C2320     1.0  0.45727  0.93834  0.72866  1.0000
  Fe  Fe158     1.0  0.45945  0.84990  0.34217  1.0000
  C   C2321     1.0  0.47979  0.94056  0.08978  1.0000
  C   C2322     1.0  0.49296  0.83937  0.72451  1.0000
  H   H1843     1.0  0.38117  0.85918  0.26220  1.0000
  H   H1844     1.0  0.49239  0.90272  0.76057  1.0000
  H   H1845     1.0  0.45707  0.95600  0.60155  1.0000
  Fe  Fe159     1.0  0.43756  0.84333  0.36102  1.0000
  H   H1846     1.0  0.40128  0.88226  0.06674  1.0000
  C   C2323     1.0  0.41097  0.89249  0.70139  1.0000
  Fe  Fe160     1.0  0.46270  0.97568  0.80875  1.0000
  Fe  Fe161     1.0  0.45743  0.97268  0.48699  1.0000
  C   C2324     1.0  0.49182  0.96643  0.20871  1.0000
  H   H1847     1.0  0.38945  0.91666  0.60111  1.0000
  H   H1848     1.0  0.39484  0.89800  0.47839  1.0000
  P   P76       1.0  0.40148  0.86589  0.20544  1.0000
  H   H1849     1.0  0.40848  0.89323  0.57218  1.0000
  C   C2325     1.0  0.48686  0.94243  0.10799  1.0000
  H   H1850     1.0  0.43109  0.94533  0.72967  1.0000
  H   H1851     1.0  0.39770  0.84828  0.27599  1.0000
  C   C2326     1.0  0.40578  0.87983  0.08509  1.0000
  H   H1852     1.0  0.45140  0.99575  0.53354  1.0000
  C   C2327     1.0  0.46807  0.93363  0.59455  1.0000
  C   C2328     1.0  0.41592  0.88202  0.06743  1.0000
  C   C2329     1.0  0.48171  0.96442  0.22857  1.0000
  C   C2330     1.0  0.38448  0.87916  0.59503  1.0000
  S   S324      1.0  0.47644  0.00018  0.35151  1.0000
  H   H1853     1.0  0.41823  0.84494  0.50677  1.0000
  S   S325      1.0  0.45015  0.84197  0.31402  1.0000
  H   H1854     1.0  0.36305  0.87371  0.69508  1.0000
  H   H1855     1.0  0.48296  0.97614  0.03612  1.0000
  H   H1856     1.0  0.49379  0.96961  0.72456  1.0000
  P   P77       1.0  0.47356  0.93965  0.02339  1.0000
  H   H1857     1.0  0.45867  0.93383  0.39644  1.0000
  H   H1858     1.0  0.49198  0.98445  0.27437  1.0000
  C   C2331     1.0  0.45109  0.95150  0.06932  1.0000
  H   H1859     1.0  0.38000  0.87298  0.42657  1.0000
  H   H1860     1.0  0.46537  0.95393  0.77474  1.0000
  H   H1861     1.0  0.49090  0.98648  0.48192  1.0000
  H   H1862     1.0  0.46436  0.88052  0.99145  1.0000
  H   H1863     1.0  0.48184  0.88681  0.94956  1.0000
  C   C2332     1.0  0.40269  0.83986  0.54010  1.0000
  H   H1864     1.0  0.39359  0.87355  0.14000  1.0000
  C   C2333     1.0  0.40144  0.87486  0.12676  1.0000
  C   C2334     1.0  0.46921  0.90938  0.00495  1.0000
  H   H1865     1.0  0.45513  0.97536  0.23951  1.0000
  H   H1866     1.0  0.43824  0.96558  0.26142  1.0000
  C   C2335     1.0  0.47651  0.99907  0.24283  1.0000
  H   H1867     1.0  0.47371  0.98679  0.06622  1.0000
  C   C2336     1.0  0.42173  0.87924  0.09151  1.0000
  H   H1868     1.0  0.41928  0.88606  0.03522  1.0000
  C   C2337     1.0  0.45390  0.96798  0.23792  1.0000
  C   C2338     1.0  0.44238  0.95313  0.24645  1.0000
  H   H1869     1.0  0.45926  0.87854  0.06478  1.0000
  H   H1870     1.0  0.43491  0.94890  0.25568  1.0000
  H   H1871     1.0  0.40749  0.87887  0.24990  1.0000
  S   S326      1.0  0.47358  0.97530  0.75249  1.0000
  C   C2339     1.0  0.48339  0.95202  0.89901  1.0000
  H   H1872     1.0  0.38924  0.89565  0.20849  1.0000
  H   H1873     1.0  0.39672  0.87178  0.42591  1.0000
  C   C2340     1.0  0.46174  0.96391  0.22392  1.0000
  H   H1874     1.0  0.45733  0.96459  0.73448  1.0000
  C   C2341     1.0  0.39692  0.85558  0.96284  1.0000
  H   H1875     1.0  0.42056  0.87983  0.28065  1.0000
  C   C2342     1.0  0.43065  0.85638  0.94035  1.0000
  H   H1876     1.0  0.42960  0.88113  0.07779  1.0000
  C   C2343     1.0  0.46195  0.95131  0.75511  1.0000
  C   C2344     1.0  0.38267  0.87453  0.45008  1.0000
  P   P78       1.0  0.47420  0.97111  0.20508  1.0000
  H   H1877     1.0  0.41611  0.92148  0.47995  1.0000
  C   C2345     1.0  0.45012  0.94910  0.23195  1.0000
  C   C2346     1.0  0.45978  0.95441  0.22116  1.0000
  H   H1878     1.0  0.44859  0.94182  0.22948  1.0000
  H   H1879     1.0  0.42042  0.84456  0.65712  1.0000
  C   C2347     1.0  0.41740  0.87422  0.13324  1.0000
  C   C2348     1.0  0.45011  0.87959  0.15776  1.0000
  C   C2349     1.0  0.45734  0.95727  0.73274  1.0000
  C   C2350     1.0  0.39209  0.87383  0.44977  1.0000
  H   H1880     1.0  0.45735  0.93100  0.72731  1.0000
  H   H1881     1.0  0.46570  0.95112  0.21033  1.0000
  H   H1882     1.0  0.46580  0.93742  0.76920  1.0000
  C   C2351     1.0  0.40719  0.87191  0.15119  1.0000
  H   H1883     1.0  0.49493  0.94506  0.99335  1.0000
  C   C2352     1.0  0.38749  0.88768  0.21952  1.0000
  H   H1884     1.0  0.37267  0.88635  0.25495  1.0000
  C   C2353     1.0  0.46036  0.93270  0.62913  1.0000
  H   H1885     1.0  0.40175  0.88685  0.18705  1.0000
  H   H1886     1.0  0.42258  0.90091  0.76571  1.0000
  H   H1887     1.0  0.42197  0.87713  0.75420  1.0000
  H   H1888     1.0  0.36938  0.87772  0.48087  1.0000
  H   H1889     1.0  0.46203  0.95036  0.93657  1.0000
  C   C2354     1.0  0.39458  0.88265  0.20769  1.0000
  H   H1890     1.0  0.44669  0.97262  0.95267  1.0000
  C   C2355     1.0  0.46587  0.93370  0.39879  1.0000
  C   C2356     1.0  0.46884  0.93739  0.42674  1.0000
  C   C2357     1.0  0.46633  0.85604  0.20902  1.0000
  H   H1891     1.0  0.46848  0.90262  0.99762  1.0000
  C   C2358     1.0  0.41253  0.85151  0.10968  1.0000
  C   C2359     1.0  0.46206  0.94193  0.75247  1.0000
  C   C2360     1.0  0.37814  0.88244  0.24564  1.0000
  C   C2361     1.0  0.41948  0.87428  0.26636  1.0000
  C   C2362     1.0  0.38960  0.87834  0.51122  1.0000
  C   C2363     1.0  0.47796  0.96674  0.62299  1.0000
  C   C2364     1.0  0.47825  0.93755  0.42907  1.0000
  H   H1892     1.0  0.42842  0.85505  0.24932  1.0000
  C   C2365     1.0  0.49100  0.86154  0.57585  1.0000
  H   H1893     1.0  0.45537  0.91161  0.99956  1.0000
  C   C2366     1.0  0.37669  0.87717  0.48080  1.0000
  C   C2367     1.0  0.40601  0.84287  0.96399  1.0000
  H   H1894     1.0  0.42208  0.87230  0.15127  1.0000
  C   C2368     1.0  0.46691  0.88135  0.04682  1.0000
  H   H1895     1.0  0.39248  0.86222  0.60931  1.0000
  C   C2369     1.0  0.46540  0.98626  0.62734  1.0000
  C   C2370     1.0  0.40273  0.90528  0.74640  1.0000
  C   C2371     1.0  0.45918  0.89585  0.11178  1.0000
  C   C2372     1.0  0.46182  0.91444  0.00615  1.0000
  H   H1896     1.0  0.44358  0.92905  0.14226  1.0000
  C   C2373     1.0  0.41505  0.89163  0.66284  1.0000
  C   C2374     1.0  0.48012  0.99144  0.19025  1.0000
  C   C2375     1.0  0.45259  0.95374  0.70872  1.0000
  C   C2376     1.0  0.38161  0.89310  0.75070  1.0000
  C   C2377     1.0  0.41342  0.88711  0.73443  1.0000
  C   C2378     1.0  0.40300  0.87410  0.55806  1.0000
  C   C2379     1.0  0.37723  0.87033  0.61071  1.0000
  C   C2380     1.0  0.44542  0.94392  0.10503  1.0000
  C   C2381     1.0  0.39559  0.87586  0.47985  1.0000
  C   C2382     1.0  0.37171  0.87694  0.76360  1.0000
  H   H1897     1.0  0.42010  0.92633  0.58125  1.0000
  P   P79       1.0  0.40163  0.89925  0.70935  1.0000
  S   S327      1.0  0.45289  0.96121  0.85497  1.0000
  C   C2383     1.0  0.42181  0.88587  0.65714  1.0000
  H   H1898     1.0  0.43073  0.86772  0.28195  1.0000
  C   C2384     1.0  0.47769  0.91318  0.01209  1.0000
  C   C2385     1.0  0.46297  0.92341  0.01368  1.0000
  C   C2386     1.0  0.44798  0.93492  0.11456  1.0000
  H   H1899     1.0  0.48344  0.90927  0.01078  1.0000
  H   H1900     1.0  0.45734  0.92743  0.01278  1.0000
  H   H1901     1.0  0.45828  0.92656  0.09759  1.0000
  C   C2387     1.0  0.38013  0.87907  0.51131  1.0000
  H   H1902     1.0  0.40301  0.87566  0.47807  1.0000
  C   C2388     1.0  0.49680  0.99140  0.25362  1.0000
  C   C2389     1.0  0.45629  0.93352  0.08888  1.0000
  H   H1903     1.0  0.43904  0.94497  0.12542  1.0000
  C   C2390     1.0  0.37613  0.88413  0.65166  1.0000
  H   H1904     1.0  0.46849  0.98671  0.52940  1.0000
  C   C2391     1.0  0.39241  0.87232  0.22254  1.0000
  C   C2392     1.0  0.39575  0.91603  0.61113  1.0000
  C   C2393     1.0  0.43934  0.92707  0.70447  1.0000
  C   C2394     1.0  0.47889  0.92215  0.01962  1.0000
  C   C2395     1.0  0.47153  0.92735  0.02042  1.0000
  H   H1905     1.0  0.44908  0.95847  0.69165  1.0000
  H   H1906     1.0  0.37543  0.88124  0.53447  1.0000
  H   H1907     1.0  0.36627  0.88809  0.78549  1.0000
  H   H1908     1.0  0.48569  0.92509  0.02363  1.0000
  H   H1909     1.0  0.40446  0.91514  0.44871  1.0000
  Fe  Fe162     1.0  0.36501  0.83620  0.39095  1.0000
  H   H1910     1.0  0.41287  0.89520  0.63731  1.0000
  H   H1911     1.0  0.48471  0.94162  0.14009  1.0000
  C   C2396     1.0  0.48541  0.96526  0.92693  1.0000
  H   H1912     1.0  0.42974  0.85750  0.91074  1.0000
  H   H1913     1.0  0.46072  0.84877  0.46827  1.0000
  C   C2397     1.0  0.49599  0.93446  0.51971  1.0000
  P   P80       1.0  0.47004  0.88179  0.11919  1.0000
  H   H1914     1.0  0.48123  0.96105  0.99204  1.0000
  H   H1915     1.0  0.48689  0.89867  0.24286  1.0000
  H   H1916     1.0  0.44972  0.87195  0.17270  1.0000
  C   C2398     1.0  0.45761  0.84727  0.50069  1.0000
  Fe  Fe163     1.0  0.44633  0.83756  0.42872  1.0000
  H   H1917     1.0  0.43552  0.89575  0.15641  1.0000
  H   H1918     1.0  0.41126  0.85829  0.09260  1.0000
  C   C2399     1.0  0.43323  0.85387  0.01611  1.0000
  H   H1919     1.0  0.49827  0.83744  0.70242  1.0000
  C   C2400     1.0  0.38925  0.84954  0.95798  1.0000
  C   C2401     1.0  0.44967  0.84357  0.58474  1.0000
  C   C2402     1.0  0.44165  0.88309  0.16614  1.0000
  H   H1920     1.0  0.47015  0.92779  0.34987  1.0000
  H   H1921     1.0  0.42945  0.84314  0.14938  1.0000
  S   S328      1.0  0.49689  0.92052  0.19330  1.0000
  C   C2403     1.0  0.43302  0.83595  0.84114  1.0000
  C   C2404     1.0  0.44199  0.89297  0.14830  1.0000
  C   C2405     1.0  0.45897  0.88601  0.13078  1.0000
  H   H1922     1.0  0.49440  0.97092  0.53012  1.0000
  H   H1923     1.0  0.48331  0.89374  0.37504  1.0000
  H   H1924     1.0  0.47004  0.98471  0.13923  1.0000
  H   H1925     1.0  0.46266  0.84606  0.13766  1.0000
  C   C2406     1.0  0.38626  0.84026  0.20098  1.0000
  C   C2407     1.0  0.48461  0.96809  0.09258  1.0000
  H   H1926     1.0  0.49596  0.92242  0.56997  1.0000
  C   C2408     1.0  0.47630  0.98131  0.08501  1.0000
  H   H1927     1.0  0.42643  0.97195  0.75153  1.0000
  H   H1928     1.0  0.49512  0.97160  0.17822  1.0000
  H   H1929     1.0  0.48684  0.92836  0.35245  1.0000
  C   C2409     1.0  0.41267  0.84129  0.53615  1.0000
  H   H1930     1.0  0.47305  0.84597  0.80129  1.0000
  C   C2410     1.0  0.42304  0.83731  0.91686  1.0000
  H   H1931     1.0  0.48733  0.87371  0.84342  1.0000
  C   C2411     1.0  0.48653  0.88876  0.99925  1.0000
  H   H1932     1.0  0.48114  0.00041  0.87115  1.0000
  C   C2412     1.0  0.48480  0.93404  0.40323  1.0000
  S   S329      1.0  0.49559  0.92249  0.81433  1.0000
  H   H1933     1.0  0.39224  0.84313  0.85554  1.0000
  C   C2413     1.0  0.48150  0.97531  0.06807  1.0000
  C   C2414     1.0  0.48640  0.85156  0.75046  1.0000
  C   C2415     1.0  0.49358  0.96420  0.62953  1.0000
  C   C2416     1.0  0.47234  0.93026  0.37272  1.0000
  H   H1934     1.0  0.38270  0.83802  0.18100  1.0000
  C   C2417     1.0  0.49148  0.96909  0.56284  1.0000
  Fe  Fe164     1.0  0.47146  0.99771  0.79259  1.0000
  C   C2418     1.0  0.44854  0.84063  0.52213  1.0000
  C   C2419     1.0  0.48073  0.99986  0.20213  1.0000
  C   C2420     1.0  0.44461  0.83882  0.56423  1.0000
  P   P81       1.0  0.41696  0.83862  0.96526  1.0000
  C   C2421     1.0  0.40697  0.84158  0.34329  1.0000
  H   H1935     1.0  0.44510  0.99538  0.60418  1.0000
  H   H1936     1.0  0.46862  0.98924  0.30346  1.0000
  H   H1937     1.0  0.41311  0.84303  0.88640  1.0000
  C   C2422     1.0  0.47872  0.84412  0.78038  1.0000
  H   H1938     1.0  0.43087  0.83854  0.26836  1.0000
  C   C2423     1.0  0.48883  0.00082  0.48219  1.0000
  H   H1939     1.0  0.48366  0.90633  0.17489  1.0000
  H   H1940     1.0  0.48204  0.99977  0.47551  1.0000
  H   H1941     1.0  0.45273  0.99478  0.70627  1.0000
  C   C2424     1.0  0.49710  0.99921  0.06532  1.0000
  C   C2425     1.0  0.47959  0.88600  0.98172  1.0000
  H   H1942     1.0  0.37453  0.83722  0.89352  1.0000
  H   H1943     1.0  0.48841  0.96326  0.07967  1.0000
  H   H1944     1.0  0.34886  0.83969  0.60367  1.0000
  H   H1945     1.0  0.42332  0.83873  0.56645  1.0000
  H   H1946     1.0  0.49531  0.88140  0.33889  1.0000
  H   H1947     1.0  0.42935  0.99846  0.65620  1.0000
  H   H1948     1.0  0.42313  0.83986  0.03618  1.0000
  C   C2426     1.0  0.41561  0.83763  0.56987  1.0000
  C   C2427     1.0  0.44165  0.99795  0.67864  1.0000
  C   C2428     1.0  0.48495  0.90048  0.16236  1.0000
  S   S330      1.0  0.49560  0.89340  0.83810  1.0000
  C   C2429     1.0  0.49634  0.93752  0.47905  1.0000
  C   C2430     1.0  0.49753  0.85560  0.58100  1.0000
  C   C2431     1.0  0.49680  0.91820  0.51651  1.0000
  C   C2432     1.0  0.49717  0.92126  0.47577  1.0000
  H   H1949     1.0  0.49706  0.91072  0.53093  1.0000
  C   C2433     1.0  0.49763  0.99963  0.26652  1.0000
  C   C2434     1.0  0.49788  0.96975  0.44346  1.0000
  H   H1950     1.0  0.49795  0.90832  0.06410  1.0000
  C   C2435     1.0  0.49775  0.96175  0.22816  1.0000
  H   H1951     1.0  0.49774  0.91601  0.45959  1.0000
  C   C2436     1.0  0.49828  0.97889  0.41700  1.0000
  H   H1952     1.0  0.49832  0.95162  0.28288  1.0000
  Fe  Fe165     1.0  0.49862  0.90849  0.84790  1.0000
  C   C2437     1.0  0.49876  0.91805  0.38380  1.0000
  C   C2438     1.0  0.49899  0.86042  0.63912  1.0000
  C   C2439     1.0  0.53226  0.01322  0.13260  1.0000
  Fe  Fe166     1.0  0.52357  0.06097  0.28076  1.0000
  S   S331      1.0  0.51507  0.06114  0.34187  1.0000
  S   S332      1.0  0.53799  0.05712  0.26766  1.0000
  Fe  Fe167     1.0  0.50910  0.06773  0.23956  1.0000
  H   H1953     1.0  0.59684  0.01840  0.07850  1.0000
  H   H1954     1.0  0.66121  0.16823  0.53582  1.0000
  Fe  Fe168     1.0  0.51337  0.07576  0.30701  1.0000
  S   S333      1.0  0.51698  0.09034  0.31979  1.0000
  H   H1955     1.0  0.50594  0.09285  0.44454  1.0000
  H   H1956     1.0  0.69988  0.16289  0.16565  1.0000
  S   S334      1.0  0.52265  0.07578  0.24627  1.0000
  S   S335      1.0  0.51097  0.05279  0.26900  1.0000
  Fe  Fe169     1.0  0.63091  0.14510  0.42380  1.0000
  S   S336      1.0  0.63774  0.14508  0.36058  1.0000
  S   S337      1.0  0.61619  0.14816  0.44180  1.0000
  Fe  Fe170     1.0  0.64774  0.14020  0.45280  1.0000
  S   S338      1.0  0.65600  0.13931  0.39131  1.0000
  S   S339      1.0  0.65143  0.13660  0.51238  1.0000
  Fe  Fe171     1.0  0.65146  0.15326  0.36593  1.0000
  C   C2440     1.0  0.50117  0.04921  0.11293  1.0000
  Fe  Fe172     1.0  0.64148  0.13116  0.39042  1.0000
  S   S340      1.0  0.63746  0.11654  0.37759  1.0000
  S   S341      1.0  0.64409  0.15445  0.42683  1.0000
  S   S342      1.0  0.63381  0.13086  0.45415  1.0000
  Fe  Fe173     1.0  0.54998  0.11613  0.43732  1.0000
  S   S343      1.0  0.56281  0.12720  0.38789  1.0000
  S   S344      1.0  0.54020  0.10264  0.43352  1.0000
  Fe  Fe174     1.0  0.55649  0.12218  0.50501  1.0000
  S   S345      1.0  0.56964  0.13358  0.46052  1.0000
  S   S346      1.0  0.55497  0.11670  0.57241  1.0000
  Fe  Fe175     1.0  0.56001  0.13776  0.42299  1.0000
  Fe  Fe176     1.0  0.57170  0.12258  0.42777  1.0000
  S   S347      1.0  0.58628  0.11966  0.40191  1.0000
  S   S348      1.0  0.54624  0.12701  0.47052  1.0000
  S   S349      1.0  0.55933  0.11077  0.47477  1.0000
  Fe  Fe177     1.0  0.59941  0.06848  0.25564  1.0000
  S   S350      1.0  0.59086  0.07260  0.21334  1.0000
  Fe  Fe178     1.0  0.60948  0.09002  0.24216  1.0000
  S   S351      1.0  0.60140  0.09542  0.19855  1.0000
  S   S352      1.0  0.61898  0.10307  0.25096  1.0000
  Fe  Fe179     1.0  0.58818  0.08412  0.24292  1.0000
  S   S353      1.0  0.57380  0.08833  0.26170  1.0000
  Fe  Fe180     1.0  0.60473  0.08356  0.17158  1.0000
  S   S354      1.0  0.60820  0.08843  0.10243  1.0000
  S   S355      1.0  0.59581  0.07937  0.28845  1.0000
  S   S356      1.0  0.61381  0.07877  0.21188  1.0000
  Fe  Fe181     1.0  0.60734  0.08028  0.84496  1.0000
  S   S357      1.0  0.59887  0.08111  0.90512  1.0000
  S   S358      1.0  0.61669  0.09450  0.79664  1.0000
  Fe  Fe182     1.0  0.59704  0.05868  0.86305  1.0000
  S   S359      1.0  0.58813  0.05798  0.92541  1.0000
  S   S360      1.0  0.59392  0.04402  0.85010  1.0000
  Fe  Fe183     1.0  0.58610  0.07269  0.89523  1.0000
  S   S361      1.0  0.57148  0.07626  0.91197  1.0000
  Fe  Fe184     1.0  0.60161  0.06633  0.93106  1.0000
  S   S362      1.0  0.60408  0.06114  0.99253  1.0000
  S   S363      1.0  0.59416  0.07308  0.83252  1.0000
  S   S364      1.0  0.61101  0.06588  0.87085  1.0000
  C   C2441     1.0  0.61470  0.16753  0.50453  1.0000
  H   H1957     1.0  0.50361  0.01721  0.12170  1.0000
  H   H1958     1.0  0.62173  0.03058  0.10668  1.0000
  Fe  Fe185     1.0  0.65391  0.14243  0.76568  1.0000
  S   S365      1.0  0.64617  0.14739  0.72108  1.0000
  S   S366      1.0  0.65195  0.12607  0.79665  1.0000
  Fe  Fe186     1.0  0.65985  0.15899  0.68484  1.0000
  C   C2442     1.0  0.61040  0.16802  0.67830  1.0000
  Fe  Fe187     1.0  0.64215  0.15771  0.75505  1.0000
  S   S367      1.0  0.62720  0.16079  0.77033  1.0000
  S   S368      1.0  0.66825  0.15352  0.72763  1.0000
  S   S369      1.0  0.64888  0.15201  0.80268  1.0000
  S   S370      1.0  0.57009  0.13029  0.84310  1.0000
  Fe  Fe188     1.0  0.56234  0.13784  0.74642  1.0000
  S   S371      1.0  0.56653  0.12363  0.76696  1.0000
  C   C2443     1.0  0.57577  0.08249  0.09935  1.0000
  Fe  Fe189     1.0  0.55751  0.12232  0.82980  1.0000
  S   S372      1.0  0.54981  0.10716  0.87625  1.0000
  Fe  Fe190     1.0  0.57862  0.13268  0.77848  1.0000
  S   S373      1.0  0.59355  0.12974  0.76123  1.0000
  S   S374      1.0  0.55237  0.13609  0.80912  1.0000
  Fe  Fe191     1.0  0.51057  0.05852  0.93449  1.0000
  S   S375      1.0  0.51783  0.05502  0.98219  1.0000
  S   S376      1.0  0.51273  0.07451  0.89703  1.0000
  C   C2444     1.0  0.52483  0.00893  0.71644  1.0000
  S   S377      1.0  0.50863  0.03199  0.99638  1.0000
  H   H1959     1.0  0.50217  0.00567  0.95679  1.0000
  H   H1960     1.0  0.56708  0.02885  0.18362  1.0000
  H   H1961     1.0  0.51461  0.01715  0.70036  1.0000
  Fe  Fe192     1.0  0.52200  0.04354  0.95504  1.0000
  S   S378      1.0  0.53682  0.04014  0.94469  1.0000
  C   C2445     1.0  0.65194  0.16474  0.16161  1.0000
  S   S379      1.0  0.51563  0.04761  0.90460  1.0000
  C   C2446     1.0  0.50983  0.00555  0.94981  1.0000
  H   H1962     1.0  0.65379  0.16399  0.13159  1.0000
  C   C2447     1.0  0.57975  0.03411  0.25817  1.0000
  H   H1963     1.0  0.58465  0.04842  0.72488  1.0000
  H   H1964     1.0  0.54873  0.03381  0.06326  1.0000
  C   C2448     1.0  0.53977  0.09831  0.87816  1.0000
  C   C2449     1.0  0.53955  0.08830  0.89363  1.0000
  C   C2450     1.0  0.53143  0.08095  0.89860  1.0000
  C   C2451     1.0  0.52336  0.08355  0.88863  1.0000
  C   C2452     1.0  0.52363  0.09358  0.87255  1.0000
  C   C2453     1.0  0.53176  0.10093  0.86761  1.0000
  H   H1965     1.0  0.54567  0.08622  0.90209  1.0000
  H   H1966     1.0  0.53136  0.07329  0.91087  1.0000
  H   H1967     1.0  0.51742  0.09567  0.86480  1.0000
  H   H1968     1.0  0.53173  0.10860  0.85652  1.0000
  C   C2454     1.0  0.61755  0.15149  0.77338  1.0000
  C   C2455     1.0  0.61922  0.14271  0.76744  1.0000
  C   C2456     1.0  0.61167  0.13584  0.76562  1.0000
  C   C2457     1.0  0.60243  0.13775  0.76952  1.0000
  C   C2458     1.0  0.60053  0.14619  0.77839  1.0000
  C   C2459     1.0  0.60808  0.15303  0.78056  1.0000
  H   H1969     1.0  0.62634  0.14124  0.76362  1.0000
  H   H1970     1.0  0.61308  0.12916  0.76010  1.0000
  H   H1971     1.0  0.59333  0.14757  0.78256  1.0000
  H   H1972     1.0  0.60658  0.15960  0.78686  1.0000
  H   H1973     1.0  0.59100  0.05452  0.77344  1.0000
  C   C2460     1.0  0.62586  0.10320  0.80102  1.0000
  C   C2461     1.0  0.63215  0.10036  0.82273  1.0000
  C   C2462     1.0  0.64013  0.10743  0.82111  1.0000
  C   C2463     1.0  0.64177  0.11739  0.79844  1.0000
  C   C2464     1.0  0.63535  0.12020  0.77741  1.0000
  C   C2465     1.0  0.62749  0.11315  0.77854  1.0000
  H   H1974     1.0  0.63110  0.09269  0.83933  1.0000
  H   H1975     1.0  0.64513  0.10517  0.83697  1.0000
  H   H1976     1.0  0.63645  0.12778  0.75997  1.0000
  H   H1977     1.0  0.62268  0.11543  0.76173  1.0000
  C   C2466     1.0  0.56195  0.06616  0.92130  1.0000
  C   C2467     1.0  0.56387  0.05751  0.91446  1.0000
  C   C2468     1.0  0.55614  0.04949  0.92239  1.0000
  C   C2469     1.0  0.54645  0.05020  0.93587  1.0000
  C   C2470     1.0  0.54458  0.05890  0.94220  1.0000
  C   C2471     1.0  0.55228  0.06680  0.93543  1.0000
  H   H1978     1.0  0.57130  0.05702  0.90244  1.0000
  H   H1979     1.0  0.55772  0.04282  0.91738  1.0000
  H   H1980     1.0  0.53723  0.05960  0.95238  1.0000
  H   H1981     1.0  0.55075  0.07344  0.94098  1.0000
  C   C2472     1.0  0.60640  0.08057  0.07352  1.0000
  C   C2473     1.0  0.60560  0.07045  0.08835  1.0000
  C   C2474     1.0  0.60493  0.06461  0.06319  1.0000
  C   C2475     1.0  0.60466  0.06873  0.02357  1.0000
  C   C2476     1.0  0.60519  0.07880  0.00918  1.0000
  C   C2477     1.0  0.60622  0.08469  0.03377  1.0000
  H   H1982     1.0  0.60584  0.06717  0.11868  1.0000
  H   H1983     1.0  0.60471  0.05687  0.07439  1.0000
  H   H1984     1.0  0.60521  0.08211  0.97852  1.0000
  H   H1985     1.0  0.60713  0.09253  0.02149  1.0000
  C   C2478     1.0  0.55798  0.13539  0.65546  1.0000
  C   C2479     1.0  0.55702  0.13966  0.61721  1.0000
  C   C2480     1.0  0.55639  0.13414  0.59091  1.0000
  C   C2481     1.0  0.55643  0.12417  0.60310  1.0000
  C   C2482     1.0  0.55730  0.11986  0.64150  1.0000
  C   C2483     1.0  0.55822  0.12546  0.66732  1.0000
  C   C2484     1.0  0.52183  0.02684  0.78157  1.0000
  H   H1986     1.0  0.55569  0.13754  0.56153  1.0000
  H   H1987     1.0  0.55724  0.11214  0.65144  1.0000
  H   H1988     1.0  0.55896  0.12205  0.69656  1.0000
  C   C2485     1.0  0.65430  0.14429  0.54103  1.0000
  C   C2486     1.0  0.65447  0.13986  0.58060  1.0000
  C   C2487     1.0  0.65707  0.14558  0.60395  1.0000
  C   C2488     1.0  0.65958  0.15585  0.58806  1.0000
  C   C2489     1.0  0.65926  0.16030  0.54869  1.0000
  C   C2490     1.0  0.65666  0.15458  0.52531  1.0000
  H   H1989     1.0  0.65278  0.13192  0.59297  1.0000
  H   H1990     1.0  0.65742  0.14202  0.63384  1.0000
  C   C2491     1.0  0.57579  0.01610  0.14435  1.0000
  H   H1991     1.0  0.65674  0.15813  0.49473  1.0000
  C   C2492     1.0  0.63243  0.11303  0.34160  1.0000
  C   C2493     1.0  0.62944  0.10295  0.34663  1.0000
  C   C2494     1.0  0.62528  0.09976  0.31962  1.0000
  C   C2495     1.0  0.62424  0.10661  0.28629  1.0000
  C   C2496     1.0  0.62745  0.11670  0.28065  1.0000
  C   C2497     1.0  0.63135  0.11988  0.30833  1.0000
  H   H1992     1.0  0.63032  0.09753  0.37181  1.0000
  H   H1993     1.0  0.62310  0.09202  0.32398  1.0000
  H   H1994     1.0  0.62673  0.12210  0.25503  1.0000
  H   H1995     1.0  0.63363  0.12765  0.30363  1.0000
  C   C2498     1.0  0.60855  0.14077  0.42566  1.0000
  C   C2499     1.0  0.60014  0.14343  0.41970  1.0000
  C   C2500     1.0  0.59365  0.13721  0.40959  1.0000
  C   C2501     1.0  0.59536  0.12821  0.40658  1.0000
  C   C2502     1.0  0.60409  0.12585  0.40983  1.0000
  C   C2503     1.0  0.61070  0.13214  0.41932  1.0000
  H   H1996     1.0  0.59865  0.15028  0.42298  1.0000
  H   H1997     1.0  0.58736  0.13943  0.40365  1.0000
  H   H1998     1.0  0.60554  0.11898  0.40670  1.0000
  H   H1999     1.0  0.61727  0.13012  0.42311  1.0000
  H   H2000     1.0  0.55001  0.02412  0.61281  1.0000
  H   H2001     1.0  0.53245  0.07800  0.98861  1.0000
  C   C2504     1.0  0.55202  0.02415  0.33395  1.0000
  Fe  Fe193     1.0  0.50391  0.04388  0.02016  1.0000
  S   S380      1.0  0.50708  0.07195  0.17699  1.0000
  H   H2002     1.0  0.59711  0.16734  0.72383  1.0000
  C   C2505     1.0  0.61087  0.16069  0.54373  1.0000
  H   H2003     1.0  0.57870  0.01866  0.19710  1.0000
  H   H2004     1.0  0.53609  0.03306  0.02962  1.0000
  C   C2506     1.0  0.62966  0.07950  0.01366  1.0000
  H   H2005     1.0  0.54339  0.15862  0.41695  1.0000
  C   C2507     1.0  0.57067  0.03628  0.16369  1.0000
  H   H2006     1.0  0.61397  0.01938  0.07671  1.0000
  H   H2007     1.0  0.53591  0.09128  0.01737  1.0000
  C   C2508     1.0  0.52443  0.09348  0.34871  1.0000
  C   C2509     1.0  0.52881  0.10344  0.34054  1.0000
  C   C2510     1.0  0.53408  0.10633  0.36481  1.0000
  C   C2511     1.0  0.53478  0.09933  0.39850  1.0000
  C   C2512     1.0  0.53056  0.08935  0.40621  1.0000
  C   C2513     1.0  0.52552  0.08642  0.38126  1.0000
  H   H2008     1.0  0.52800  0.10898  0.31558  1.0000
  H   H2009     1.0  0.53735  0.11398  0.35834  1.0000
  H   H2010     1.0  0.53105  0.08385  0.43210  1.0000
  H   H2011     1.0  0.52217  0.07875  0.38817  1.0000
  C   C2514     1.0  0.54763  0.06641  0.26385  1.0000
  C   C2515     1.0  0.54613  0.07328  0.28419  1.0000
  C   C2516     1.0  0.55418  0.08012  0.28304  1.0000
  C   C2517     1.0  0.56369  0.08006  0.26171  1.0000
  C   C2518     1.0  0.56507  0.07331  0.24085  1.0000
  C   C2519     1.0  0.55708  0.06662  0.24137  1.0000
  H   H2012     1.0  0.53880  0.07318  0.30148  1.0000
  H   H2013     1.0  0.55304  0.08528  0.29950  1.0000
  H   H2014     1.0  0.57227  0.07332  0.22353  1.0000
  H   H2015     1.0  0.55824  0.06156  0.22445  1.0000
  C   C2520     1.0  0.53059  0.04242  0.38273  1.0000
  C   C2521     1.0  0.58108  0.16070  0.38476  1.0000
  H   H2016     1.0  0.60665  0.10518  0.89839  1.0000
  C   C2522     1.0  0.53194  0.12489  0.00770  1.0000
  H   H2017     1.0  0.61339  0.12115  0.84224  1.0000
  C   C2523     1.0  0.53721  0.10847  0.08533  1.0000
  H   H2018     1.0  0.52179  0.01137  0.63258  1.0000
  C   C2524     1.0  0.50884  0.00951  0.19980  1.0000
  C   C2525     1.0  0.50765  0.10032  0.11047  1.0000
  H   H2019     1.0  0.58036  0.15343  0.40473  1.0000
  C   C2526     1.0  0.52655  0.01990  0.07612  1.0000
  C   C2527     1.0  0.52668  0.01415  0.93192  1.0000
  H   H2020     1.0  0.50960  0.04995  0.82052  1.0000
  C   C2528     1.0  0.52861  0.09145  0.10438  1.0000
  H   H2021     1.0  0.62881  0.13206  0.83545  1.0000
  C   C2529     1.0  0.51138  0.01920  0.54330  1.0000
  H   H2022     1.0  0.63079  0.15573  0.57073  1.0000
  H   H2023     1.0  0.51057  0.09465  0.12628  1.0000
  H   H2024     1.0  0.50783  0.07395  0.09451  1.0000
  C   C2530     1.0  0.64725  0.11470  0.92245  1.0000
  H   H2025     1.0  0.51331  0.01663  0.17922  1.0000
  C   C2531     1.0  0.55377  0.05576  0.66946  1.0000
  C   C2532     1.0  0.56354  0.05534  0.65593  1.0000
  C   C2533     1.0  0.56794  0.05105  0.68385  1.0000
  C   C2534     1.0  0.56262  0.04722  0.72531  1.0000
  C   C2535     1.0  0.55276  0.04737  0.73904  1.0000
  C   C2536     1.0  0.54841  0.05184  0.71093  1.0000
  P   P82       1.0  0.54599  0.04280  0.79265  1.0000
  C   C2537     1.0  0.55094  0.03366  0.82022  1.0000
  C   C2538     1.0  0.54690  0.05335  0.81014  1.0000
  C   C2539     1.0  0.53891  0.05751  0.82008  1.0000
  C   C2540     1.0  0.53977  0.06565  0.83369  1.0000
  C   C2541     1.0  0.54866  0.06975  0.83705  1.0000
  C   C2542     1.0  0.55671  0.06578  0.82650  1.0000
  C   C2543     1.0  0.55586  0.05764  0.81292  1.0000
  C   C2544     1.0  0.55388  0.02640  0.80426  1.0000
  C   C2545     1.0  0.55745  0.01913  0.82621  1.0000
  C   C2546     1.0  0.55802  0.01901  0.86436  1.0000
  C   C2547     1.0  0.55486  0.02607  0.88091  1.0000
  C   C2548     1.0  0.55128  0.03333  0.85901  1.0000
  C   C2549     1.0  0.53367  0.03628  0.80185  1.0000
  C   C2550     1.0  0.53136  0.03209  0.77362  1.0000
  C   C2551     1.0  0.51459  0.02558  0.81798  1.0000
  C   C2552     1.0  0.51696  0.02938  0.84679  1.0000
  C   C2553     1.0  0.52649  0.03454  0.83917  1.0000
  H   H2026     1.0  0.55036  0.05915  0.64790  1.0000
  H   H2027     1.0  0.56772  0.05838  0.62393  1.0000
  H   H2028     1.0  0.57547  0.05055  0.67353  1.0000
  H   H2029     1.0  0.56617  0.04405  0.74659  1.0000
  H   H2030     1.0  0.54088  0.05224  0.72115  1.0000
  H   H2031     1.0  0.53198  0.05446  0.81776  1.0000
  H   H2032     1.0  0.53349  0.06867  0.84236  1.0000
  H   H2033     1.0  0.54927  0.07590  0.84862  1.0000
  H   H2034     1.0  0.56354  0.06883  0.83007  1.0000
  H   H2035     1.0  0.56213  0.05454  0.80552  1.0000
  H   H2036     1.0  0.55357  0.02645  0.77454  1.0000
  H   H2037     1.0  0.56380  0.02861  0.01373  1.0000
  C   C2554     1.0  0.58110  0.03307  0.76037  1.0000
  H   H2038     1.0  0.55524  0.02598  0.91056  1.0000
  H   H2039     1.0  0.54876  0.03867  0.87240  1.0000
  H   H2040     1.0  0.53692  0.03264  0.74585  1.0000
  H   H2041     1.0  0.51143  0.02821  0.87533  1.0000
  H   H2042     1.0  0.52829  0.03707  0.86256  1.0000
  C   C2555     1.0  0.55956  0.08890  0.02892  1.0000
  H   H2043     1.0  0.62869  0.07725  0.92330  1.0000
  C   C2556     1.0  0.53264  0.03043  0.22402  1.0000
  H   H2044     1.0  0.55428  0.05751  0.08619  1.0000
  H   H2045     1.0  0.55609  0.10953  0.94310  1.0000
  C   C2557     1.0  0.52695  0.08194  0.99714  1.0000
  H   H2046     1.0  0.57789  0.03426  0.23105  1.0000
  C   C2558     1.0  0.60594  0.12266  0.31358  1.0000
  C   C2559     1.0  0.60406  0.11246  0.33011  1.0000
  C   C2560     1.0  0.59680  0.10641  0.32303  1.0000
  C   C2561     1.0  0.59121  0.11059  0.30026  1.0000
  C   C2562     1.0  0.59282  0.12086  0.28480  1.0000
  C   C2563     1.0  0.60042  0.12687  0.29055  1.0000
  P   P83       1.0  0.58602  0.12629  0.25354  1.0000
  C   C2564     1.0  0.59334  0.12810  0.20205  1.0000
  C   C2565     1.0  0.57416  0.11814  0.26846  1.0000
  C   C2566     1.0  0.57021  0.11596  0.23948  1.0000
  C   C2567     1.0  0.56086  0.10981  0.25195  1.0000
  C   C2568     1.0  0.55536  0.10597  0.29320  1.0000
  C   C2569     1.0  0.55920  0.10825  0.32204  1.0000
  C   C2570     1.0  0.56856  0.11430  0.30978  1.0000
  C   C2571     1.0  0.59428  0.11989  0.18913  1.0000
  C   C2572     1.0  0.60039  0.12111  0.15012  1.0000
  C   C2573     1.0  0.60562  0.13050  0.12379  1.0000
  C   C2574     1.0  0.60487  0.13868  0.13673  1.0000
  C   C2575     1.0  0.59887  0.13748  0.17591  1.0000
  C   C2576     1.0  0.58338  0.13738  0.26268  1.0000
  C   C2577     1.0  0.58092  0.14431  0.23382  1.0000
  C   C2578     1.0  0.57837  0.15264  0.24183  1.0000
  C   C2579     1.0  0.57797  0.15396  0.27915  1.0000
  C   C2580     1.0  0.58009  0.14694  0.30844  1.0000
  C   C2581     1.0  0.58277  0.13868  0.30037  1.0000
  H   H2047     1.0  0.61173  0.12727  0.31849  1.0000
  H   H2048     1.0  0.60847  0.10927  0.34734  1.0000
  H   H2049     1.0  0.59563  0.09850  0.33446  1.0000
  H   H2050     1.0  0.58575  0.10577  0.29441  1.0000
  H   H2051     1.0  0.60208  0.13479  0.27740  1.0000
  H   H2052     1.0  0.57431  0.11895  0.20742  1.0000
  H   H2053     1.0  0.55790  0.10791  0.22980  1.0000
  H   H2054     1.0  0.54106  0.09436  0.16926  1.0000
  H   H2055     1.0  0.55495  0.10527  0.35404  1.0000
  H   H2056     1.0  0.57146  0.11593  0.33260  1.0000
  H   H2057     1.0  0.59047  0.11253  0.20962  1.0000
  H   H2058     1.0  0.60127  0.11474  0.14074  1.0000
  H   H2059     1.0  0.61042  0.13143  0.09373  1.0000
  H   H2060     1.0  0.60912  0.14594  0.11668  1.0000
  H   H2061     1.0  0.59878  0.14385  0.18591  1.0000
  H   H2062     1.0  0.58091  0.14324  0.20526  1.0000
  C   C2582     1.0  0.67975  0.16499  0.24294  1.0000
  H   H2063     1.0  0.51334  0.00453  0.50475  1.0000
  H   H2064     1.0  0.57950  0.14781  0.33782  1.0000
  H   H2065     1.0  0.58414  0.13321  0.32406  1.0000
  C   C2583     1.0  0.58142  0.11404  0.71116  1.0000
  C   C2584     1.0  0.57386  0.10601  0.71835  1.0000
  C   C2585     1.0  0.57177  0.10386  0.68565  1.0000
  C   C2586     1.0  0.57734  0.10963  0.64576  1.0000
  C   C2587     1.0  0.58503  0.11766  0.63835  1.0000
  C   C2588     1.0  0.58687  0.11994  0.67149  1.0000
  P   P84       1.0  0.59257  0.12505  0.58713  1.0000
  C   C2589     1.0  0.60528  0.12746  0.58419  1.0000
  C   C2590     1.0  0.59124  0.11862  0.55184  1.0000
  C   C2591     1.0  0.59882  0.11476  0.53359  1.0000
  C   C2592     1.0  0.59771  0.10987  0.50604  1.0000
  C   C2593     1.0  0.58905  0.10880  0.49650  1.0000
  C   C2594     1.0  0.58155  0.11273  0.51416  1.0000
  C   C2595     1.0  0.58265  0.11769  0.54146  1.0000
  C   C2596     1.0  0.61220  0.13507  0.55140  1.0000
  C   C2597     1.0  0.62211  0.13664  0.54780  1.0000
  C   C2598     1.0  0.62519  0.13062  0.57688  1.0000
  C   C2599     1.0  0.61837  0.12289  0.60906  1.0000
  C   C2600     1.0  0.60849  0.12122  0.61252  1.0000
  C   C2601     1.0  0.58899  0.13647  0.57143  1.0000
  C   C2602     1.0  0.58359  0.14014  0.60016  1.0000
  C   C2603     1.0  0.58068  0.14887  0.58736  1.0000
  C   C2604     1.0  0.58303  0.15392  0.54591  1.0000
  C   C2605     1.0  0.58842  0.15033  0.51716  1.0000
  C   C2606     1.0  0.59138  0.14164  0.52983  1.0000
  H   H2066     1.0  0.58301  0.11578  0.73646  1.0000
  H   H2067     1.0  0.56957  0.10156  0.74928  1.0000
  H   H2068     1.0  0.56576  0.09779  0.69125  1.0000
  H   H2069     1.0  0.57551  0.10783  0.62107  1.0000
  H   H2070     1.0  0.59258  0.12623  0.66678  1.0000
  H   H2071     1.0  0.60568  0.11572  0.53965  1.0000
  H   H2072     1.0  0.60368  0.10723  0.49099  1.0000
  H   H2073     1.0  0.58831  0.10530  0.47411  1.0000
  H   H2074     1.0  0.57497  0.11217  0.50590  1.0000
  H   H2075     1.0  0.57681  0.12084  0.55427  1.0000
  H   H2076     1.0  0.61001  0.13967  0.52804  1.0000
  H   H2077     1.0  0.62744  0.14239  0.52191  1.0000
  H   H2078     1.0  0.63287  0.13181  0.57404  1.0000
  H   H2079     1.0  0.62075  0.11809  0.63104  1.0000
  H   H2080     1.0  0.60344  0.11495  0.63696  1.0000
  H   H2081     1.0  0.58140  0.13624  0.63241  1.0000
  H   H2082     1.0  0.57637  0.15155  0.60975  1.0000
  H   H2083     1.0  0.54496  0.13980  0.91105  1.0000
  H   H2084     1.0  0.59022  0.15419  0.48498  1.0000
  H   H2085     1.0  0.59544  0.13891  0.50704  1.0000
  C   C2607     1.0  0.56618  0.08326  0.10180  1.0000
  C   C2608     1.0  0.55318  0.13508  0.30904  1.0000
  C   C2609     1.0  0.63276  0.14167  0.66407  1.0000
  C   C2610     1.0  0.62372  0.13535  0.67321  1.0000
  C   C2611     1.0  0.61579  0.13916  0.66786  1.0000
  C   C2612     1.0  0.61692  0.14933  0.65348  1.0000
  C   C2613     1.0  0.62594  0.15578  0.64536  1.0000
  C   C2614     1.0  0.63389  0.15186  0.65031  1.0000
  H   H2086     1.0  0.62039  0.16612  0.48199  1.0000
  C   C2615     1.0  0.54053  0.12398  0.93011  1.0000
  C   C2616     1.0  0.57645  0.02538  0.29156  1.0000
  C   C2617     1.0  0.57896  0.02525  0.32643  1.0000
  H   H2087     1.0  0.61108  0.10036  0.55808  1.0000
  H   H2088     1.0  0.58661  0.08663  0.75122  1.0000
  C   C2618     1.0  0.57137  0.05440  0.35724  1.0000
  H   H2089     1.0  0.58821  0.04948  0.07311  1.0000
  C   C2619     1.0  0.60017  0.02337  0.09143  1.0000
  P   P85       1.0  0.52433  0.10458  0.04317  1.0000
  C   C2620     1.0  0.58852  0.03563  0.98681  1.0000
  C   C2621     1.0  0.62582  0.12517  0.86034  1.0000
  C   C2622     1.0  0.62187  0.15848  0.28122  1.0000
  H   H2090     1.0  0.66938  0.15288  0.29244  1.0000
  C   C2623     1.0  0.57275  0.05384  0.15160  1.0000
  H   H2091     1.0  0.67416  0.16747  0.23138  1.0000
  S   S381      1.0  0.56942  0.01479  0.28778  1.0000
  C   C2624     1.0  0.53128  0.11569  0.00164  1.0000
  H   H2092     1.0  0.63889  0.13865  0.66791  1.0000
  H   H2093     1.0  0.62285  0.12751  0.68491  1.0000
  H   H2094     1.0  0.60874  0.13423  0.67547  1.0000
  H   H2095     1.0  0.61073  0.15210  0.64865  1.0000
  H   H2096     1.0  0.64100  0.15663  0.64302  1.0000
  H   H2097     1.0  0.63190  0.09297  0.02687  1.0000
  H   H2098     1.0  0.54134  0.04925  0.55167  1.0000
  H   H2099     1.0  0.58568  0.02475  0.85002  1.0000
  C   C2625     1.0  0.68404  0.15349  0.29412  1.0000
  C   C2626     1.0  0.56812  0.04414  0.17613  1.0000
  C   C2627     1.0  0.50597  0.00392  0.10812  1.0000
  C   C2628     1.0  0.66654  0.12455  0.87374  1.0000
  C   C2629     1.0  0.50348  0.00872  0.23943  1.0000
  H   H2100     1.0  0.61500  0.05279  0.72964  1.0000
  C   C2630     1.0  0.61707  0.11904  0.86439  1.0000
  H   H2101     1.0  0.61181  0.05592  0.33570  1.0000
  C   C2631     1.0  0.58334  0.10017  0.92311  1.0000
  C   C2632     1.0  0.58739  0.10314  0.88088  1.0000
  C   C2633     1.0  0.59240  0.11290  0.85921  1.0000
  C   C2634     1.0  0.59347  0.11970  0.87973  1.0000
  C   C2635     1.0  0.58973  0.11670  0.92234  1.0000
  C   C2636     1.0  0.58434  0.10694  0.94380  1.0000
  P   P86       1.0  0.59108  0.12553  0.94869  1.0000
  C   C2637     1.0  0.59041  0.11948  0.00059  1.0000
  C   C2638     1.0  0.60286  0.13416  0.92298  1.0000
  C   C2639     1.0  0.61103  0.13248  0.93476  1.0000
  C   C2640     1.0  0.62001  0.13941  0.91589  1.0000
  C   C2641     1.0  0.62089  0.14804  0.88512  1.0000
  C   C2642     1.0  0.61280  0.14979  0.87341  1.0000
  C   C2643     1.0  0.60387  0.14281  0.89156  1.0000
  C   C2644     1.0  0.58615  0.12307  0.03188  1.0000
  C   C2645     1.0  0.58597  0.11860  0.07166  1.0000
  C   C2646     1.0  0.59000  0.11051  0.08056  1.0000
  C   C2647     1.0  0.59419  0.10684  0.04979  1.0000
  C   C2648     1.0  0.59449  0.11133  0.00988  1.0000
  C   C2649     1.0  0.58166  0.13223  0.94806  1.0000
  C   C2650     1.0  0.57327  0.12848  0.93996  1.0000
  C   C2651     1.0  0.56611  0.13379  0.93844  1.0000
  C   C2652     1.0  0.56727  0.14290  0.94474  1.0000
  C   C2653     1.0  0.57562  0.14672  0.95267  1.0000
  C   C2654     1.0  0.58278  0.14140  0.95450  1.0000
  H   H2102     1.0  0.57934  0.09261  0.93952  1.0000
  H   H2103     1.0  0.58657  0.09786  0.86497  1.0000
  H   H2104     1.0  0.59550  0.11518  0.82644  1.0000
  H   H2105     1.0  0.59730  0.12726  0.86217  1.0000
  H   H2106     1.0  0.58086  0.10454  0.97639  1.0000
  H   H2107     1.0  0.61056  0.12584  0.95822  1.0000
  H   H2108     1.0  0.62632  0.13804  0.92476  1.0000
  H   H2109     1.0  0.62787  0.15335  0.87001  1.0000
  H   H2110     1.0  0.61346  0.15654  0.84993  1.0000
  H   H2111     1.0  0.59778  0.14424  0.88110  1.0000
  H   H2112     1.0  0.58303  0.12937  0.02578  1.0000
  H   H2113     1.0  0.58276  0.12147  0.09559  1.0000
  H   H2114     1.0  0.58995  0.10708  0.11126  1.0000
  H   H2115     1.0  0.59734  0.10058  0.05702  1.0000
  H   H2116     1.0  0.59800  0.10853  0.98625  1.0000
  H   H2117     1.0  0.57235  0.12160  0.93369  1.0000
  H   H2118     1.0  0.55983  0.13099  0.93084  1.0000
  H   H2119     1.0  0.56186  0.14716  0.94206  1.0000
  H   H2120     1.0  0.57668  0.15394  0.95617  1.0000
  H   H2121     1.0  0.58927  0.14454  0.96011  1.0000
  C   C2655     1.0  0.56655  0.08102  0.65439  1.0000
  C   C2656     1.0  0.56100  0.07559  0.69464  1.0000
  C   C2657     1.0  0.55169  0.07687  0.71130  1.0000
  C   C2658     1.0  0.54783  0.08364  0.68791  1.0000
  P   P87       1.0  0.53611  0.08583  0.71105  1.0000
  C   C2659     1.0  0.53821  0.09474  0.73638  1.0000
  C   C2660     1.0  0.54501  0.09429  0.75753  1.0000
  C   C2661     1.0  0.54714  0.10155  0.77472  1.0000
  C   C2662     1.0  0.54252  0.10932  0.77091  1.0000
  C   C2663     1.0  0.53549  0.10964  0.75132  1.0000
  C   C2664     1.0  0.53322  0.10230  0.73464  1.0000
  C   C2665     1.0  0.53067  0.09040  0.67219  1.0000
  C   C2666     1.0  0.52277  0.09754  0.61018  1.0000
  C   C2667     1.0  0.51909  0.08784  0.63628  1.0000
  C   C2668     1.0  0.52300  0.08428  0.66719  1.0000
  H   H2122     1.0  0.57377  0.08001  0.64149  1.0000
  H   H2123     1.0  0.56391  0.07034  0.71299  1.0000
  H   H2124     1.0  0.54755  0.07266  0.74265  1.0000
  H   H2125     1.0  0.54867  0.08835  0.76094  1.0000
  H   H2126     1.0  0.55230  0.10116  0.79143  1.0000
  H   H2127     1.0  0.54425  0.11500  0.78394  1.0000
  H   H2128     1.0  0.53181  0.11560  0.74903  1.0000
  H   H2129     1.0  0.52764  0.10264  0.72015  1.0000
  H   H2130     1.0  0.51984  0.10028  0.58590  1.0000
  H   H2131     1.0  0.51322  0.08307  0.63246  1.0000
  H   H2132     1.0  0.51997  0.07676  0.68690  1.0000
  H   H2133     1.0  0.50406  0.08310  0.99503  1.0000
  C   C2669     1.0  0.63157  0.09100  0.93507  1.0000
  C   C2670     1.0  0.61840  0.10715  0.92309  1.0000
  C   C2671     1.0  0.66276  0.11497  0.87551  1.0000
  C   C2672     1.0  0.52840  0.03224  0.39144  1.0000
  C   C2673     1.0  0.51678  0.01414  0.94193  1.0000
  C   C2674     1.0  0.54759  0.07240  0.10051  1.0000
  C   C2675     1.0  0.54525  0.06727  0.14214  1.0000
  C   C2676     1.0  0.53565  0.06209  0.16511  1.0000
  C   C2677     1.0  0.52839  0.06189  0.14680  1.0000
  C   C2678     1.0  0.53071  0.06671  0.10522  1.0000
  C   C2679     1.0  0.54028  0.07195  0.08208  1.0000
  C   C2680     1.0  0.55701  0.10527  0.00385  1.0000
  C   C2681     1.0  0.55824  0.09785  0.03471  1.0000
  H   H2134     1.0  0.58749  0.08467  0.12407  1.0000
  H   H2135     1.0  0.57988  0.07943  0.07817  1.0000
  H   H2136     1.0  0.55078  0.06720  0.15700  1.0000
  H   H2137     1.0  0.53379  0.05814  0.19714  1.0000
  H   H2138     1.0  0.52099  0.05788  0.16498  1.0000
  H   H2139     1.0  0.52509  0.06638  0.09093  1.0000
  H   H2140     1.0  0.54191  0.07554  0.04985  1.0000
  H   H2141     1.0  0.55799  0.09906  0.06317  1.0000
  P   P88       1.0  0.58228  0.02838  0.11048  1.0000
  P   P89       1.0  0.53228  0.02274  0.27297  1.0000
  C   C2682     1.0  0.64426  0.11501  0.68326  1.0000
  S   S382      1.0  0.57648  0.02916  0.72421  1.0000
  C   C2683     1.0  0.59871  0.05404  0.38458  1.0000
  C   C2684     1.0  0.50411  0.05930  0.09131  1.0000
  C   C2685     1.0  0.57803  0.03814  0.12662  1.0000
  C   C2686     1.0  0.57207  0.02158  0.43857  1.0000
  C   C2687     1.0  0.61661  0.06077  0.71984  1.0000
  C   C2688     1.0  0.55440  0.02807  0.54766  1.0000
  H   H2142     1.0  0.53205  0.02089  0.92545  1.0000
  H   H2143     1.0  0.56715  0.09216  0.59982  1.0000
  C   C2689     1.0  0.53757  0.01330  0.44123  1.0000
  H   H2144     1.0  0.58327  0.01465  0.41493  1.0000
  C   C2690     1.0  0.53242  0.08899  0.13630  1.0000
  C   C2691     1.0  0.50925  0.10068  0.43286  1.0000
  H   H2145     1.0  0.52129  0.01964  0.06005  1.0000
  H   H2146     1.0  0.64664  0.09491  0.75076  1.0000
  C   C2692     1.0  0.51280  0.09234  0.01688  1.0000
  P   P90       1.0  0.50656  0.02251  0.50164  1.0000
  C   C2693     1.0  0.57372  0.06410  0.50992  1.0000
  H   H2147     1.0  0.53525  0.10839  0.95642  1.0000
  H   H2148     1.0  0.58058  0.16055  0.53612  1.0000
  C   C2694     1.0  0.65316  0.11005  0.89979  1.0000
  P   P91       1.0  0.63453  0.10882  0.95057  1.0000
  Fe  Fe194     1.0  0.56719  0.01608  0.71484  1.0000
  H   H2149     1.0  0.51072  0.12109  0.35673  1.0000
  C   C2695     1.0  0.62742  0.11312  0.91832  1.0000
  H   H2150     1.0  0.57089  0.05990  0.16168  1.0000
  H   H2151     1.0  0.61622  0.11204  0.99733  1.0000
  C   C2696     1.0  0.62153  0.11298  0.01267  1.0000
  H   H2152     1.0  0.64668  0.12813  0.93735  1.0000
  H   H2153     1.0  0.57897  0.01865  0.80221  1.0000
  C   C2697     1.0  0.52400  0.03215  0.21653  1.0000
  H   H2154     1.0  0.63313  0.08696  0.73322  1.0000
  C   C2698     1.0  0.66076  0.12920  0.89656  1.0000
  H   H2155     1.0  0.59671  0.03630  0.02741  1.0000
  H   H2156     1.0  0.54111  0.01284  0.33147  1.0000
  C   C2699     1.0  0.54216  0.02793  0.07743  1.0000
  H   H2157     1.0  0.56738  0.09412  0.36638  1.0000
  C   C2700     1.0  0.57176  0.09014  0.38152  1.0000
  C   C2701     1.0  0.59350  0.05836  0.41082  1.0000
  C   C2702     1.0  0.62530  0.11554  0.07117  1.0000
  C   C2703     1.0  0.54079  0.02077  0.11450  1.0000
  C   C2704     1.0  0.60985  0.02389  0.09047  1.0000
  H   H2158     1.0  0.56541  0.02591  0.08234  1.0000
  H   H2159     1.0  0.62863  0.15625  0.27960  1.0000
  C   C2705     1.0  0.62329  0.07654  0.66621  1.0000
  C   C2706     1.0  0.50740  0.10665  0.39960  1.0000
  H   H2160     1.0  0.59550  0.04681  0.38461  1.0000
  H   H2161     1.0  0.61328  0.14441  0.32440  1.0000
  S   S383      1.0  0.56209  0.15392  0.38636  1.0000
  C   C2707     1.0  0.63241  0.10037  0.69064  1.0000
  H   H2162     1.0  0.56241  0.03679  0.33042  1.0000
  C   C2708     1.0  0.60404  0.16375  0.28816  1.0000
  C   C2709     1.0  0.55706  0.10381  0.96707  1.0000
  H   H2163     1.0  0.53132  0.00769  0.16121  1.0000
  C   C2710     1.0  0.55354  0.08919  0.64764  1.0000
  C   C2711     1.0  0.60350  0.09160  0.42665  1.0000
  P   P92       1.0  0.56001  0.07887  0.07020  1.0000
  S   S384      1.0  0.55889  0.14275  0.68713  1.0000
  C   C2712     1.0  0.56282  0.08782  0.63091  1.0000
  H   H2164     1.0  0.59504  0.02201  0.44340  1.0000
  H   H2165     1.0  0.54815  0.10114  0.30290  1.0000
  H   H2166     1.0  0.54666  0.02783  0.41100  1.0000
  C   C2713     1.0  0.58020  0.08552  0.12533  1.0000
  H   H2167     1.0  0.55683  0.14733  0.60771  1.0000
  Fe  Fe195     1.0  0.56575  0.14421  0.81782  1.0000
  S   S385      1.0  0.57520  0.14713  0.75338  1.0000
  C   C2714     1.0  0.58253  0.04790  0.10190  1.0000
  C   C2715     1.0  0.51280  0.10642  0.07032  1.0000
  H   H2168     1.0  0.54811  0.03215  0.19670  1.0000
  C   C2716     1.0  0.60425  0.15430  0.30997  1.0000
  H   H2169     1.0  0.53204  0.02908  0.36941  1.0000
  H   H2170     1.0  0.67405  0.16498  0.35558  1.0000
  C   C2717     1.0  0.53307  0.04052  0.14523  1.0000
  H   H2171     1.0  0.52601  0.02835  0.50956  1.0000
  H   H2172     1.0  0.54171  0.03760  0.61567  1.0000
  H   H2173     1.0  0.63895  0.15898  0.49894  1.0000
  H   H2174     1.0  0.55800  0.13222  0.25238  1.0000
  H   H2175     1.0  0.56696  0.04268  0.58918  1.0000
  H   H2176     1.0  0.55096  0.09466  0.62892  1.0000
  C   C2718     1.0  0.58119  0.03037  0.06029  1.0000
  C   C2719     1.0  0.55955  0.08749  0.99189  1.0000
  C   C2720     1.0  0.55835  0.09493  0.96109  1.0000
  C   C2721     1.0  0.54518  0.13537  0.33996  1.0000
  C   C2722     1.0  0.62046  0.08140  0.69464  1.0000
  C   C2723     1.0  0.57096  0.03006  0.01719  1.0000
  H   H2177     1.0  0.57860  0.03474  0.95258  1.0000
  C   C2724     1.0  0.52060  0.11467  0.43273  1.0000
  H   H2178     1.0  0.61248  0.16253  0.69928  1.0000
  C   C2725     1.0  0.53420  0.10017  0.64614  1.0000
  C   C2726     1.0  0.53029  0.10371  0.61526  1.0000
  C   C2727     1.0  0.56601  0.07043  0.05027  1.0000
  H   H2179     1.0  0.68184  0.14717  0.32147  1.0000
  C   C2728     1.0  0.61589  0.07582  0.73591  1.0000
  C   C2729     1.0  0.58147  0.02646  0.79593  1.0000
  C   C2730     1.0  0.54524  0.03684  0.58646  1.0000
  C   C2731     1.0  0.52177  0.09467  0.02351  1.0000
  H   H2180     1.0  0.60020  0.15666  0.60315  1.0000
  C   C2732     1.0  0.57523  0.08958  0.15319  1.0000
  C   C2733     1.0  0.56153  0.06033  0.06439  1.0000
  H   H2181     1.0  0.56034  0.08059  0.98675  1.0000
  H   H2182     1.0  0.55841  0.09382  0.93244  1.0000
  H   H2183     1.0  0.62079  0.09954  0.46535  1.0000
  H   H2184     1.0  0.61627  0.16460  0.35358  1.0000
  C   C2734     1.0  0.58870  0.04011  0.81557  1.0000
  C   C2735     1.0  0.60194  0.09054  0.71673  1.0000
  C   C2736     1.0  0.58829  0.04672  0.78012  1.0000
  C   C2737     1.0  0.58949  0.03421  0.02534  1.0000
  C   C2738     1.0  0.57190  0.02855  0.05585  1.0000
  C   C2739     1.0  0.63336  0.16330  0.55111  1.0000
  C   C2740     1.0  0.52811  0.07437  0.74706  1.0000
  H   H2185     1.0  0.53260  0.06577  0.70804  1.0000
  H   H2186     1.0  0.52749  0.05445  0.40397  1.0000
  C   C2741     1.0  0.57532  0.07388  0.02100  1.0000
  H   H2187     1.0  0.57866  0.09183  0.17356  1.0000
  H   H2188     1.0  0.57888  0.08165  0.00910  1.0000
  H   H2189     1.0  0.51450  0.02084  0.94284  1.0000
  C   C2742     1.0  0.60330  0.16209  0.57308  1.0000
  C   C2743     1.0  0.54114  0.13309  0.93637  1.0000
  H   H2190     1.0  0.52170  0.08071  0.79293  1.0000
  H   H2191     1.0  0.54007  0.10507  0.64934  1.0000
  H   H2192     1.0  0.53324  0.11122  0.59490  1.0000
  H   H2193     1.0  0.55416  0.01924  0.35640  1.0000
  C   C2744     1.0  0.56122  0.08727  0.13024  1.0000
  C   C2745     1.0  0.56644  0.05377  0.05040  1.0000
  H   H2194     1.0  0.56305  0.04600  0.06152  1.0000
  C   C2746     1.0  0.63247  0.09558  0.96400  1.0000
  H   H2195     1.0  0.56104  0.01355  0.88076  1.0000
  H   H2196     1.0  0.55592  0.11213  0.00847  1.0000
  C   C2747     1.0  0.58467  0.04321  0.75256  1.0000
  C   C2748     1.0  0.54997  0.02925  0.58492  1.0000
  C   C2749     1.0  0.58795  0.02372  0.44801  1.0000
  C   C2750     1.0  0.54483  0.02057  0.31897  1.0000
  C   C2751     1.0  0.52169  0.07413  0.78419  1.0000
  C   C2752     1.0  0.52784  0.06568  0.73689  1.0000
  C   C2753     1.0  0.51871  0.04047  0.44734  1.0000
  C   C2754     1.0  0.56573  0.09044  0.15573  1.0000
  C   C2755     1.0  0.57586  0.05723  0.02253  1.0000
  C   C2756     1.0  0.58028  0.06727  0.00786  1.0000
  H   H2197     1.0  0.55376  0.08767  0.13343  1.0000
  C   C2757     1.0  0.55181  0.13269  0.27562  1.0000
  H   H2198     1.0  0.59753  0.14907  0.33002  1.0000
  H   H2199     1.0  0.52850  0.12539  0.03744  1.0000
  C   C2758     1.0  0.51777  0.14070  0.35461  1.0000
  H   H2200     1.0  0.56043  0.05674  0.55990  1.0000
  C   C2759     1.0  0.52887  0.08945  0.01338  1.0000
  C   C2760     1.0  0.52582  0.04653  0.41089  1.0000
  H   H2201     1.0  0.54134  0.12871  0.24713  1.0000
  H   H2202     1.0  0.57981  0.05214  0.01262  1.0000
  H   H2203     1.0  0.58760  0.06991  0.98655  1.0000
  H   H2204     1.0  0.57070  0.07011  0.49749  1.0000
  S   S386      1.0  0.56440  0.15572  0.85059  1.0000
  S   S387      1.0  0.59649  0.05255  0.29536  1.0000
  C   C2761     1.0  0.54104  0.10596  0.11732  1.0000
  H   H2205     1.0  0.62694  0.08066  0.63434  1.0000
  C   C2762     1.0  0.54242  0.02700  0.28841  1.0000
  H   H2206     1.0  0.53589  0.04710  0.35388  1.0000
  C   C2763     1.0  0.52172  0.02272  0.31234  1.0000
  H   H2207     1.0  0.66718  0.11147  0.85705  1.0000
  H   H2208     1.0  0.56177  0.09325  0.17848  1.0000
  C   C2764     1.0  0.54244  0.13075  0.27265  1.0000
  H   H2209     1.0  0.61548  0.10009  0.94679  1.0000
  H   H2210     1.0  0.58391  0.04215  0.55602  1.0000
  H   H2211     1.0  0.64171  0.11164  0.53341  1.0000
  H   H2212     1.0  0.52722  0.12957  0.30050  1.0000
  C   C2765     1.0  0.62136  0.06626  0.67884  1.0000
  H   H2213     1.0  0.51970  0.16038  0.27358  1.0000
  H   H2214     1.0  0.61224  0.04074  0.13908  1.0000
  C   C2766     1.0  0.52119  0.05690  0.76327  1.0000
  H   H2215     1.0  0.51755  0.03851  0.17153  1.0000
  H   H2216     1.0  0.53033  0.08147  0.15655  1.0000
  H   H2217     1.0  0.56706  0.01835  0.42566  1.0000
  H   H2218     1.0  0.56045  0.13655  0.31128  1.0000
  H   H2219     1.0  0.62864  0.07502  0.04445  1.0000
  C   C2767     1.0  0.51616  0.03024  0.45548  1.0000
  H   H2220     1.0  0.62301  0.11664  0.10052  1.0000
  H   H2221     1.0  0.54380  0.12361  0.89998  1.0000
  H   H2222     1.0  0.54641  0.13680  0.36638  1.0000
  H   H2223     1.0  0.57653  0.01857  0.35217  1.0000
  H   H2224     1.0  0.51651  0.07407  0.97731  1.0000
  H   H2225     1.0  0.52987  0.15037  0.30247  1.0000
  H   H2226     1.0  0.56276  0.04271  0.20538  1.0000
  C   C2768     1.0  0.53445  0.13125  0.30300  1.0000
  C   C2769     1.0  0.63103  0.12221  0.88690  1.0000
  H   H2227     1.0  0.50507  0.06180  0.05914  1.0000
  H   H2228     1.0  0.56499  0.06467  0.32378  1.0000
  C   C2770     1.0  0.51505  0.06534  0.81045  1.0000
  C   C2771     1.0  0.54146  0.03372  0.19171  1.0000
  C   C2772     1.0  0.53575  0.13362  0.33683  1.0000
  H   H2229     1.0  0.59587  0.16592  0.38205  1.0000
  H   H2230     1.0  0.57586  0.16034  0.28577  1.0000
  H   H2231     1.0  0.53739  0.14063  0.97998  1.0000
  H   H2232     1.0  0.58719  0.03346  0.35369  1.0000
  H   H2233     1.0  0.52011  0.02360  0.75976  1.0000
  C   C2773     1.0  0.61332  0.11005  0.89590  1.0000
  C   C2774     1.0  0.50443  0.06306  0.15331  1.0000
  C   C2775     1.0  0.50561  0.06618  0.11151  1.0000
  H   H2234     1.0  0.54535  0.04209  0.25058  1.0000
  H   H2235     1.0  0.50720  0.02149  0.82427  1.0000
  H   H2236     1.0  0.64494  0.11179  0.00689  1.0000
  C   C2776     1.0  0.52208  0.14860  0.31819  1.0000
  C   C2777     1.0  0.54499  0.04334  0.55050  1.0000
  C   C2778     1.0  0.70107  0.16368  0.10432  1.0000
  H   H2237     1.0  0.61131  0.11533  0.06262  1.0000
  C   C2779     1.0  0.62966  0.08076  0.94543  1.0000
  H   H2238     1.0  0.54631  0.02106  0.12934  1.0000
  H   H2239     1.0  0.70355  0.15695  0.10676  1.0000
  C   C2780     1.0  0.51094  0.08486  0.00055  1.0000
  C   C2781     1.0  0.59348  0.09203  0.74111  1.0000
  H   H2240     1.0  0.60146  0.08395  0.70810  1.0000
  H   H2241     1.0  0.58816  0.04923  0.23322  1.0000
  H   H2242     1.0  0.58751  0.10122  0.77441  1.0000
  H   H2243     1.0  0.51618  0.12895  0.46515  1.0000
  S   S388      1.0  0.53493  0.01904  0.69310  1.0000
  C   C2782     1.0  0.63106  0.11208  0.99638  1.0000
  C   C2783     1.0  0.56364  0.05837  0.35041  1.0000
  C   C2784     1.0  0.57327  0.16292  0.37161  1.0000
  C   C2785     1.0  0.57447  0.08214  0.37106  1.0000
  C   C2786     1.0  0.53566  0.11531  0.96251  1.0000
  P   P93       1.0  0.52517  0.13355  0.37677  1.0000
  H   H2244     1.0  0.60872  0.09412  0.63146  1.0000
  C   C2787     1.0  0.53488  0.00479  0.47480  1.0000
  C   C2788     1.0  0.52423  0.03718  0.17723  1.0000
  C   C2789     1.0  0.54168  0.03884  0.15259  1.0000
  Fe  Fe196     1.0  0.56519  0.00762  0.64526  1.0000
  C   C2790     1.0  0.52229  0.13527  0.45423  1.0000
  H   H2245     1.0  0.55799  0.04820  0.27798  1.0000
  H   H2246     1.0  0.51006  0.06520  0.83897  1.0000
  C   C2791     1.0  0.52798  0.13908  0.41291  1.0000
  H   H2247     1.0  0.54826  0.05735  0.37211  1.0000
  C   C2792     1.0  0.57127  0.00366  0.21086  1.0000
  C   C2793     1.0  0.50841  0.11324  0.05028  1.0000
  P   P94       1.0  0.62215  0.09462  0.67859  1.0000
  C   C2794     1.0  0.61725  0.10148  0.56887  1.0000
  H   H2248     1.0  0.58625  0.05437  0.43114  1.0000
  C   C2795     1.0  0.61393  0.06555  0.74837  1.0000
  C   C2796     1.0  0.56971  0.04630  0.39164  1.0000
  C   C2797     1.0  0.51204  0.11667  0.38322  1.0000
  C   C2798     1.0  0.52442  0.13964  0.48202  1.0000
  C   C2799     1.0  0.51477  0.05674  0.80000  1.0000
  C   C2800     1.0  0.58130  0.01954  0.43209  1.0000
  H   H2249     1.0  0.56005  0.01377  0.81302  1.0000
  H   H2250     1.0  0.55010  0.01165  0.52373  1.0000
  C   C2801     1.0  0.59396  0.10028  0.75400  1.0000
  C   C2802     1.0  0.63149  0.08973  0.00347  1.0000
  C   C2803     1.0  0.51860  0.12079  0.39998  1.0000
  C   C2804     1.0  0.53539  0.14773  0.39952  1.0000
  C   C2805     1.0  0.61423  0.03019  0.10737  1.0000
  C   C2806     1.0  0.61595  0.09793  0.61048  1.0000
  H   H2251     1.0  0.62752  0.10939  0.50897  1.0000
  S   S389      1.0  0.55159  0.00821  0.75278  1.0000
  C   C2807     1.0  0.61129  0.10570  0.71711  1.0000
  H   H2252     1.0  0.53966  0.15108  0.36766  1.0000
  C   C2808     1.0  0.57928  0.03350  0.98270  1.0000
  Fe  Fe197     1.0  0.50206  0.05420  0.32758  1.0000
  C   C2809     1.0  0.59483  0.02927  0.10882  1.0000
  C   C2810     1.0  0.54930  0.04210  0.51310  1.0000
  C   C2811     1.0  0.53234  0.01093  0.26590  1.0000
  C   C2812     1.0  0.62651  0.10650  0.54118  1.0000
  C   C2813     1.0  0.57549  0.01336  0.18516  1.0000
  H   H2253     1.0  0.53384  0.15132  0.49019  1.0000
  C   C2814     1.0  0.58334  0.16262  0.85083  1.0000
  C   C2815     1.0  0.62873  0.07501  0.98469  1.0000
  H   H2254     1.0  0.52616  0.11746  0.44428  1.0000
  H   H2255     1.0  0.61004  0.08037  0.37980  1.0000
  H   H2256     1.0  0.54894  0.04721  0.48597  1.0000
  C   C2816     1.0  0.52489  0.02026  0.57033  1.0000
  H   H2257     1.0  0.54812  0.01343  0.24633  1.0000
  C   C2817     1.0  0.64707  0.16657  0.23920  1.0000
  H   H2258     1.0  0.60321  0.11356  0.75163  1.0000
  C   C2818     1.0  0.61100  0.09724  0.70547  1.0000
  C   C2819     1.0  0.60347  0.07872  0.48546  1.0000
  C   C2820     1.0  0.62394  0.09928  0.62469  1.0000
  C   C2821     1.0  0.69664  0.16668  0.24040  1.0000
  C   C2822     1.0  0.50176  0.01202  0.10662  1.0000
  C   C2823     1.0  0.55386  0.03430  0.51142  1.0000
  H   H2259     1.0  0.62350  0.06252  0.65684  1.0000
  C   C2824     1.0  0.51579  0.10470  0.44958  1.0000
  H   H2260     1.0  0.52017  0.13652  0.51399  1.0000
  H   H2261     1.0  0.57270  0.09930  0.41900  1.0000
  H   H2262     1.0  0.51762  0.09997  0.47396  1.0000
  C   C2825     1.0  0.54645  0.01240  0.50112  1.0000
  C   C2826     1.0  0.60282  0.10722  0.74124  1.0000
  H   H2263     1.0  0.59047  0.03300  0.48354  1.0000
  H   H2264     1.0  0.51940  0.01834  0.43287  1.0000
  C   C2827     1.0  0.52509  0.01271  0.11348  1.0000
  C   C2828     1.0  0.55430  0.04052  0.28916  1.0000
  H   H2265     1.0  0.52094  0.05021  0.75530  1.0000
  C   C2829     1.0  0.57619  0.03206  0.47675  1.0000
  C   C2830     1.0  0.63765  0.11282  0.01814  1.0000
  C   C2831     1.0  0.69386  0.15848  0.27547  1.0000
  H   H2266     1.0  0.50723  0.09629  0.02393  1.0000
  H   H2267     1.0  0.51706  0.02950  0.24079  1.0000
  H   H2268     1.0  0.50073  0.02338  0.40322  1.0000
  H   H2269     1.0  0.61813  0.11080  0.70993  1.0000
  S   S390      1.0  0.56320  0.02161  0.65793  1.0000
  H   H2270     1.0  0.54506  0.04278  0.43258  1.0000
  C   C2832     1.0  0.58537  0.02992  0.47060  1.0000
  H   H2271     1.0  0.57439  0.03704  0.49359  1.0000
  C   C2833     1.0  0.51177  0.03185  0.34625  1.0000
  C   C2834     1.0  0.63452  0.10773  0.55496  1.0000
  C   C2835     1.0  0.52118  0.02314  0.53824  1.0000
  C   C2836     1.0  0.65396  0.16129  0.22799  1.0000
  C   C2837     1.0  0.61476  0.09467  0.46282  1.0000
  C   C2838     1.0  0.55420  0.05420  0.37777  1.0000
  C   C2839     1.0  0.55246  0.04602  0.41209  1.0000
  H   H2272     1.0  0.61397  0.10536  0.41024  1.0000
  H   H2273     1.0  0.61400  0.08254  0.51415  1.0000
  H   H2274     1.0  0.63385  0.11510  0.65151  1.0000
  H   H2275     1.0  0.61369  0.15423  0.55117  1.0000
  C   C2840     1.0  0.56947  0.02787  0.46090  1.0000
  H   H2276     1.0  0.51883  0.00733  0.34555  1.0000
  C   C2841     1.0  0.57212  0.00884  0.12942  1.0000
  C   C2842     1.0  0.54718  0.03700  0.27374  1.0000
  C   C2843     1.0  0.61093  0.09795  0.43153  1.0000
  H   H2277     1.0  0.53322  0.04441  0.11479  1.0000
  C   C2844     1.0  0.61096  0.08509  0.49006  1.0000
  C   C2845     1.0  0.54899  0.02113  0.46810  1.0000
  C   C2846     1.0  0.54457  0.02146  0.43783  1.0000
  H   H2278     1.0  0.55811  0.02215  0.54749  1.0000
  C   C2847     1.0  0.56023  0.04204  0.41969  1.0000
  C   C2848     1.0  0.58556  0.04262  0.25938  1.0000
  P   P95       1.0  0.55812  0.03154  0.46455  1.0000
  C   C2849     1.0  0.67701  0.15669  0.27766  1.0000
  S   S391      1.0  0.57269  0.00835  0.58017  1.0000
  H   H2279     1.0  0.57221  0.07998  0.34774  1.0000
  H   H2280     1.0  0.59495  0.03858  0.95989  1.0000
  C   C2850     1.0  0.58530  0.02996  0.82307  1.0000
  H   H2281     1.0  0.64731  0.12288  0.67021  1.0000
  H   H2282     1.0  0.60082  0.07128  0.50628  1.0000
  H   H2283     1.0  0.57869  0.05758  0.33567  1.0000
  C   C2851     1.0  0.63657  0.11055  0.67299  1.0000
  H   H2284     1.0  0.60094  0.09416  0.40110  1.0000
  H   H2285     1.0  0.54851  0.04128  0.12792  1.0000
  H   H2286     1.0  0.61375  0.07941  0.75844  1.0000
  C   C2852     1.0  0.59972  0.08190  0.45347  1.0000
  C   C2853     1.0  0.50900  0.01431  0.37727  1.0000
  C   C2854     1.0  0.50653  0.02317  0.37784  1.0000
  H   H2287     1.0  0.57589  0.04341  0.39562  1.0000
  H   H2288     1.0  0.59440  0.05552  0.49358  1.0000
  C   C2855     1.0  0.63330  0.10394  0.59642  1.0000
  H   H2289     1.0  0.57278  0.01050  0.09765  1.0000
  H   H2290     1.0  0.51004  0.03875  0.34753  1.0000
  C   C2856     1.0  0.58835  0.04240  0.29373  1.0000
  H   H2291     1.0  0.50382  0.01513  0.24932  1.0000
  H   H2292     1.0  0.61027  0.06127  0.78020  1.0000
  C   C2857     1.0  0.58700  0.05590  0.50782  1.0000
  C   C2858     1.0  0.64793  0.10936  0.71107  1.0000
  H   H2293     1.0  0.65370  0.11287  0.71994  1.0000
  H   H2294     1.0  0.51198  0.11768  0.01870  1.0000
  C   C2859     1.0  0.58109  0.04831  0.54314  1.0000
  H   H2295     1.0  0.61899  0.07275  0.33308  1.0000
  P   P96       1.0  0.59088  0.07342  0.44412  1.0000
  C   C2860     1.0  0.60681  0.07298  0.38186  1.0000
  C   C2861     1.0  0.58498  0.03370  0.32725  1.0000
  C   C2862     1.0  0.51667  0.01412  0.34489  1.0000
  C   C2863     1.0  0.61195  0.06868  0.35533  1.0000
  H   H2296     1.0  0.58264  0.09022  0.45360  1.0000
  C   C2864     1.0  0.63624  0.09475  0.71831  1.0000
  C   C2865     1.0  0.58335  0.06385  0.49082  1.0000
  C   C2866     1.0  0.51936  0.03165  0.31363  1.0000
  C   C2867     1.0  0.56785  0.05651  0.54530  1.0000
  C   C2868     1.0  0.59759  0.06782  0.41011  1.0000
  C   C2869     1.0  0.55673  0.03410  0.31917  1.0000
  C   C2870     1.0  0.64396  0.09924  0.72840  1.0000
  C   C2871     1.0  0.58339  0.07997  0.41957  1.0000
  C   C2872     1.0  0.58044  0.08789  0.43057  1.0000
  H   H2297     1.0  0.58227  0.07090  0.38123  1.0000
  S   S392      1.0  0.66369  0.16337  0.61522  1.0000
  H   H2298     1.0  0.63969  0.10474  0.60607  1.0000
  C   C2873     1.0  0.58023  0.07703  0.39010  1.0000
  H   H2299     1.0  0.52353  0.03848  0.28994  1.0000
  C   C2874     1.0  0.60792  0.05919  0.35688  1.0000
  C   C2875     1.0  0.57152  0.04860  0.56182  1.0000
  C   C2876     1.0  0.57473  0.09301  0.41126  1.0000
  Fe  Fe198     1.0  0.50167  0.03673  0.94770  1.0000
  C   C2877     1.0  0.53848  0.09626  0.14332  1.0000
  H   H2300     1.0  0.63802  0.12694  0.88156  1.0000
  H   H2301     1.0  0.70176  0.16640  0.04171  1.0000
  C   C2878     1.0  0.61314  0.15167  0.30661  1.0000
  C   C2879     1.0  0.52121  0.02617  0.42760  1.0000
  C   C2880     1.0  0.51799  0.07969  0.99072  1.0000
  C   C2881     1.0  0.63478  0.11457  0.05531  1.0000
  H   H2302     1.0  0.67389  0.12845  0.85400  1.0000
  C   C2882     1.0  0.53690  0.13354  0.97522  1.0000
  H   H2303     1.0  0.65729  0.15782  0.24977  1.0000
  C   C2883     1.0  0.53746  0.15212  0.42736  1.0000
  C   C2884     1.0  0.65116  0.12429  0.92089  1.0000
  C   C2885     1.0  0.54125  0.00860  0.25057  1.0000
  H   H2304     1.0  0.53246  0.02321  0.56625  1.0000
  H   H2305     1.0  0.63983  0.11495  0.07232  1.0000
  C   C2886     1.0  0.61870  0.11480  0.04975  1.0000
  H   H2306     1.0  0.62696  0.06706  0.99302  1.0000
  H   H2307     1.0  0.54575  0.11159  0.12277  1.0000
  C   C2887     1.0  0.51635  0.15433  0.30186  1.0000
  Fe  Fe199     1.0  0.54803  0.01297  0.69521  1.0000
  H   H2308     1.0  0.63218  0.09533  0.90467  1.0000
  C   C2888     1.0  0.57993  0.05571  0.11440  1.0000
  C   C2889     1.0  0.53503  0.02752  0.05844  1.0000
  H   H2309     1.0  0.66364  0.13670  0.89450  1.0000
  C   C2890     1.0  0.60890  0.03593  0.12551  1.0000
  H   H2310     1.0  0.65034  0.10274  0.89982  1.0000
  C   C2891     1.0  0.51887  0.01353  0.60773  1.0000
  H   H2311     1.0  0.57661  0.15805  0.21928  1.0000
  C   C2892     1.0  0.51561  0.00999  0.71473  1.0000
  C   C2893     1.0  0.69895  0.16707  0.13774  1.0000
  H   H2312     1.0  0.52352  0.08574  0.10097  1.0000
  H   H2313     1.0  0.63404  0.16547  0.33714  1.0000
  H   H2314     1.0  0.68172  0.16863  0.54468  1.0000
  H   H2315     1.0  0.66173  0.15625  0.18064  1.0000
  S   S393      1.0  0.65931  0.16769  0.31500  1.0000
  C   C2894     1.0  0.59921  0.03544  0.12651  1.0000
  H   H2316     1.0  0.58558  0.15750  0.83543  1.0000
  H   H2317     1.0  0.53905  0.11607  0.06649  1.0000
  C   C2895     1.0  0.53080  0.10125  0.07913  1.0000
  H   H2318     1.0  0.58364  0.06320  0.09534  1.0000
  H   H2319     1.0  0.59521  0.03984  0.14143  1.0000
  C   C2896     1.0  0.57353  0.16312  0.86175  1.0000
  H   H2320     1.0  0.53451  0.01337  0.41695  1.0000
  H   H2321     1.0  0.51501  0.04381  0.46861  1.0000
  C   C2897     1.0  0.53207  0.14801  0.46864  1.0000
  H   H2322     1.0  0.69931  0.15598  0.28822  1.0000
  H   H2323     1.0  0.50512  0.00765  0.40242  1.0000
  Fe  Fe200     1.0  0.66262  0.16367  0.76204  1.0000
  C   C2898     1.0  0.65642  0.16040  0.18918  1.0000
  H   H2324     1.0  0.68559  0.15952  0.49590  1.0000
  C   C2899     1.0  0.50150  0.05297  0.17490  1.0000
  C   C2900     1.0  0.63804  0.16511  0.50991  1.0000
  H   H2325     1.0  0.51665  0.00629  0.28170  1.0000
  C   C2901     1.0  0.52358  0.00454  0.27069  1.0000
  C   C2902     1.0  0.50645  0.00357  0.49873  1.0000
  C   C2903     1.0  0.50776  0.13889  0.37538  1.0000
  H   H2326     1.0  0.63967  0.16601  0.88466  1.0000
  H   H2327     1.0  0.59714  0.16583  0.29131  1.0000
  C   C2904     1.0  0.58990  0.16787  0.37205  1.0000
  H   H2328     1.0  0.64522  0.16712  0.26953  1.0000
  C   C2905     1.0  0.50148  0.01114  0.49521  1.0000
  C   C2906     1.0  0.50916  0.00945  0.61286  1.0000
  H   H2329     1.0  0.68813  0.16763  0.42275  1.0000
  H   H2330     1.0  0.50266  0.10341  0.38558  1.0000
  C   C2907     1.0  0.50545  0.01216  0.58061  1.0000
  H   H2331     1.0  0.50044  0.05045  0.20714  1.0000
  C   C2908     1.0  0.68503  0.16706  0.48522  1.0000
  H   H2332     1.0  0.58126  0.00478  0.50597  1.0000
  C   C2909     1.0  0.52966  0.00557  0.92955  1.0000
  H   H2333     1.0  0.53739  0.00587  0.92079  1.0000
  H   H2334     1.0  0.50437  0.13305  0.40427  1.0000
  C   C2910     1.0  0.50633  0.15232  0.32213  1.0000
  S   S394      1.0  0.49947  0.06895  0.29767  1.0000
  C   C2911     1.0  0.49983  0.04610  0.15485  1.0000
  C   C2912     1.0  0.62176  0.16803  0.25925  1.0000
  C   C2913     1.0  0.53937  0.00431  0.50460  1.0000
  H   H2335     1.0  0.50454  0.00410  0.64179  1.0000
  C   C2914     1.0  0.50204  0.14463  0.35897  1.0000
  H   H2336     1.0  0.50189  0.15678  0.30947  1.0000
  H   H2337     1.0  0.50067  0.00268  0.72969  1.0000
  C   C2915     1.0  0.62066  0.16884  0.36589  1.0000
  P   P97       1.0  0.62777  0.16880  0.62074  1.0000
  H   H2338     1.0  0.59785  0.16841  0.85091  1.0000
  S   S395      1.0  0.57046  0.00254  0.69919  1.0000
  C   C2916     1.0  0.59028  0.16880  0.85980  1.0000
  C   C2917     1.0  0.49921  0.11422  0.07063  1.0000
  C   C2918     1.0  0.70006  0.16898  0.06769  1.0000
  H   H2339     1.0  0.61672  0.17533  0.74813  1.0000
  H   H2340     1.0  0.59273  0.23803  0.01603  1.0000
  H   H2341     1.0  0.57800  0.20805  0.04447  1.0000
  C   C2919     1.0  0.59715  0.24801  0.06427  1.0000
  C   C2920     1.0  0.61433  0.24793  0.05009  1.0000
  H   H2342     1.0  0.57749  0.24984  0.16060  1.0000
  H   H2343     1.0  0.59976  0.31635  0.59664  1.0000
  C   C2921     1.0  0.62500  0.19707  0.47830  1.0000
  C   C2922     1.0  0.58178  0.23156  0.07610  1.0000
  S   S396      1.0  0.57190  0.31733  0.84137  1.0000
  H   H2344     1.0  0.58399  0.19548  0.82776  1.0000
  C   C2923     1.0  0.59579  0.30873  0.61116  1.0000
  H   H2345     1.0  0.59014  0.22320  0.99657  1.0000
  Fe  Fe201     1.0  0.69315  0.23151  0.24792  1.0000
  C   C2924     1.0  0.57886  0.21466  0.05297  1.0000
  S   S397      1.0  0.67885  0.23619  0.26197  1.0000
  C   C2925     1.0  0.74863  0.33480  0.97355  1.0000
  H   H2346     1.0  0.63221  0.20650  0.50428  1.0000
  H   H2347     1.0  0.61630  0.27996  0.19726  1.0000
  C   C2926     1.0  0.61275  0.17061  0.26319  1.0000
  H   H2348     1.0  0.71086  0.27312  0.10978  1.0000
  Fe  Fe202     1.0  0.62853  0.21609  0.23828  1.0000
  S   S398      1.0  0.61831  0.20502  0.22586  1.0000
  S   S399      1.0  0.64454  0.21687  0.20993  1.0000
  Fe  Fe203     1.0  0.61201  0.22424  0.27906  1.0000
  S   S400      1.0  0.60040  0.21370  0.27033  1.0000
  S   S401      1.0  0.60739  0.23561  0.30782  1.0000
  Fe  Fe204     1.0  0.60838  0.20212  0.28941  1.0000
  S   S402      1.0  0.60245  0.18613  0.33167  1.0000
  Fe  Fe205     1.0  0.61120  0.21730  0.20802  1.0000
  S   S403      1.0  0.60814  0.22239  0.14919  1.0000
  S   S404      1.0  0.61924  0.21243  0.30344  1.0000
  S   S405      1.0  0.62213  0.22864  0.21531  1.0000
  Fe  Fe206     1.0  0.61603  0.30621  0.20718  1.0000
  S   S406      1.0  0.61213  0.29316  0.26351  1.0000
  S   S407      1.0  0.60525  0.30852  0.17276  1.0000
  Fe  Fe207     1.0  0.63496  0.31524  0.21937  1.0000
  S   S408      1.0  0.63256  0.30274  0.27595  1.0000
  S   S409      1.0  0.64709  0.32919  0.19129  1.0000
  Fe  Fe208     1.0  0.62791  0.29293  0.24193  1.0000
  S   S410      1.0  0.63361  0.27952  0.23611  1.0000
  Fe  Fe209     1.0  0.61695  0.30413  0.29217  1.0000
  S   S411      1.0  0.60867  0.30400  0.35516  1.0000
  S   S412      1.0  0.63157  0.30544  0.18351  1.0000
  S   S413      1.0  0.61969  0.31721  0.23755  1.0000
  Fe  Fe210     1.0  0.60122  0.19510  0.91747  1.0000
  S   S414      1.0  0.61280  0.20915  0.87951  1.0000
  S   S415      1.0  0.59670  0.18345  0.88884  1.0000
  Fe  Fe211     1.0  0.60326  0.19822  0.99646  1.0000
  S   S416      1.0  0.61512  0.21212  0.96465  1.0000
  S   S417      1.0  0.59810  0.19115  0.06464  1.0000
  Fe  Fe212     1.0  0.60577  0.21607  0.92543  1.0000
  S   S418      1.0  0.60224  0.23121  0.91093  1.0000
  Fe  Fe213     1.0  0.62121  0.20424  0.92177  1.0000
  S   S419      1.0  0.63680  0.20319  0.89849  1.0000
  S   S420      1.0  0.59336  0.20245  0.96001  1.0000
  S   S421      1.0  0.61019  0.18997  0.95709  1.0000
  Fe  Fe214     1.0  0.60949  0.29158  0.98782  1.0000
  S   S422      1.0  0.62340  0.28688  0.98610  1.0000
  S   S423      1.0  0.59724  0.28792  0.04669  1.0000
  Fe  Fe215     1.0  0.61684  0.30332  0.89777  1.0000
  S   S424      1.0  0.63157  0.29973  0.88950  1.0000
  S   S425      1.0  0.61455  0.31439  0.84528  1.0000
  Fe  Fe216     1.0  0.62287  0.28422  0.92773  1.0000
  S   S426      1.0  0.62772  0.27090  0.91361  1.0000
  Fe  Fe217     1.0  0.63072  0.30265  0.94834  1.0000
  S   S427      1.0  0.64104  0.31125  0.97108  1.0000
  S   S428      1.0  0.60819  0.28772  0.93254  1.0000
  S   S429      1.0  0.61668  0.30740  0.95353  1.0000
  C   C2927     1.0  0.68831  0.25113  0.93460  1.0000
  H   H2349     1.0  0.61998  0.19237  0.50753  1.0000
  Fe  Fe218     1.0  0.68497  0.22395  0.92368  1.0000
  S   S430      1.0  0.67045  0.22812  0.93609  1.0000
  H   H2350     1.0  0.58866  0.22482  0.14425  1.0000
  C   C2928     1.0  0.59021  0.30507  0.75449  1.0000
  H   H2351     1.0  0.63920  0.30332  0.45952  1.0000
  H   H2352     1.0  0.57181  0.23057  0.36493  1.0000
  C   C2929     1.0  0.66825  0.24947  0.96573  1.0000
  H   H2353     1.0  0.73957  0.30308  0.07238  1.0000
  H   H2354     1.0  0.57036  0.22283  0.13242  1.0000
  H   H2355     1.0  0.58240  0.30203  0.76692  1.0000
  H   H2356     1.0  0.71206  0.24845  0.06523  1.0000
  C   C2930     1.0  0.65152  0.32076  0.94041  1.0000
  C   C2931     1.0  0.67523  0.18406  0.84190  1.0000
  H   H2357     1.0  0.59417  0.25974  0.02056  1.0000
  H   H2358     1.0  0.57662  0.24428  0.23253  1.0000
  H   H2359     1.0  0.65316  0.31695  0.88576  1.0000
  C   C2932     1.0  0.58755  0.17555  0.87983  1.0000
  C   C2933     1.0  0.57961  0.26012  0.08351  1.0000
  H   H2360     1.0  0.60204  0.30479  0.55808  1.0000
  H   H2361     1.0  0.59228  0.25549  0.27082  1.0000
  C   C2934     1.0  0.66421  0.33445  0.93576  1.0000
  C   C2935     1.0  0.57774  0.17595  0.89116  1.0000
  C   C2936     1.0  0.58621  0.28882  0.64785  1.0000
  C   C2937     1.0  0.58719  0.23161  0.03736  1.0000
  H   H2362     1.0  0.74784  0.30672  0.27522  1.0000
  H   H2363     1.0  0.57550  0.18105  0.90663  1.0000
  C   C2938     1.0  0.64562  0.20969  0.91308  1.0000
  C   C2939     1.0  0.65414  0.20644  0.91355  1.0000
  C   C2940     1.0  0.66172  0.21196  0.92128  1.0000
  C   C2941     1.0  0.66083  0.22079  0.92855  1.0000
  C   C2942     1.0  0.65220  0.22395  0.92910  1.0000
  C   C2943     1.0  0.64458  0.21839  0.92158  1.0000
  H   H2364     1.0  0.65493  0.19966  0.90768  1.0000
  H   H2365     1.0  0.66832  0.20946  0.92074  1.0000
  H   H2366     1.0  0.65150  0.23084  0.93423  1.0000
  H   H2367     1.0  0.63806  0.22099  0.92096  1.0000
  C   C2944     1.0  0.60920  0.24196  0.91449  1.0000
  C   C2945     1.0  0.60525  0.25025  0.91326  1.0000
  C   C2946     1.0  0.61071  0.25907  0.91391  1.0000
  C   C2947     1.0  0.62027  0.25976  0.91519  1.0000
  C   C2948     1.0  0.62416  0.25143  0.91690  1.0000
  C   C2949     1.0  0.61865  0.24257  0.91692  1.0000
  H   H2368     1.0  0.59797  0.24989  0.91130  1.0000
  H   H2369     1.0  0.60761  0.26540  0.91242  1.0000
  H   H2370     1.0  0.63152  0.25184  0.91790  1.0000
  H   H2371     1.0  0.62181  0.23629  0.91781  1.0000
  C   C2950     1.0  0.60356  0.30175  0.14017  1.0000
  C   C2951     1.0  0.61137  0.30168  0.10775  1.0000
  C   C2952     1.0  0.60955  0.29768  0.07808  1.0000
  C   C2953     1.0  0.59992  0.29363  0.08120  1.0000
  C   C2954     1.0  0.59219  0.29368  0.11371  1.0000
  C   C2955     1.0  0.59398  0.29782  0.14270  1.0000
  H   H2372     1.0  0.61876  0.30507  0.10461  1.0000
  H   H2373     1.0  0.61559  0.29770  0.05300  1.0000
  H   H2374     1.0  0.58477  0.29047  0.11652  1.0000
  H   H2375     1.0  0.58791  0.29808  0.16696  1.0000
  C   C2956     1.0  0.59720  0.30217  0.58925  1.0000
  H   H2376     1.0  0.61327  0.20414  0.40012  1.0000
  C   C2957     1.0  0.58591  0.22914  0.16307  1.0000
  H   H2377     1.0  0.63699  0.17024  0.81769  1.0000
  H   H2378     1.0  0.74699  0.28881  0.08471  1.0000
  C   C2958     1.0  0.58477  0.29538  0.66980  1.0000
  H   H2379     1.0  0.58406  0.18702  0.31296  1.0000
  C   C2959     1.0  0.57915  0.24004  0.21309  1.0000
  H   H2380     1.0  0.74108  0.25301  0.14060  1.0000
  C   C2960     1.0  0.60520  0.21350  0.12686  1.0000
  C   C2961     1.0  0.60447  0.21662  0.08774  1.0000
  C   C2962     1.0  0.60222  0.20975  0.06884  1.0000
  C   C2963     1.0  0.60067  0.19972  0.08891  1.0000
  C   C2964     1.0  0.60124  0.19656  0.12836  1.0000
  C   C2965     1.0  0.60359  0.20345  0.14726  1.0000
  H   H2381     1.0  0.60574  0.22435  0.07159  1.0000
  H   H2382     1.0  0.60158  0.21223  0.03882  1.0000
  H   H2383     1.0  0.60001  0.18879  0.14404  1.0000
  H   H2384     1.0  0.60412  0.20100  0.17750  1.0000
  C   C2966     1.0  0.61477  0.24778  0.28840  1.0000
  C   C2967     1.0  0.61081  0.25541  0.29786  1.0000
  C   C2968     1.0  0.61647  0.26519  0.28213  1.0000
  C   C2969     1.0  0.62619  0.26737  0.25724  1.0000
  C   C2970     1.0  0.63020  0.25970  0.24871  1.0000
  C   C2971     1.0  0.62451  0.24996  0.26386  1.0000
  H   H2385     1.0  0.60335  0.25377  0.31749  1.0000
  H   H2386     1.0  0.61337  0.27099  0.28972  1.0000
  H   H2387     1.0  0.63772  0.26131  0.22993  1.0000
  H   H2388     1.0  0.62769  0.24415  0.25673  1.0000
  C   C2972     1.0  0.58573  0.22319  0.02601  1.0000
  C   C2973     1.0  0.60651  0.19867  0.40939  1.0000
  C   C2974     1.0  0.65712  0.32574  0.24701  1.0000
  C   C2975     1.0  0.74594  0.32063  0.24216  1.0000
  H   H2389     1.0  0.66007  0.20767  0.57782  1.0000
  H   H2390     1.0  0.67585  0.18634  0.68739  1.0000
  C   C2976     1.0  0.59237  0.29223  0.60751  1.0000
  H   H2391     1.0  0.65189  0.31872  0.26244  1.0000
  H   H2392     1.0  0.68799  0.21972  0.42965  1.0000
  P   P98       1.0  0.58453  0.24200  0.09291  1.0000
  C   C2977     1.0  0.70838  0.25196  0.08576  1.0000
  C   C2978     1.0  0.74328  0.27202  0.27397  1.0000
  C   C2979     1.0  0.64284  0.17333  0.86295  1.0000
  C   C2980     1.0  0.67341  0.25496  0.92505  1.0000
  H   H2393     1.0  0.68737  0.25972  0.87763  1.0000
  C   C2981     1.0  0.59903  0.17800  0.66596  1.0000
  H   H2394     1.0  0.66960  0.25843  0.90541  1.0000
  C   C2982     1.0  0.66919  0.23024  0.24959  1.0000
  C   C2983     1.0  0.67100  0.22532  0.22103  1.0000
  C   C2984     1.0  0.66331  0.22110  0.20988  1.0000
  C   C2985     1.0  0.65374  0.22174  0.22718  1.0000
  C   C2986     1.0  0.65185  0.22652  0.25628  1.0000
  C   C2987     1.0  0.65958  0.23081  0.26725  1.0000
  H   H2395     1.0  0.67836  0.22510  0.20620  1.0000
  H   H2396     1.0  0.66482  0.21754  0.18697  1.0000
  H   H2397     1.0  0.64449  0.22709  0.26960  1.0000
  H   H2398     1.0  0.65814  0.23468  0.28916  1.0000
  C   C2988     1.0  0.58374  0.31669  0.84326  1.0000
  C   C2989     1.0  0.59184  0.32443  0.81898  1.0000
  C   C2990     1.0  0.60125  0.32364  0.81984  1.0000
  C   C2991     1.0  0.60260  0.31522  0.84587  1.0000
  C   C2992     1.0  0.59446  0.30756  0.87084  1.0000
  C   C2993     1.0  0.58510  0.30823  0.86885  1.0000
  H   H2399     1.0  0.62428  0.25981  0.99866  1.0000
  C   C2994     1.0  0.73080  0.22237  0.95874  1.0000
  H   H2400     1.0  0.59542  0.30100  0.89071  1.0000
  H   H2401     1.0  0.57891  0.30213  0.88673  1.0000
  H   H2402     1.0  0.56798  0.20796  0.11199  1.0000
  C   C2995     1.0  0.60944  0.26091  0.00782  1.0000
  C   C2996     1.0  0.60456  0.24374  0.07376  1.0000
  C   C2997     1.0  0.57694  0.25047  0.08280  1.0000
  C   C2998     1.0  0.67223  0.21032  0.05300  1.0000
  H   H2403     1.0  0.61131  0.26751  0.98201  1.0000
  H   H2404     1.0  0.62364  0.17631  0.80275  1.0000
  C   C2999     1.0  0.74382  0.32817  0.38486  1.0000
  C   C3000     1.0  0.59962  0.31557  0.39448  1.0000
  C   C3001     1.0  0.60250  0.31346  0.35794  1.0000
  C   C3002     1.0  0.60027  0.31879  0.32442  1.0000
  C   C3003     1.0  0.65119  0.18792  0.65072  1.0000
  C   C3004     1.0  0.73456  0.27184  0.17150  1.0000
  H   H2405     1.0  0.60114  0.31132  0.42076  1.0000
  H   H2406     1.0  0.60218  0.31705  0.29653  1.0000
  P   P99       1.0  0.61584  0.18480  0.44395  1.0000
  H   H2407     1.0  0.64993  0.17847  0.90134  1.0000
  C   C3005     1.0  0.58821  0.32602  0.94237  1.0000
  H   H2408     1.0  0.57678  0.26795  0.35174  1.0000
  C   C3006     1.0  0.70779  0.26579  0.11079  1.0000
  C   C3007     1.0  0.67510  0.19349  0.68971  1.0000
  C   C3008     1.0  0.62461  0.19521  0.44246  1.0000
  C   C3009     1.0  0.63195  0.20507  0.47658  1.0000
  C   C3010     1.0  0.63855  0.21125  0.43910  1.0000
  C   C3011     1.0  0.63814  0.20951  0.40328  1.0000
  C   C3012     1.0  0.63117  0.20156  0.40494  1.0000
  C   C3013     1.0  0.57068  0.27239  0.24426  1.0000
  C   C3014     1.0  0.63708  0.31653  0.42169  1.0000
  H   H2409     1.0  0.62103  0.18906  0.83546  1.0000
  H   H2410     1.0  0.69674  0.23899  0.11966  1.0000
  H   H2411     1.0  0.64392  0.21747  0.43766  1.0000
  H   H2412     1.0  0.64318  0.21437  0.37412  1.0000
  H   H2413     1.0  0.63084  0.20039  0.37691  1.0000
  H   H2414     1.0  0.65150  0.21927  0.80564  1.0000
  C   C3015     1.0  0.63618  0.18084  0.53958  1.0000
  H   H2415     1.0  0.56108  0.26906  0.05877  1.0000
  C   C3016     1.0  0.72075  0.27681  0.91478  1.0000
  C   C3017     1.0  0.66898  0.24511  0.07373  1.0000
  C   C3018     1.0  0.59966  0.25653  0.03040  1.0000
  H   H2416     1.0  0.64933  0.23396  0.11566  1.0000
  C   C3019     1.0  0.57196  0.31532  0.74072  1.0000
  C   C3020     1.0  0.57471  0.31157  0.70847  1.0000
  C   C3021     1.0  0.56743  0.30696  0.69620  1.0000
  P   P100      1.0  0.58747  0.31375  0.68026  1.0000
  C   C3022     1.0  0.70487  0.19094  0.20938  1.0000
  C   C3023     1.0  0.59463  0.31116  0.71385  1.0000
  C   C3024     1.0  0.58273  0.29946  0.98767  1.0000
  C   C3025     1.0  0.68113  0.21117  0.66642  1.0000
  H   H2417     1.0  0.64568  0.17602  0.45168  1.0000
  H   H2418     1.0  0.72711  0.26066  0.15385  1.0000
  H   H2419     1.0  0.74001  0.30498  0.17701  1.0000
  H   H2420     1.0  0.72586  0.24414  0.92770  1.0000
  H   H2421     1.0  0.71790  0.22682  0.35445  1.0000
  C   C3026     1.0  0.72480  0.28750  0.04520  1.0000
  H   H2422     1.0  0.67340  0.25890  0.02398  1.0000
  C   C3027     1.0  0.57392  0.26679  0.07480  1.0000
  H   H2423     1.0  0.66318  0.21861  0.02790  1.0000
  C   C3028     1.0  0.73656  0.29648  0.06694  1.0000
  H   H2424     1.0  0.56932  0.30454  0.66986  1.0000
  C   C3029     1.0  0.66795  0.19082  0.40757  1.0000
  H   H2425     1.0  0.68905  0.17659  0.35008  1.0000
  S   S431      1.0  0.71681  0.24964  0.86355  1.0000
  C   C3030     1.0  0.72975  0.25149  0.90777  1.0000
  H   H2426     1.0  0.73546  0.20865  0.87964  1.0000
  H   H2427     1.0  0.69863  0.20165  0.10347  1.0000
  H   H2428     1.0  0.72593  0.19944  0.95155  1.0000
  C   C3031     1.0  0.58209  0.23153  0.22885  1.0000
  C   C3032     1.0  0.58541  0.22606  0.20387  1.0000
  H   H2429     1.0  0.58188  0.22919  0.26030  1.0000
  H   H2430     1.0  0.58782  0.21951  0.21573  1.0000
  S   S432      1.0  0.69565  0.22960  0.86053  1.0000
  H   H2431     1.0  0.68706  0.24208  0.99430  1.0000
  C   C3033     1.0  0.67263  0.25534  0.05549  1.0000
  H   H2432     1.0  0.66491  0.23298  0.12988  1.0000
  C   C3034     1.0  0.68342  0.25571  0.90940  1.0000
  C   C3035     1.0  0.61966  0.18160  0.79239  1.0000
  H   H2433     1.0  0.63797  0.20498  0.81395  1.0000
  C   C3036     1.0  0.73267  0.26078  0.04152  1.0000
  C   C3037     1.0  0.63413  0.32072  0.38827  1.0000
  C   C3038     1.0  0.63684  0.30650  0.43396  1.0000
  C   C3039     1.0  0.63350  0.30055  0.41334  1.0000
  C   C3040     1.0  0.63042  0.30464  0.38048  1.0000
  C   C3041     1.0  0.63074  0.31469  0.36784  1.0000
  C   C3042     1.0  0.58937  0.30542  0.65132  1.0000
  H   H2434     1.0  0.63172  0.22767  0.12997  1.0000
  H   H2435     1.0  0.58828  0.23831  0.31438  1.0000
  C   C3043     1.0  0.67264  0.21151  0.79318  1.0000
  H   H2436     1.0  0.65113  0.31658  0.09922  1.0000
  H   H2437     1.0  0.64397  0.17500  0.36600  1.0000
  H   H2438     1.0  0.63323  0.29276  0.42289  1.0000
  H   H2439     1.0  0.62761  0.29999  0.36509  1.0000
  H   H2440     1.0  0.62817  0.31762  0.34262  1.0000
  C   C3044     1.0  0.57968  0.24317  0.17212  1.0000
  C   C3045     1.0  0.64345  0.27134  0.97428  1.0000
  C   C3046     1.0  0.64411  0.26207  0.97154  1.0000
  C   C3047     1.0  0.64352  0.25450  0.00605  1.0000
  C   C3048     1.0  0.64271  0.25628  0.04289  1.0000
  C   C3049     1.0  0.64218  0.26561  0.04594  1.0000
  C   C3050     1.0  0.64221  0.27303  0.01144  1.0000
  P   P101      1.0  0.63964  0.26759  0.09493  1.0000
  C   C3051     1.0  0.62666  0.26276  0.12029  1.0000
  C   C3052     1.0  0.64596  0.26148  0.12745  1.0000
  C   C3053     1.0  0.65222  0.26699  0.14144  1.0000
  C   C3054     1.0  0.65567  0.26228  0.17228  1.0000
  C   C3055     1.0  0.65294  0.25205  0.18939  1.0000
  C   C3056     1.0  0.64694  0.24649  0.17502  1.0000
  C   C3057     1.0  0.64342  0.25116  0.14438  1.0000
  C   C3058     1.0  0.62016  0.26397  0.09800  1.0000
  C   C3059     1.0  0.61019  0.25962  0.11693  1.0000
  C   C3060     1.0  0.60664  0.25399  0.15810  1.0000
  C   C3061     1.0  0.61299  0.25308  0.18087  1.0000
  C   C3062     1.0  0.62294  0.25756  0.16216  1.0000
  C   C3063     1.0  0.64277  0.28066  0.08651  1.0000
  C   C3064     1.0  0.65112  0.28677  0.05469  1.0000
  C   C3065     1.0  0.65255  0.29699  0.04346  1.0000
  C   C3066     1.0  0.64582  0.30115  0.06474  1.0000
  C   C3067     1.0  0.63798  0.29511  0.09866  1.0000
  C   C3068     1.0  0.63656  0.28490  0.10999  1.0000
  H   H2441     1.0  0.64343  0.27709  0.94794  1.0000
  H   H2442     1.0  0.64462  0.26067  0.94309  1.0000
  H   H2443     1.0  0.64345  0.24718  0.00436  1.0000
  H   H2444     1.0  0.64218  0.25026  0.06900  1.0000
  H   H2445     1.0  0.64098  0.28008  0.01307  1.0000
  H   H2446     1.0  0.65409  0.27493  0.13010  1.0000
  H   H2447     1.0  0.66023  0.26658  0.18385  1.0000
  H   H2448     1.0  0.65545  0.24841  0.21385  1.0000
  H   H2449     1.0  0.64478  0.23854  0.18850  1.0000
  H   H2450     1.0  0.63817  0.24671  0.13620  1.0000
  H   H2451     1.0  0.62275  0.26822  0.06599  1.0000
  H   H2452     1.0  0.60522  0.26065  0.09958  1.0000
  H   H2453     1.0  0.59896  0.25048  0.17256  1.0000
  H   H2454     1.0  0.61024  0.24886  0.21299  1.0000
  H   H2455     1.0  0.62768  0.25681  0.18046  1.0000
  H   H2456     1.0  0.65620  0.28364  0.03700  1.0000
  H   H2457     1.0  0.65859  0.30169  0.01707  1.0000
  H   H2458     1.0  0.64656  0.30901  0.05435  1.0000
  H   H2459     1.0  0.63283  0.29833  0.11547  1.0000
  H   H2460     1.0  0.63051  0.28032  0.13647  1.0000
  C   C3069     1.0  0.57953  0.19536  0.70684  1.0000
  C   C3070     1.0  0.57533  0.18552  0.73052  1.0000
  C   C3071     1.0  0.57893  0.18102  0.76107  1.0000
  C   C3072     1.0  0.58671  0.18634  0.76807  1.0000
  C   C3073     1.0  0.59108  0.19620  0.74413  1.0000
  C   C3074     1.0  0.58736  0.20070  0.71365  1.0000
  P   P102      1.0  0.60113  0.20300  0.75369  1.0000
  C   C3075     1.0  0.60859  0.19478  0.76815  1.0000
  C   C3076     1.0  0.61267  0.19535  0.79871  1.0000
  C   C3077     1.0  0.61822  0.18880  0.81070  1.0000
  H   H2461     1.0  0.65665  0.19803  0.26476  1.0000
  H   H2462     1.0  0.66435  0.31980  0.02867  1.0000
  C   C3078     1.0  0.61023  0.18761  0.74935  1.0000
  C   C3079     1.0  0.59657  0.20777  0.79464  1.0000
  C   C3080     1.0  0.60192  0.21650  0.79596  1.0000
  C   C3081     1.0  0.59859  0.21996  0.82852  1.0000
  C   C3082     1.0  0.59005  0.21463  0.86047  1.0000
  C   C3083     1.0  0.58480  0.20585  0.85980  1.0000
  C   C3084     1.0  0.58803  0.20243  0.82701  1.0000
  H   H2463     1.0  0.57664  0.19887  0.68347  1.0000
  H   H2464     1.0  0.56920  0.18137  0.72559  1.0000
  C   C3085     1.0  0.66910  0.33524  0.89568  1.0000
  H   H2465     1.0  0.58929  0.18278  0.79238  1.0000
  H   H2466     1.0  0.59043  0.20832  0.69519  1.0000
  H   H2467     1.0  0.61125  0.20054  0.81474  1.0000
  C   C3086     1.0  0.66412  0.20607  0.55140  1.0000
  C   C3087     1.0  0.60348  0.17734  0.52440  1.0000
  C   C3088     1.0  0.58175  0.28998  0.98477  1.0000
  H   H2468     1.0  0.60714  0.18700  0.72578  1.0000
  H   H2469     1.0  0.60878  0.22052  0.77253  1.0000
  H   H2470     1.0  0.60279  0.22661  0.82994  1.0000
  H   H2471     1.0  0.58768  0.21719  0.88624  1.0000
  H   H2472     1.0  0.57836  0.20154  0.88524  1.0000
  S   S433      1.0  0.70082  0.20600  0.01843  1.0000
  C   C3089     1.0  0.71540  0.26581  0.98419  1.0000
  C   C3090     1.0  0.58982  0.19468  0.40935  1.0000
  H   H2473     1.0  0.68654  0.21776  0.64566  1.0000
  S   S434      1.0  0.71655  0.22196  0.23145  1.0000
  H   H2474     1.0  0.68448  0.21702  0.81235  1.0000
  H   H2475     1.0  0.63583  0.18699  0.55093  1.0000
  H   H2476     1.0  0.69895  0.18776  0.23796  1.0000
  C   C3091     1.0  0.72838  0.31684  0.42937  1.0000
  H   H2477     1.0  0.69605  0.25160  0.92226  1.0000
  C   C3092     1.0  0.57464  0.22306  0.10250  1.0000
  C   C3093     1.0  0.57606  0.30861  0.10149  1.0000
  C   C3094     1.0  0.72019  0.19957  0.13597  1.0000
  H   H2478     1.0  0.61515  0.27967  0.12985  1.0000
  C   C3095     1.0  0.58317  0.23778  0.14660  1.0000
  H   H2479     1.0  0.66054  0.24894  0.97713  1.0000
  C   C3096     1.0  0.68316  0.24564  0.97530  1.0000
  H   H2480     1.0  0.73959  0.32215  0.14526  1.0000
  C   C3097     1.0  0.66838  0.21858  0.04428  1.0000
  C   C3098     1.0  0.66691  0.31235  0.12244  1.0000
  H   H2481     1.0  0.67034  0.24317  0.16828  1.0000
  C   C3099     1.0  0.67304  0.24456  0.99093  1.0000
  H   H2482     1.0  0.57619  0.27428  0.07442  1.0000
  H   H2483     1.0  0.59344  0.28716  0.59043  1.0000
  C   C3100     1.0  0.57324  0.21462  0.09103  1.0000
  H   H2484     1.0  0.58622  0.26258  0.08992  1.0000
  C   C3101     1.0  0.61049  0.31239  0.72402  1.0000
  H   H2485     1.0  0.65505  0.23039  0.99734  1.0000
  H   H2486     1.0  0.67853  0.26893  0.06323  1.0000
  C   C3102     1.0  0.56837  0.24755  0.07417  1.0000
  H   H2487     1.0  0.63742  0.22391  0.01261  1.0000
  C   C3103     1.0  0.67558  0.26108  0.07764  1.0000
  C   C3104     1.0  0.64004  0.22635  0.03466  1.0000
  C   C3105     1.0  0.65004  0.23005  0.02604  1.0000
  H   H2488     1.0  0.66263  0.18620  0.15278  1.0000
  H   H2489     1.0  0.72687  0.20754  0.16826  1.0000
  C   C3106     1.0  0.63344  0.22569  0.07179  1.0000
  C   C3107     1.0  0.65355  0.23320  0.05431  1.0000
  P   P103      1.0  0.66657  0.23745  0.04369  1.0000
  H   H2490     1.0  0.62569  0.22279  0.07857  1.0000
  C   C3108     1.0  0.65616  0.32185  0.89971  1.0000
  C   C3109     1.0  0.60844  0.21294  0.70788  1.0000
  C   C3110     1.0  0.56036  0.32345  0.00993  1.0000
  H   H2491     1.0  0.66998  0.20415  0.04338  1.0000
  H   H2492     1.0  0.61950  0.20523  0.68906  1.0000
  C   C3111     1.0  0.63685  0.22851  0.10067  1.0000
  C   C3112     1.0  0.64687  0.23212  0.09227  1.0000
  H   H2493     1.0  0.67732  0.26107  0.13512  1.0000
  C   C3113     1.0  0.67491  0.25667  0.11805  1.0000
  P   P104      1.0  0.67139  0.32511  0.09048  1.0000
  C   C3114     1.0  0.74315  0.27559  0.17792  1.0000
  C   C3115     1.0  0.61676  0.25656  0.01727  1.0000
  C   C3116     1.0  0.67761  0.32552  0.03928  1.0000
  H   H2494     1.0  0.60283  0.23714  0.09918  1.0000
  H   H2495     1.0  0.72081  0.26055  0.27461  1.0000
  C   C3117     1.0  0.67150  0.22676  0.05541  1.0000
  C   C3118     1.0  0.67101  0.24656  0.13673  1.0000
  C   C3119     1.0  0.66790  0.24082  0.11494  1.0000
  H   H2496     1.0  0.71072  0.25906  0.00661  1.0000
  H   H2497     1.0  0.56616  0.24017  0.07346  1.0000
  C   C3120     1.0  0.58650  0.29210  0.33320  1.0000
  C   C3121     1.0  0.61704  0.21194  0.68205  1.0000
  C   C3122     1.0  0.58328  0.17972  0.33297  1.0000
  H   H2498     1.0  0.65729  0.31544  0.17209  1.0000
  C   C3123     1.0  0.67877  0.22664  0.07417  1.0000
  Fe  Fe219     1.0  0.70116  0.21363  0.27075  1.0000
  C   C3124     1.0  0.59109  0.17744  0.34615  1.0000
  C   C3125     1.0  0.67915  0.21014  0.07315  1.0000
  H   H2499     1.0  0.66267  0.18735  0.74330  1.0000
  C   C3126     1.0  0.65978  0.30980  0.16070  1.0000
  C   C3127     1.0  0.57346  0.23815  0.34563  1.0000
  C   C3128     1.0  0.58275  0.24251  0.31709  1.0000
  P   P105      1.0  0.58061  0.27049  0.26418  1.0000
  C   C3129     1.0  0.64127  0.17575  0.82534  1.0000
  H   H2500     1.0  0.68180  0.23300  0.08092  1.0000
  C   C3130     1.0  0.73783  0.25660  0.91471  1.0000
  C   C3131     1.0  0.55756  0.30591  0.71660  1.0000
  S   S435      1.0  0.71628  0.23124  0.11778  1.0000
  H   H2501     1.0  0.65009  0.29801  0.21352  1.0000
  S   S436      1.0  0.69598  0.22908  0.95129  1.0000
  C   C3132     1.0  0.67007  0.30484  0.10858  1.0000
  C   C3133     1.0  0.65571  0.29993  0.18427  1.0000
  H   H2502     1.0  0.67561  0.30655  0.07942  1.0000
  C   C3134     1.0  0.65148  0.19219  0.80610  1.0000
  H   H2503     1.0  0.70435  0.21144  0.14308  1.0000
  C   C3135     1.0  0.65308  0.18967  0.84377  1.0000
  C   C3136     1.0  0.65872  0.29251  0.16995  1.0000
  C   C3137     1.0  0.64542  0.18520  0.79728  1.0000
  C   C3138     1.0  0.64184  0.17473  0.48342  1.0000
  H   H2504     1.0  0.60191  0.31654  0.02285  1.0000
  C   C3139     1.0  0.58499  0.25231  0.29240  1.0000
  C   C3140     1.0  0.68428  0.19576  0.18615  1.0000
  C   C3141     1.0  0.55571  0.27538  0.21050  1.0000
  H   H2505     1.0  0.65782  0.19484  0.85113  1.0000
  H   H2506     1.0  0.65992  0.22990  0.83469  1.0000
  C   C3142     1.0  0.66596  0.29496  0.13225  1.0000
  C   C3143     1.0  0.68715  0.32514  0.96119  1.0000
  C   C3144     1.0  0.72673  0.25588  0.87500  1.0000
  C   C3145     1.0  0.69967  0.24656  0.11670  1.0000
  H   H2507     1.0  0.55921  0.24024  0.37197  1.0000
  C   C3146     1.0  0.56638  0.24361  0.34956  1.0000
  H   H2508     1.0  0.55199  0.30258  0.70639  1.0000
  C   C3147     1.0  0.58731  0.28886  0.27015  1.0000
  C   C3148     1.0  0.56209  0.31418  0.76125  1.0000
  C   C3149     1.0  0.67945  0.20504  0.50790  1.0000
  H   H2509     1.0  0.65539  0.28487  0.18819  1.0000
  H   H2510     1.0  0.66833  0.28921  0.12125  1.0000
  C   C3150     1.0  0.68239  0.21829  0.08382  1.0000
  C   C3151     1.0  0.67223  0.32221  0.01653  1.0000
  S   S437      1.0  0.69897  0.22552  0.29897  1.0000
  H   H2511     1.0  0.69560  0.26346  0.16442  1.0000
  C   C3152     1.0  0.70581  0.21474  0.11079  1.0000
  C   C3153     1.0  0.60663  0.32257  0.02613  1.0000
  C   C3154     1.0  0.56266  0.25423  0.06567  1.0000
  C   C3155     1.0  0.71104  0.22142  0.37165  1.0000
  C   C3156     1.0  0.60552  0.22180  0.69766  1.0000
  C   C3157     1.0  0.62266  0.21972  0.64685  1.0000
  H   H2512     1.0  0.59888  0.22271  0.71697  1.0000
  H   H2513     1.0  0.62931  0.21892  0.62719  1.0000
  H   H2514     1.0  0.64415  0.18696  0.76825  1.0000
  C   C3158     1.0  0.65879  0.21883  0.80555  1.0000
  H   H2515     1.0  0.68218  0.20377  0.07967  1.0000
  H   H2516     1.0  0.61244  0.17800  0.24759  1.0000
  C   C3159     1.0  0.72835  0.26152  0.27370  1.0000
  H   H2517     1.0  0.74760  0.24850  0.77219  1.0000
  C   C3160     1.0  0.71463  0.26828  0.94509  1.0000
  C   C3161     1.0  0.67360  0.21179  0.69836  1.0000
  C   C3162     1.0  0.66936  0.19764  0.17126  1.0000
  H   H2518     1.0  0.57231  0.28770  0.24103  1.0000
  H   H2519     1.0  0.55916  0.29019  0.21195  1.0000
  H   H2520     1.0  0.65138  0.20164  0.53538  1.0000
  C   C3163     1.0  0.67738  0.21763  0.80984  1.0000
  C   C3164     1.0  0.67700  0.32188  0.97793  1.0000
  C   C3165     1.0  0.71253  0.26163  0.08241  1.0000
  H   H2521     1.0  0.71115  0.22652  0.99464  1.0000
  H   H2522     1.0  0.71744  0.23614  0.03374  1.0000
  C   C3166     1.0  0.56858  0.25342  0.32489  1.0000
  Fe  Fe220     1.0  0.71389  0.23452  0.25567  1.0000
  C   C3167     1.0  0.57789  0.25783  0.29596  1.0000
  H   H2523     1.0  0.59353  0.17132  0.58593  1.0000
  H   H2524     1.0  0.58018  0.27961  0.38767  1.0000
  C   C3168     1.0  0.66357  0.22495  0.82206  1.0000
  C   C3169     1.0  0.59674  0.18191  0.44166  1.0000
  H   H2525     1.0  0.70384  0.23177  0.39265  1.0000
  C   C3170     1.0  0.68649  0.18918  0.31017  1.0000
  C   C3171     1.0  0.65395  0.18361  0.62051  1.0000
  H   H2526     1.0  0.56148  0.28832  0.95562  1.0000
  C   C3172     1.0  0.56838  0.28160  0.23532  1.0000
  C   C3173     1.0  0.56091  0.28307  0.21858  1.0000
  C   C3174     1.0  0.58203  0.28218  0.35487  1.0000
  C   C3175     1.0  0.58012  0.27560  0.33428  1.0000
  H   H2527     1.0  0.58860  0.30232  0.99758  1.0000
  C   C3176     1.0  0.55489  0.30951  0.74917  1.0000
  C   C3177     1.0  0.70112  0.20484  0.39233  1.0000
  S   S438      1.0  0.71071  0.21888  0.89697  1.0000
  C   C3178     1.0  0.60564  0.18879  0.43096  1.0000
  P   P106      1.0  0.65738  0.20415  0.76858  1.0000
  C   C3179     1.0  0.63064  0.16928  0.35688  1.0000
  H   H2528     1.0  0.56305  0.25759  0.32845  1.0000
  H   H2529     1.0  0.54992  0.27653  0.19759  1.0000
  H   H2530     1.0  0.63620  0.18346  0.41231  1.0000
  H   H2531     1.0  0.55396  0.26025  0.21272  1.0000
  C   C3180     1.0  0.61974  0.22853  0.63712  1.0000
  H   H2532     1.0  0.61998  0.24448  0.05735  1.0000
  H   H2533     1.0  0.64383  0.19007  0.47743  1.0000
  H   H2534     1.0  0.68786  0.21824  0.09887  1.0000
  Fe  Fe221     1.0  0.70704  0.23374  0.88911  1.0000
  H   H2535     1.0  0.59086  0.33091  0.79887  1.0000
  H   H2536     1.0  0.60890  0.23640  0.65497  1.0000
  C   C3181     1.0  0.58272  0.27890  0.29167  1.0000
  H   H2537     1.0  0.72264  0.31042  0.43581  1.0000
  H   H2538     1.0  0.60071  0.31750  0.09130  1.0000
  C   C3182     1.0  0.61117  0.22957  0.66250  1.0000
  C   C3183     1.0  0.70267  0.20917  0.08817  1.0000
  S   S439      1.0  0.69456  0.21916  0.22232  1.0000
  H   H2539     1.0  0.55611  0.25197  0.05855  1.0000
  H   H2540     1.0  0.61824  0.18518  0.11804  1.0000
  C   C3184     1.0  0.66333  0.21210  0.79059  1.0000
  C   C3185     1.0  0.71124  0.22443  0.09124  1.0000
  C   C3186     1.0  0.70963  0.22320  0.02697  1.0000
  Fe  Fe222     1.0  0.70960  0.22836  0.18524  1.0000
  H   H2541     1.0  0.58815  0.29716  0.34912  1.0000
  C   C3187     1.0  0.55798  0.26621  0.21911  1.0000
  H   H2542     1.0  0.56002  0.31707  0.78623  1.0000
  C   C3188     1.0  0.64083  0.18261  0.49812  1.0000
  C   C3189     1.0  0.69504  0.25073  0.14485  1.0000
  C   C3190     1.0  0.66673  0.20325  0.72616  1.0000
  S   S440      1.0  0.70781  0.24138  0.20665  1.0000
  C   C3191     1.0  0.64866  0.18032  0.87229  1.0000
  H   H2543     1.0  0.65616  0.21470  0.68820  1.0000
  C   C3192     1.0  0.74561  0.22959  0.23132  1.0000
  H   H2544     1.0  0.67326  0.21890  0.70200  1.0000
  H   H2545     1.0  0.60127  0.27566  0.25570  1.0000
  C   C3193     1.0  0.56543  0.26471  0.23589  1.0000
  C   C3194     1.0  0.72067  0.20208  0.17029  1.0000
  C   C3195     1.0  0.58908  0.29544  0.29086  1.0000
  H   H2546     1.0  0.59941  0.20918  0.38127  1.0000
  H   H2547     1.0  0.74061  0.27392  0.07106  1.0000
  C   C3196     1.0  0.72856  0.28036  0.96233  1.0000
  H   H2548     1.0  0.72030  0.27856  0.88427  1.0000
  H   H2549     1.0  0.73591  0.21497  0.80378  1.0000
  H   H2550     1.0  0.67990  0.18552  0.52163  1.0000
  H   H2551     1.0  0.56716  0.25759  0.24188  1.0000
  C   C3197     1.0  0.60072  0.27546  0.22662  1.0000
  C   C3198     1.0  0.59155  0.27293  0.22198  1.0000
  H   H2552     1.0  0.58970  0.29154  0.23722  1.0000
  H   H2553     1.0  0.59277  0.30308  0.27393  1.0000
  C   C3199     1.0  0.59862  0.20159  0.39875  1.0000
  C   C3200     1.0  0.64953  0.21424  0.71147  1.0000
  C   C3201     1.0  0.67051  0.20861  0.34714  1.0000
  C   C3202     1.0  0.63239  0.21357  0.77063  1.0000
  C   C3203     1.0  0.67286  0.22435  0.82421  1.0000
  C   C3204     1.0  0.64803  0.20930  0.75262  1.0000
  H   H2554     1.0  0.67639  0.22887  0.83830  1.0000
  H   H2555     1.0  0.67581  0.32051  0.16812  1.0000
  C   C3205     1.0  0.60925  0.27783  0.19362  1.0000
  H   H2556     1.0  0.54725  0.30884  0.76457  1.0000
  H   H2557     1.0  0.66551  0.32325  0.28819  1.0000
  P   P107      1.0  0.74434  0.22952  0.83600  1.0000
  C   C3206     1.0  0.66757  0.19410  0.72160  1.0000
  H   H2558     1.0  0.72964  0.27624  0.27764  1.0000
  C   C3207     1.0  0.64182  0.19749  0.29700  1.0000
  C   C3208     1.0  0.64248  0.21882  0.70012  1.0000
  H   H2559     1.0  0.64375  0.22277  0.66846  1.0000
  C   C3209     1.0  0.59103  0.27229  0.18447  1.0000
  C   C3210     1.0  0.68372  0.18696  0.17675  1.0000
  C   C3211     1.0  0.62173  0.17904  0.40868  1.0000
  H   H2560     1.0  0.58410  0.27029  0.17988  1.0000
  C   C3212     1.0  0.71315  0.22865  0.04924  1.0000
  C   C3213     1.0  0.63928  0.20877  0.78198  1.0000
  H   H2561     1.0  0.70949  0.26341  0.93788  1.0000
  C   C3214     1.0  0.60864  0.27755  0.15597  1.0000
  C   C3215     1.0  0.59956  0.27458  0.15170  1.0000
  C   C3216     1.0  0.65923  0.20268  0.52744  1.0000
  Fe  Fe223     1.0  0.69915  0.21426  0.95845  1.0000
  H   H2562     1.0  0.67620  0.20621  0.78294  1.0000
  H   H2563     1.0  0.68787  0.20148  0.63810  1.0000
  H   H2564     1.0  0.62412  0.23457  0.60992  1.0000
  H   H2565     1.0  0.59914  0.27433  0.12246  1.0000
  C   C3217     1.0  0.70457  0.21334  0.04619  1.0000
  H   H2566     1.0  0.60048  0.18371  0.51731  1.0000
  C   C3218     1.0  0.56840  0.30092  0.96724  1.0000
  H   H2567     1.0  0.65825  0.18461  0.38017  1.0000
  Fe  Fe224     1.0  0.69816  0.21425  0.87424  1.0000
  C   C3219     1.0  0.56544  0.26385  0.06585  1.0000
  S   S441      1.0  0.68700  0.20855  0.93680  1.0000
  H   H2568     1.0  0.66873  0.32959  0.84651  1.0000
  C   C3220     1.0  0.60601  0.32303  0.06483  1.0000
  C   C3221     1.0  0.69413  0.21732  0.41428  1.0000
  H   H2569     1.0  0.61424  0.32384  0.42330  1.0000
  C   C3222     1.0  0.71003  0.21176  0.37108  1.0000
  C   C3223     1.0  0.72234  0.27187  0.99327  1.0000
  C   C3224     1.0  0.72773  0.28283  0.92334  1.0000
  C   C3225     1.0  0.63396  0.21858  0.72976  1.0000
  C   C3226     1.0  0.68641  0.17162  0.44412  1.0000
  H   H2570     1.0  0.72612  0.25165  0.10465  1.0000
  C   C3227     1.0  0.68148  0.19142  0.84893  1.0000
  C   C3228     1.0  0.70309  0.22420  0.39322  1.0000
  C   C3229     1.0  0.69909  0.26034  0.14188  1.0000
  C   C3230     1.0  0.61364  0.17953  0.61117  1.0000
  C   C3231     1.0  0.68786  0.32833  0.02299  1.0000
  H   H2571     1.0  0.68848  0.24640  0.16974  1.0000
  C   C3232     1.0  0.67223  0.18561  0.28920  1.0000
  H   H2572     1.0  0.67799  0.20967  0.56069  1.0000
  H   H2573     1.0  0.63962  0.32106  0.43808  1.0000
  S   S442      1.0  0.69868  0.20638  0.82561  1.0000
  C   C3233     1.0  0.65186  0.32431  0.09544  1.0000
  C   C3234     1.0  0.67714  0.20105  0.18342  1.0000
  H   H2574     1.0  0.61835  0.31518  0.71238  1.0000
  C   C3235     1.0  0.69258  0.32830  0.98383  1.0000
  C   C3236     1.0  0.74772  0.23916  0.20457  1.0000
  H   H2575     1.0  0.66775  0.18805  0.27095  1.0000
  S   S443      1.0  0.72689  0.24213  0.27107  1.0000
  P   P108      1.0  0.72399  0.26839  0.04274  1.0000
  C   C3237     1.0  0.74577  0.31948  0.13225  1.0000
  C   C3238     1.0  0.59272  0.32860  0.36329  1.0000
  H   H2576     1.0  0.71863  0.28723  0.03398  1.0000
  H   H2577     1.0  0.67166  0.21547  0.32323  1.0000
  P   P109      1.0  0.68138  0.19875  0.44025  1.0000
  H   H2578     1.0  0.68065  0.21482  0.37211  1.0000
  C   C3239     1.0  0.68189  0.20201  0.66212  1.0000
  H   H2579     1.0  0.70431  0.17034  0.22603  1.0000
  C   C3240     1.0  0.72859  0.29602  0.05251  1.0000
  C   C3241     1.0  0.69309  0.20754  0.41439  1.0000
  P   P110      1.0  0.69327  0.18035  0.17755  1.0000
  C   C3242     1.0  0.66415  0.20014  0.34939  1.0000
  C   C3243     1.0  0.73706  0.27995  0.06623  1.0000
  H   H2580     1.0  0.61178  0.33074  0.09985  1.0000
  C   C3244     1.0  0.68549  0.18128  0.43063  1.0000
  H   H2581     1.0  0.68725  0.20581  0.50113  1.0000
  H   H2582     1.0  0.63331  0.32896  0.94289  1.0000
  C   C3245     1.0  0.68958  0.17009  0.22417  1.0000
  H   H2583     1.0  0.69224  0.18776  0.09447  1.0000
  H   H2584     1.0  0.73824  0.23556  0.90908  1.0000
  H   H2585     1.0  0.62863  0.22236  0.72124  1.0000
  C   C3246     1.0  0.60602  0.30649  0.76458  1.0000
  C   C3247     1.0  0.57886  0.31728  0.03017  1.0000
  H   H2586     1.0  0.71611  0.20968  0.35335  1.0000
  C   C3248     1.0  0.72899  0.27937  0.05216  1.0000
  H   H2587     1.0  0.62590  0.21352  0.79382  1.0000
  H   H2588     1.0  0.66045  0.20041  0.32700  1.0000
  C   C3249     1.0  0.74036  0.26255  0.00563  1.0000
  C   C3250     1.0  0.66497  0.32901  0.87755  1.0000
  C   C3251     1.0  0.74791  0.26432  0.27189  1.0000
  C   C3252     1.0  0.56736  0.29138  0.96499  1.0000
  C   C3253     1.0  0.61571  0.18104  0.76164  1.0000
  H   H2589     1.0  0.68660  0.18477  0.39874  1.0000
  C   C3254     1.0  0.74279  0.25531  0.27106  1.0000
  H   H2590     1.0  0.72933  0.22621  0.98077  1.0000
  C   C3255     1.0  0.62483  0.18156  0.16538  1.0000
  C   C3256     1.0  0.73300  0.25384  0.27143  1.0000
  H   H2591     1.0  0.64387  0.20267  0.31167  1.0000
  C   C3257     1.0  0.67421  0.20719  0.54176  1.0000
  H   H2592     1.0  0.72288  0.20817  0.00226  1.0000
  H   H2593     1.0  0.58384  0.19688  0.39982  1.0000
  H   H2594     1.0  0.73761  0.24096  0.10147  1.0000
  S   S444      1.0  0.69700  0.19738  0.30867  1.0000
  C   C3258     1.0  0.61623  0.17369  0.39164  1.0000
  C   C3259     1.0  0.56513  0.33142  0.64652  1.0000
  C   C3260     1.0  0.68302  0.18643  0.45816  1.0000
  C   C3261     1.0  0.66445  0.20053  0.49353  1.0000
  C   C3262     1.0  0.63303  0.33337  0.91390  1.0000
  H   H2595     1.0  0.62630  0.19547  0.32418  1.0000
  H   H2596     1.0  0.60286  0.18793  0.60494  1.0000
  H   H2597     1.0  0.69228  0.33056  0.04023  1.0000
  C   C3263     1.0  0.67566  0.20819  0.37486  1.0000
  C   C3264     1.0  0.59535  0.32628  0.32718  1.0000
  H   H2598     1.0  0.73274  0.28923  0.89941  1.0000
  H   H2599     1.0  0.72843  0.27518  0.17735  1.0000
  H   H2600     1.0  0.73662  0.31560  0.37307  1.0000
  C   C3265     1.0  0.67461  0.20178  0.48329  1.0000
  H   H2601     1.0  0.72191  0.21359  0.77793  1.0000
  H   H2602     1.0  0.58696  0.28576  0.99127  1.0000
  H   H2603     1.0  0.66054  0.19783  0.47554  1.0000
  C   C3266     1.0  0.57618  0.30511  0.97814  1.0000
  C   C3267     1.0  0.73175  0.26559  0.85021  1.0000
  C   C3268     1.0  0.56540  0.32454  0.93889  1.0000
  C   C3269     1.0  0.55253  0.32754  0.00484  1.0000
  H   H2604     1.0  0.69620  0.18189  0.03600  1.0000
  C   C3270     1.0  0.63131  0.18513  0.18373  1.0000
  C   C3271     1.0  0.66288  0.19125  0.37954  1.0000
  C   C3272     1.0  0.67452  0.19928  0.40505  1.0000
  C   C3273     1.0  0.61222  0.33060  0.06951  1.0000
  C   C3274     1.0  0.73382  0.26365  0.15834  1.0000
  H   H2605     1.0  0.66162  0.18457  0.60449  1.0000
  C   C3275     1.0  0.62845  0.19776  0.11589  1.0000
  C   C3276     1.0  0.64133  0.18613  0.67301  1.0000
  C   C3277     1.0  0.63197  0.19365  0.30336  1.0000
  H   H2606     1.0  0.61806  0.18288  0.57965  1.0000
  H   H2607     1.0  0.70050  0.19750  0.39043  1.0000
  H   H2608     1.0  0.68776  0.18731  0.74373  1.0000
  C   C3278     1.0  0.67577  0.18350  0.16516  1.0000
  H   H2609     1.0  0.74170  0.24237  0.20120  1.0000
  C   C3279     1.0  0.63178  0.17946  0.39944  1.0000
  P   P111      1.0  0.63303  0.17705  0.22782  1.0000
  C   C3280     1.0  0.59483  0.32320  0.39707  1.0000
  H   H2610     1.0  0.57345  0.27866  0.97058  1.0000
  C   C3281     1.0  0.73636  0.31983  0.39363  1.0000
  H   H2611     1.0  0.74128  0.26855  0.97863  1.0000
  C   C3282     1.0  0.69015  0.19721  0.81830  1.0000
  H   H2612     1.0  0.74418  0.31797  0.21907  1.0000
  C   C3283     1.0  0.60515  0.32988  0.89967  1.0000
  C   C3284     1.0  0.68014  0.32773  0.14852  1.0000
  C   C3285     1.0  0.74694  0.25651  0.00413  1.0000
  C   C3286     1.0  0.66974  0.17578  0.31429  1.0000
  C   C3287     1.0  0.58032  0.31731  0.10621  1.0000
  C   C3288     1.0  0.69227  0.19560  0.78034  1.0000
  C   C3289     1.0  0.57081  0.16981  0.88204  1.0000
  H   H2613     1.0  0.59245  0.29815  0.81107  1.0000
  H   H2614     1.0  0.65671  0.19226  0.65807  1.0000
  H   H2615     1.0  0.66690  0.18385  0.43054  1.0000
  H   H2616     1.0  0.67965  0.19249  0.87832  1.0000
  C   C3290     1.0  0.58887  0.18485  0.43093  1.0000
  H   H2617     1.0  0.72163  0.31977  0.48443  1.0000
  C   C3291     1.0  0.68593  0.18839  0.77309  1.0000
  C   C3292     1.0  0.63648  0.19505  0.16720  1.0000
  C   C3293     1.0  0.60500  0.18239  0.62543  1.0000
  C   C3294     1.0  0.68044  0.19233  0.28772  1.0000
  C   C3295     1.0  0.57410  0.28596  0.97329  1.0000
  H   H2618     1.0  0.57744  0.31916  0.75000  1.0000
  H   H2619     1.0  0.66388  0.20182  0.16869  1.0000
  H   H2620     1.0  0.62168  0.18478  0.28726  1.0000
  H   H2621     1.0  0.73427  0.28493  0.96784  1.0000
  C   C3296     1.0  0.59590  0.30278  0.77966  1.0000
  C   C3297     1.0  0.55753  0.32856  0.93405  1.0000
  C   C3298     1.0  0.60484  0.31463  0.69857  1.0000
  C   C3299     1.0  0.73191  0.25314  0.07638  1.0000
  H   H2622     1.0  0.69891  0.19997  0.75626  1.0000
  C   C3300     1.0  0.65637  0.33215  0.21191  1.0000
  C   C3301     1.0  0.55116  0.33016  0.96684  1.0000
  H   H2623     1.0  0.61038  0.30479  0.78445  1.0000
  H   H2624     1.0  0.72539  0.30229  0.04677  1.0000
  C   C3302     1.0  0.73849  0.24708  0.07477  1.0000
  H   H2625     1.0  0.68207  0.19992  0.26913  1.0000
  C   C3303     1.0  0.74075  0.28843  0.07392  1.0000
  H   H2626     1.0  0.64153  0.19805  0.18053  1.0000
  C   C3304     1.0  0.68422  0.17922  0.33396  1.0000
  C   C3305     1.0  0.62934  0.18742  0.28259  1.0000
  C   C3306     1.0  0.64687  0.17767  0.61203  1.0000
  C   C3307     1.0  0.74594  0.24871  0.03859  1.0000
  H   H2627     1.0  0.58217  0.17944  0.43787  1.0000
  H   H2628     1.0  0.56131  0.32153  0.03956  1.0000
  H   H2629     1.0  0.59364  0.33035  0.30107  1.0000
  H   H2630     1.0  0.63918  0.18910  0.69765  1.0000
  H   H2631     1.0  0.74020  0.25294  0.93949  1.0000
  H   H2632     1.0  0.62724  0.20265  0.09006  1.0000
  C   C3308     1.0  0.73599  0.22766  0.91796  1.0000
  C   C3309     1.0  0.71305  0.19769  0.20706  1.0000
  H   H2633     1.0  0.64921  0.17427  0.58899  1.0000
  H   H2634     1.0  0.58003  0.29262  0.70116  1.0000
  H   H2635     1.0  0.62086  0.17392  0.17714  1.0000
  H   H2636     1.0  0.61368  0.32937  0.96214  1.0000
  C   C3310     1.0  0.66480  0.32835  0.26167  1.0000
  H   H2637     1.0  0.59229  0.18012  0.67695  1.0000
  H   H2638     1.0  0.72952  0.26911  0.82477  1.0000
  H   H2639     1.0  0.57187  0.30179  0.06087  1.0000
  C   C3311     1.0  0.63424  0.18018  0.66459  1.0000
  C   C3312     1.0  0.63507  0.20131  0.13340  1.0000
  S   S445      1.0  0.65533  0.16989  0.71637  1.0000
  C   C3313     1.0  0.72896  0.20729  0.94227  1.0000
  C   C3314     1.0  0.63651  0.18462  0.25646  1.0000
  H   H2640     1.0  0.63905  0.20894  0.12110  1.0000
  C   C3315     1.0  0.64902  0.19485  0.27063  1.0000
  C   C3316     1.0  0.68285  0.17221  0.51271  1.0000
  C   C3317     1.0  0.65556  0.32710  0.95826  1.0000
  H   H2641     1.0  0.73582  0.32836  0.89083  1.0000
  H   H2642     1.0  0.71337  0.19964  0.23374  1.0000
  C   C3318     1.0  0.69571  0.17577  0.13485  1.0000
  C   C3319     1.0  0.71900  0.22733  0.78297  1.0000
  C   C3320     1.0  0.63693  0.17595  0.63382  1.0000
  C   C3321     1.0  0.61641  0.17231  0.63755  1.0000
  H   H2643     1.0  0.56846  0.17432  0.33517  1.0000
  C   C3322     1.0  0.67735  0.18246  0.80393  1.0000
  C   C3323     1.0  0.73434  0.21254  0.90156  1.0000
  S   S446      1.0  0.56571  0.32842  0.57432  1.0000
  C   C3324     1.0  0.64250  0.17093  0.21181  1.0000
  H   H2644     1.0  0.69022  0.19863  0.19545  1.0000
  H   H2645     1.0  0.60851  0.17316  0.39835  1.0000
  H   H2646     1.0  0.69077  0.32527  0.93055  1.0000
  H   H2647     1.0  0.58255  0.28110  0.66215  1.0000
  H   H2648     1.0  0.59273  0.32486  0.42517  1.0000
  H   H2649     1.0  0.57559  0.17341  0.77973  1.0000
  H   H2650     1.0  0.67284  0.31928  0.96047  1.0000
  H   H2651     1.0  0.65367  0.32873  0.36059  1.0000
  C   C3325     1.0  0.64639  0.18835  0.25081  1.0000
  C   C3326     1.0  0.59956  0.17038  0.56333  1.0000
  C   C3327     1.0  0.74170  0.25926  0.15135  1.0000
  H   H2652     1.0  0.65207  0.18641  0.23053  1.0000
  H   H2653     1.0  0.68673  0.32987  0.19333  1.0000
  C   C3328     1.0  0.66085  0.33030  0.09078  1.0000
  C   C3329     1.0  0.69469  0.18102  0.09791  1.0000
  P   P112      1.0  0.57752  0.31743  0.98166  1.0000
  H   H2654     1.0  0.57037  0.32349  0.91293  1.0000
  H   H2655     1.0  0.56796  0.32498  0.65279  1.0000
  H   H2656     1.0  0.57343  0.30187  0.12709  1.0000
  H   H2657     1.0  0.56317  0.30498  0.95981  1.0000
  H   H2658     1.0  0.54757  0.32879  0.03022  1.0000
  C   C3330     1.0  0.63466  0.32960  0.88158  1.0000
  H   H2659     1.0  0.73806  0.22567  0.24785  1.0000
  C   C3331     1.0  0.73215  0.22085  0.80061  1.0000
  C   C3332     1.0  0.68639  0.33301  0.16298  1.0000
  H   H2660     1.0  0.56327  0.17027  0.89066  1.0000
  H   H2661     1.0  0.67770  0.20785  0.19057  1.0000
  C   C3333     1.0  0.72723  0.21220  0.97088  1.0000
  C   C3334     1.0  0.66866  0.18884  0.16226  1.0000
  H   H2662     1.0  0.66871  0.17954  0.86626  1.0000
  H   H2663     1.0  0.67514  0.17673  0.15786  1.0000
  C   C3335     1.0  0.57528  0.30859  0.06371  1.0000
  H   H2664     1.0  0.58389  0.32371  0.60511  1.0000
  C   C3336     1.0  0.60173  0.17080  0.69237  1.0000
  H   H2665     1.0  0.74349  0.27819  0.83807  1.0000
  C   C3337     1.0  0.64494  0.16993  0.17293  1.0000
  C   C3338     1.0  0.62337  0.18788  0.13177  1.0000
  S   S447      1.0  0.66911  0.17303  0.79655  1.0000
  C   C3339     1.0  0.67945  0.33187  0.10969  1.0000
  H   H2666     1.0  0.71739  0.24092  0.79414  1.0000
  H   H2667     1.0  0.72602  0.20311  0.10728  1.0000
  C   C3340     1.0  0.61673  0.32934  0.43586  1.0000
  H   H2668     1.0  0.63615  0.32238  0.88583  1.0000
  C   C3341     1.0  0.73487  0.22899  0.81263  1.0000
  C   C3342     1.0  0.58376  0.32601  0.07318  1.0000
  C   C3343     1.0  0.73968  0.27081  0.85781  1.0000
  H   H2669     1.0  0.60843  0.31904  0.66697  1.0000
  C   C3344     1.0  0.69690  0.17767  0.06449  1.0000
  C   C3345     1.0  0.73798  0.22277  0.88915  1.0000
  C   C3346     1.0  0.73340  0.27045  0.27553  1.0000
  C   C3347     1.0  0.70422  0.18853  0.17483  1.0000
  H   H2670     1.0  0.62670  0.17880  0.68252  1.0000
  H   H2671     1.0  0.65207  0.32617  0.98990  1.0000
  C   C3348     1.0  0.61108  0.17595  0.49464  1.0000
  C   C3349     1.0  0.64359  0.32813  0.09726  1.0000
  H   H2672     1.0  0.70046  0.33083  0.97083  1.0000
  C   C3350     1.0  0.67576  0.17260  0.33685  1.0000
  C   C3351     1.0  0.74285  0.26632  0.89003  1.0000
  H   H2673     1.0  0.71170  0.19116  0.11096  1.0000
  H   H2674     1.0  0.74367  0.28182  0.18895  1.0000
  C   C3352     1.0  0.59125  0.32640  0.64741  1.0000
  H   H2675     1.0  0.58107  0.31727  0.13537  1.0000
  C   C3353     1.0  0.57443  0.17249  0.34566  1.0000
  C   C3354     1.0  0.63239  0.17115  0.56646  1.0000
  C   C3355     1.0  0.72163  0.23541  0.79505  1.0000
  C   C3356     1.0  0.58305  0.32601  0.03527  1.0000
  H   H2676     1.0  0.74646  0.24942  0.27004  1.0000
  C   C3357     1.0  0.56694  0.32204  0.97677  1.0000
  C   C3358     1.0  0.63622  0.17465  0.37340  1.0000
  H   H2677     1.0  0.60751  0.32958  0.80036  1.0000
  H   H2678     1.0  0.59750  0.31571  0.94225  1.0000
  C   C3359     1.0  0.73526  0.33034  0.44854  1.0000
  C   C3360     1.0  0.71202  0.19278  0.13822  1.0000
  C   C3361     1.0  0.61339  0.32981  0.99183  1.0000
  H   H2679     1.0  0.63522  0.33198  0.81947  1.0000
  H   H2680     1.0  0.61184  0.32757  0.88984  1.0000
  H   H2681     1.0  0.60278  0.32625  0.48191  1.0000
  C   C3362     1.0  0.68180  0.18184  0.49938  1.0000
  C   C3363     1.0  0.72782  0.32210  0.45677  1.0000
  C   C3364     1.0  0.61024  0.33065  0.46922  1.0000
  H   H2682     1.0  0.73107  0.24222  0.82142  1.0000
  H   H2683     1.0  0.63663  0.32338  0.10210  1.0000
  C   C3365     1.0  0.72945  0.23617  0.81032  1.0000
  H   H2684     1.0  0.55644  0.33057  0.90465  1.0000
  H   H2685     1.0  0.71270  0.22652  0.77270  1.0000
  C   C3366     1.0  0.72424  0.22004  0.78585  1.0000
  C   C3367     1.0  0.59695  0.32314  0.92971  1.0000
  H   H2686     1.0  0.59594  0.17421  0.45736  1.0000
  C   C3368     1.0  0.58854  0.32908  0.61216  1.0000
  H   H2687     1.0  0.64145  0.17309  0.15135  1.0000
  C   C3369     1.0  0.74597  0.30973  0.15037  1.0000
  C   C3370     1.0  0.74637  0.33045  0.23985  1.0000
  C   C3371     1.0  0.74325  0.33334  0.41285  1.0000
  H   H2688     1.0  0.59838  0.33196  0.68522  1.0000
  P   P113      1.0  0.63433  0.33365  0.37370  1.0000
  Fe  Fe225     1.0  0.57018  0.33252  0.81229  1.0000
  C   C3372     1.0  0.73756  0.33491  0.86473  1.0000
  C   C3373     1.0  0.74802  0.31430  0.27379  1.0000
  H   H2689     1.0  0.58711  0.33274  0.07683  1.0000
  C   C3374     1.0  0.74895  0.33397  0.26903  1.0000
  C   C3375     1.0  0.62631  0.33523  0.41814  1.0000
  C   C3376     1.0  0.59669  0.33370  0.65708  1.0000
  H   H2690     1.0  0.73274  0.33538  0.10369  1.0000
  H   H2691     1.0  0.58576  0.33283  0.01007  1.0000
  C   C3377     1.0  0.63423  0.33507  0.84409  1.0000
  H   H2692     1.0  0.54523  0.33352  0.96251  1.0000
  C   C3378     1.0  0.56330  0.33478  0.60970  1.0000
  H   H2693     1.0  0.56506  0.33389  0.70291  1.0000
  H   H2694     1.0  0.73485  0.33440  0.46985  1.0000
  H   H2695     1.0  0.74856  0.33012  0.82697  1.0000
  H   H2696     1.0  0.50896  0.33057  0.13430  1.0000
  H   H2697     1.0  0.74489  0.33537  0.21498  1.0000
  Fe  Fe226     1.0  0.53517  0.38927  0.29818  1.0000
  S   S448      1.0  0.53814  0.39881  0.23403  1.0000
  S   S449      1.0  0.54160  0.37595  0.31008  1.0000
  C   C3379     1.0  0.57182  0.40743  0.27768  1.0000
  S   S450      1.0  0.52430  0.41200  0.27327  1.0000
  H   H2698     1.0  0.59556  0.41982  0.22580  1.0000
  Fe  Fe227     1.0  0.52232  0.39894  0.25210  1.0000
  S   S451      1.0  0.51337  0.39979  0.20916  1.0000
  Fe  Fe228     1.0  0.53993  0.41138  0.25792  1.0000
  S   S452      1.0  0.55157  0.42467  0.21628  1.0000
  S   S453      1.0  0.51895  0.38813  0.31478  1.0000
  S   S454      1.0  0.53853  0.40197  0.32038  1.0000
  Fe  Fe229     1.0  0.57223  0.35777  0.44859  1.0000
  S   S455      1.0  0.57652  0.35471  0.50510  1.0000
  S   S456      1.0  0.56474  0.37033  0.43762  1.0000
  Fe  Fe230     1.0  0.59111  0.35454  0.46643  1.0000
  S   S457      1.0  0.60394  0.36094  0.48229  1.0000
  S   S458      1.0  0.58734  0.35905  0.40891  1.0000
  Fe  Fe231     1.0  0.63549  0.41165  0.37449  1.0000
  S   S459      1.0  0.64585  0.42479  0.32506  1.0000
  S   S460      1.0  0.62474  0.40290  0.35559  1.0000
  Fe  Fe232     1.0  0.64387  0.41545  0.43963  1.0000
  S   S461      1.0  0.65476  0.42915  0.39490  1.0000
  S   S462      1.0  0.64232  0.40787  0.50566  1.0000
  Fe  Fe233     1.0  0.64229  0.43239  0.37165  1.0000
  S   S463      1.0  0.63656  0.44617  0.36194  1.0000
  Fe  Fe234     1.0  0.65714  0.42004  0.35272  1.0000
  S   S464      1.0  0.67198  0.41936  0.31399  1.0000
  S   S465      1.0  0.63122  0.41935  0.41981  1.0000
  S   S466      1.0  0.64692  0.40625  0.39881  1.0000
  Fe  Fe235     1.0  0.58969  0.45556  0.24622  1.0000
  S   S467      1.0  0.60001  0.46842  0.24801  1.0000
  S   S468      1.0  0.57819  0.44397  0.29962  1.0000
  Fe  Fe236     1.0  0.59744  0.46085  0.15431  1.0000
  S   S469      1.0  0.60859  0.47408  0.14742  1.0000
  S   S470      1.0  0.59431  0.45448  0.10743  1.0000
  Fe  Fe237     1.0  0.61117  0.46445  0.20216  1.0000
  S   S471      1.0  0.62634  0.46269  0.20015  1.0000
  Fe  Fe238     1.0  0.59654  0.47697  0.19343  1.0000
  S   S472      1.0  0.59285  0.49175  0.17699  1.0000
  S   S473      1.0  0.60106  0.45100  0.20467  1.0000
  S   S474      1.0  0.58520  0.46442  0.19597  1.0000
  Fe  Fe239     1.0  0.52630  0.39982  0.98265  1.0000
  S   S475      1.0  0.51687  0.38938  0.96406  1.0000
  S   S476      1.0  0.53196  0.39603  0.03588  1.0000
  Fe  Fe240     1.0  0.52912  0.41695  0.90842  1.0000
  S   S477      1.0  0.51993  0.40826  0.88307  1.0000
  S   S478      1.0  0.53618  0.43299  0.87733  1.0000
  Fe  Fe241     1.0  0.50986  0.40200  0.94724  1.0000
  C   C3380     1.0  0.51254  0.44801  0.26210  1.0000
  Fe  Fe242     1.0  0.52773  0.39643  0.90121  1.0000
  S   S479      1.0  0.53318  0.38896  0.85476  1.0000
  S   S480      1.0  0.51839  0.41175  0.97127  1.0000
  S   S481      1.0  0.53779  0.40577  0.92094  1.0000
  Fe  Fe243     1.0  0.56424  0.34694  0.75202  1.0000
  Fe  Fe244     1.0  0.58374  0.35437  0.77033  1.0000
  S   S482      1.0  0.57532  0.34387  0.83735  1.0000
  S   S483      1.0  0.60732  0.36923  0.73911  1.0000
  Fe  Fe245     1.0  0.56193  0.34916  0.83476  1.0000
  S   S484      1.0  0.55516  0.35452  0.88678  1.0000
  S   S485      1.0  0.55585  0.33675  0.81542  1.0000
  S   S486      1.0  0.56928  0.35947  0.77199  1.0000
  Fe  Fe246     1.0  0.65212  0.42587  0.67887  1.0000
  S   S487      1.0  0.65918  0.42984  0.72311  1.0000
  S   S488      1.0  0.66018  0.42925  0.61187  1.0000
  Fe  Fe247     1.0  0.63236  0.41735  0.74230  1.0000
  S   S489      1.0  0.63764  0.42021  0.79148  1.0000
  S   S490      1.0  0.61639  0.41100  0.75967  1.0000
  Fe  Fe248     1.0  0.64552  0.43493  0.74564  1.0000
  S   S491      1.0  0.64397  0.44732  0.77206  1.0000
  Fe  Fe249     1.0  0.65065  0.41476  0.76564  1.0000
  S   S492      1.0  0.65417  0.40373  0.81460  1.0000
  S   S493      1.0  0.63935  0.43237  0.69769  1.0000
  S   S494      1.0  0.64451  0.41049  0.72018  1.0000
  Fe  Fe250     1.0  0.59862  0.47588  0.88868  1.0000
  S   S495      1.0  0.60107  0.48414  0.82322  1.0000
  S   S496      1.0  0.60718  0.48175  0.92437  1.0000
  Fe  Fe251     1.0  0.58201  0.45995  0.89313  1.0000
  S   S497      1.0  0.58294  0.46691  0.82825  1.0000
  S   S498      1.0  0.57154  0.44575  0.93650  1.0000
  Fe  Fe252     1.0  0.59917  0.46920  0.81549  1.0000
  S   S499      1.0  0.60750  0.46550  0.76123  1.0000
  Fe  Fe253     1.0  0.58468  0.48118  0.84143  1.0000
  H   H2699     1.0  0.51292  0.43405  0.92123  1.0000
  S   S500      1.0  0.59810  0.46116  0.87945  1.0000
  S   S501      1.0  0.58243  0.47400  0.90761  1.0000
  C   C3381     1.0  0.67186  0.41653  0.42122  1.0000
  Fe  Fe254     1.0  0.69069  0.37395  0.26705  1.0000
  S   S502      1.0  0.69669  0.36063  0.28463  1.0000
  S   S503      1.0  0.68022  0.37751  0.31712  1.0000
  Fe  Fe255     1.0  0.69808  0.37620  0.17757  1.0000
  S   S504      1.0  0.70441  0.36301  0.18827  1.0000
  S   S505      1.0  0.69973  0.38548  0.11391  1.0000
  Fe  Fe256     1.0  0.69050  0.35578  0.24033  1.0000
  Fe  Fe257     1.0  0.71022  0.36906  0.23123  1.0000
  S   S506      1.0  0.72592  0.36793  0.22692  1.0000
  S   S507      1.0  0.68371  0.36849  0.22617  1.0000
  S   S508      1.0  0.70467  0.38280  0.21706  1.0000
  Fe  Fe258     1.0  0.68739  0.35508  0.89075  1.0000
  S   S509      1.0  0.70099  0.36602  0.84594  1.0000
  S   S510      1.0  0.68065  0.34344  0.86823  1.0000
  Fe  Fe259     1.0  0.68708  0.36584  0.95292  1.0000
  S   S511      1.0  0.70049  0.37775  0.91242  1.0000
  S   S512      1.0  0.67831  0.36425  0.01730  1.0000
  Fe  Fe260     1.0  0.69372  0.37749  0.86314  1.0000
  S   S513      1.0  0.69389  0.39087  0.81264  1.0000
  Fe  Fe261     1.0  0.70660  0.36529  0.89872  1.0000
  H   H2700     1.0  0.60674  0.44185  0.27140  1.0000
  S   S514      1.0  0.67986  0.36662  0.90470  1.0000
  S   S515      1.0  0.69352  0.35333  0.94235  1.0000
  C   C3382     1.0  0.59807  0.42704  0.28814  1.0000
  H   H2701     1.0  0.59579  0.34999  0.88087  1.0000
  H   H2702     1.0  0.50481  0.47120  0.37998  1.0000
  C   C3383     1.0  0.55715  0.41043  0.13311  1.0000
  C   C3384     1.0  0.61804  0.40911  0.54038  1.0000
  H   H2703     1.0  0.57582  0.42099  0.04387  1.0000
  C   C3385     1.0  0.60349  0.41456  0.53527  1.0000
  H   H2704     1.0  0.57811  0.47060  0.02120  1.0000
  H   H2705     1.0  0.53281  0.41733  0.01409  1.0000
  C   C3386     1.0  0.52342  0.42681  0.18793  1.0000
  C   C3387     1.0  0.69383  0.37939  0.08751  1.0000
  C   C3388     1.0  0.68601  0.37113  0.10833  1.0000
  C   C3389     1.0  0.68124  0.36655  0.08658  1.0000
  C   C3390     1.0  0.68448  0.37002  0.04393  1.0000
  C   C3391     1.0  0.69230  0.37827  0.02318  1.0000
  C   C3392     1.0  0.69688  0.38301  0.04494  1.0000
  H   H2706     1.0  0.68358  0.36831  0.14117  1.0000
  H   H2707     1.0  0.67519  0.36018  0.10282  1.0000
  H   H2708     1.0  0.69473  0.38111  0.99039  1.0000
  H   H2709     1.0  0.70291  0.38941  0.02871  1.0000
  C   C3393     1.0  0.61162  0.42144  0.32614  1.0000
  H   H2710     1.0  0.64480  0.40333  0.32017  1.0000
  H   H2711     1.0  0.50902  0.44580  0.72227  1.0000
  C   C3394     1.0  0.50856  0.49448  0.55381  1.0000
  H   H2712     1.0  0.54622  0.37743  0.47996  1.0000
  C   C3395     1.0  0.50398  0.48781  0.67978  1.0000
  H   H2713     1.0  0.72740  0.38465  0.25892  1.0000
  H   H2714     1.0  0.53286  0.39392  0.55333  1.0000
  C   C3396     1.0  0.55797  0.40555  0.99088  1.0000
  C   C3397     1.0  0.61331  0.33775  0.48565  1.0000
  C   C3398     1.0  0.51623  0.47959  0.71978  1.0000
  C   C3399     1.0  0.51853  0.48974  0.69960  1.0000
  H   H2715     1.0  0.52668  0.41589  0.64619  1.0000
  Fe  Fe262     1.0  0.57239  0.33891  0.51050  1.0000
  C   C3400     1.0  0.63972  0.35043  0.96025  1.0000
  H   H2716     1.0  0.52092  0.47644  0.73558  1.0000
  H   H2717     1.0  0.61094  0.34453  0.85704  1.0000
  H   H2718     1.0  0.69650  0.34667  0.15106  1.0000
  C   C3401     1.0  0.53403  0.44034  0.19424  1.0000
  C   C3402     1.0  0.59716  0.41700  0.30750  1.0000
  C   C3403     1.0  0.50472  0.43000  0.74478  1.0000
  C   C3404     1.0  0.51749  0.48246  0.33975  1.0000
  C   C3405     1.0  0.55168  0.41753  0.12944  1.0000
  C   C3406     1.0  0.55237  0.37941  0.52549  1.0000
  C   C3407     1.0  0.52519  0.43332  0.20889  1.0000
  H   H2719     1.0  0.54500  0.39218  0.58963  1.0000
  H   H2720     1.0  0.52104  0.47746  0.32717  1.0000
  H   H2721     1.0  0.58766  0.39872  0.88521  1.0000
  H   H2722     1.0  0.56606  0.43337  0.03616  1.0000
  C   C3408     1.0  0.63392  0.45251  0.76820  1.0000
  C   C3409     1.0  0.62966  0.45196  0.73821  1.0000
  C   C3410     1.0  0.62169  0.45615  0.73579  1.0000
  C   C3411     1.0  0.61777  0.46071  0.76396  1.0000
  C   C3412     1.0  0.62199  0.46125  0.79401  1.0000
  C   C3413     1.0  0.63013  0.45729  0.79566  1.0000
  H   H2723     1.0  0.63260  0.44848  0.71635  1.0000
  H   H2724     1.0  0.61847  0.45573  0.71237  1.0000
  H   H2725     1.0  0.61906  0.46481  0.81560  1.0000
  H   H2726     1.0  0.63349  0.45792  0.81831  1.0000
  C   C3414     1.0  0.66521  0.39998  0.81124  1.0000
  C   C3415     1.0  0.67380  0.40474  0.77855  1.0000
  C   C3416     1.0  0.68257  0.40189  0.77919  1.0000
  C   C3417     1.0  0.68278  0.39427  0.81235  1.0000
  C   C3418     1.0  0.67414  0.38946  0.84460  1.0000
  C   C3419     1.0  0.66540  0.39225  0.84385  1.0000
  H   H2727     1.0  0.67374  0.41073  0.75325  1.0000
  H   H2728     1.0  0.68922  0.40565  0.75406  1.0000
  H   H2729     1.0  0.67420  0.38368  0.87039  1.0000
  H   H2730     1.0  0.65877  0.38850  0.86900  1.0000
  C   C3420     1.0  0.61022  0.38042  0.74916  1.0000
  C   C3421     1.0  0.61898  0.38722  0.72400  1.0000
  C   C3422     1.0  0.62096  0.39671  0.72671  1.0000
  C   C3423     1.0  0.61427  0.39932  0.75532  1.0000
  C   C3424     1.0  0.60590  0.39239  0.78234  1.0000
  C   C3425     1.0  0.60400  0.38292  0.78003  1.0000
  H   H2731     1.0  0.62405  0.38531  0.70110  1.0000
  H   H2732     1.0  0.62747  0.40210  0.70564  1.0000
  H   H2733     1.0  0.60093  0.39433  0.80542  1.0000
  H   H2734     1.0  0.59772  0.37779  0.80286  1.0000
  H   H2735     1.0  0.61677  0.41937  0.34162  1.0000
  C   C3426     1.0  0.53950  0.37958  0.86410  1.0000
  C   C3427     1.0  0.54171  0.37651  0.90023  1.0000
  C   C3428     1.0  0.54655  0.36884  0.90680  1.0000
  C   C3429     1.0  0.54929  0.36427  0.87721  1.0000
  C   C3430     1.0  0.54726  0.36748  0.84078  1.0000
  C   C3431     1.0  0.54233  0.37507  0.83441  1.0000
  H   H2736     1.0  0.53960  0.37998  0.92314  1.0000
  H   H2737     1.0  0.54815  0.36640  0.93491  1.0000
  H   H2738     1.0  0.54929  0.36399  0.81785  1.0000
  H   H2739     1.0  0.54055  0.37732  0.80665  1.0000
  C   C3432     1.0  0.54579  0.43655  0.89485  1.0000
  C   C3433     1.0  0.54756  0.42998  0.92687  1.0000
  C   C3434     1.0  0.55535  0.43290  0.94020  1.0000
  C   C3435     1.0  0.56156  0.44230  0.92081  1.0000
  C   C3436     1.0  0.55974  0.44885  0.88900  1.0000
  C   C3437     1.0  0.55181  0.44603  0.87638  1.0000
  H   H2740     1.0  0.54284  0.42271  0.94187  1.0000
  H   H2741     1.0  0.55653  0.42788  0.96558  1.0000
  H   H2742     1.0  0.56435  0.45616  0.87458  1.0000
  H   H2743     1.0  0.55034  0.45121  0.85239  1.0000
  C   C3438     1.0  0.61662  0.40305  0.51724  1.0000
  C   C3439     1.0  0.54093  0.40139  0.41906  1.0000
  C   C3440     1.0  0.59800  0.46231  0.05692  1.0000
  C   C3441     1.0  0.60483  0.47133  0.04344  1.0000
  C   C3442     1.0  0.60772  0.47727  0.00249  1.0000
  C   C3443     1.0  0.60358  0.47433  0.97542  1.0000
  C   C3444     1.0  0.59662  0.46543  0.98920  1.0000
  C   C3445     1.0  0.59401  0.45933  0.02962  1.0000
  H   H2744     1.0  0.60799  0.47362  0.06430  1.0000
  H   H2745     1.0  0.61316  0.48414  0.99171  1.0000
  H   H2746     1.0  0.59336  0.46316  0.96849  1.0000
  H   H2747     1.0  0.58879  0.45233  0.03989  1.0000
  C   C3446     1.0  0.64698  0.41419  0.53481  1.0000
  C   C3447     1.0  0.65298  0.42371  0.51723  1.0000
  C   C3448     1.0  0.65694  0.42829  0.54117  1.0000
  C   C3449     1.0  0.65460  0.42356  0.58313  1.0000
  C   C3450     1.0  0.64835  0.41415  0.60089  1.0000
  C   C3451     1.0  0.64474  0.40942  0.57665  1.0000
  H   H2748     1.0  0.65475  0.42747  0.48505  1.0000
  H   H2749     1.0  0.66178  0.43556  0.52718  1.0000
  H   H2750     1.0  0.64657  0.41039  0.63307  1.0000
  H   H2751     1.0  0.64024  0.40201  0.59035  1.0000
  C   C3452     1.0  0.63345  0.45035  0.31731  1.0000
  C   C3453     1.0  0.62613  0.45559  0.31738  1.0000
  C   C3454     1.0  0.62359  0.45906  0.28205  1.0000
  C   C3455     1.0  0.62865  0.45766  0.24599  1.0000
  C   C3456     1.0  0.63605  0.45253  0.24579  1.0000
  C   C3457     1.0  0.63834  0.44876  0.28147  1.0000
  H   H2752     1.0  0.62245  0.45701  0.34476  1.0000
  H   H2753     1.0  0.61797  0.46311  0.28236  1.0000
  H   H2754     1.0  0.64004  0.45150  0.21791  1.0000
  H   H2755     1.0  0.64410  0.44489  0.28089  1.0000
  C   C3458     1.0  0.67428  0.40773  0.31422  1.0000
  C   C3459     1.0  0.68381  0.40702  0.29598  1.0000
  C   C3460     1.0  0.68575  0.39783  0.29577  1.0000
  C   C3461     1.0  0.67816  0.38931  0.31367  1.0000
  C   C3462     1.0  0.66868  0.39004  0.33164  1.0000
  C   C3463     1.0  0.66675  0.39918  0.33189  1.0000
  H   H2756     1.0  0.68971  0.41358  0.28240  1.0000
  H   H2757     1.0  0.69312  0.39729  0.28236  1.0000
  H   H2758     1.0  0.66278  0.38350  0.34527  1.0000
  H   H2759     1.0  0.65939  0.39958  0.34553  1.0000
  Fe  Fe263     1.0  0.58241  0.34284  0.42074  1.0000
  H   H2760     1.0  0.61346  0.35154  0.91383  1.0000
  C   C3464     1.0  0.51020  0.50142  0.57318  1.0000
  C   C3465     1.0  0.74725  0.34445  0.79512  1.0000
  C   C3466     1.0  0.60987  0.37264  0.44749  1.0000
  C   C3467     1.0  0.60930  0.37500  0.40820  1.0000
  C   C3468     1.0  0.61417  0.38423  0.37980  1.0000
  C   C3469     1.0  0.61936  0.39126  0.39104  1.0000
  C   C3470     1.0  0.61999  0.38899  0.43034  1.0000
  C   C3471     1.0  0.61524  0.37962  0.45868  1.0000
  H   H2761     1.0  0.60527  0.36966  0.39930  1.0000
  H   H2762     1.0  0.61377  0.38598  0.34931  1.0000
  H   H2763     1.0  0.62403  0.39448  0.43890  1.0000
  H   H2764     1.0  0.61565  0.37781  0.48921  1.0000
  C   C3472     1.0  0.51914  0.40032  0.15865  1.0000
  C   C3473     1.0  0.51393  0.40143  0.13082  1.0000
  C   C3474     1.0  0.51797  0.40065  0.09204  1.0000
  C   C3475     1.0  0.52713  0.39851  0.08139  1.0000
  C   C3476     1.0  0.53249  0.39784  0.10848  1.0000
  C   C3477     1.0  0.52858  0.39888  0.14667  1.0000
  P   P114      1.0  0.66825  0.38691  0.47176  1.0000
  C   C3478     1.0  0.50469  0.39652  0.83039  1.0000
  H   H2765     1.0  0.53961  0.39625  0.10035  1.0000
  H   H2766     1.0  0.53267  0.39800  0.16753  1.0000
  C   C3479     1.0  0.54819  0.37446  0.34507  1.0000
  C   C3480     1.0  0.55164  0.36593  0.35524  1.0000
  C   C3481     1.0  0.55671  0.36451  0.38371  1.0000
  C   C3482     1.0  0.55834  0.37165  0.40216  1.0000
  C   C3483     1.0  0.55491  0.38016  0.39191  1.0000
  C   C3484     1.0  0.54992  0.38159  0.36338  1.0000
  H   H2767     1.0  0.55034  0.36036  0.34127  1.0000
  H   H2768     1.0  0.55932  0.35791  0.39144  1.0000
  H   H2769     1.0  0.55619  0.38571  0.40585  1.0000
  H   H2770     1.0  0.54735  0.38817  0.35588  1.0000
  C   C3485     1.0  0.55881  0.42961  0.24082  1.0000
  C   C3486     1.0  0.55539  0.42798  0.28274  1.0000
  C   C3487     1.0  0.56138  0.43224  0.30134  1.0000
  C   C3488     1.0  0.57078  0.43802  0.27793  1.0000
  C   C3489     1.0  0.57417  0.43942  0.23631  1.0000
  C   C3490     1.0  0.56816  0.43539  0.21766  1.0000
  H   H2771     1.0  0.54805  0.42367  0.30039  1.0000
  H   H2772     1.0  0.55871  0.43125  0.33344  1.0000
  H   H2773     1.0  0.58144  0.44365  0.21802  1.0000
  H   H2774     1.0  0.57084  0.43666  0.18524  1.0000
  S   S516      1.0  0.56684  0.34179  0.45684  1.0000
  C   C3491     1.0  0.56767  0.47755  0.25985  1.0000
  C   C3492     1.0  0.56464  0.48602  0.24482  1.0000
  C   C3493     1.0  0.55820  0.48939  0.27123  1.0000
  C   C3494     1.0  0.55485  0.48431  0.31295  1.0000
  C   C3495     1.0  0.55793  0.47581  0.32848  1.0000
  P   P115      1.0  0.55373  0.46943  0.38260  1.0000
  C   C3496     1.0  0.54142  0.46201  0.39845  1.0000
  C   C3497     1.0  0.52873  0.44752  0.44414  1.0000
  C   C3498     1.0  0.52232  0.45040  0.42326  1.0000
  C   C3499     1.0  0.52536  0.45915  0.39056  1.0000
  C   C3500     1.0  0.53484  0.46498  0.37831  1.0000
  C   C3501     1.0  0.56188  0.46168  0.39394  1.0000
  H   H2775     1.0  0.50914  0.38687  0.87540  1.0000
  C   C3502     1.0  0.51482  0.37849  0.56613  1.0000
  C   C3503     1.0  0.57528  0.45013  0.40565  1.0000
  C   C3504     1.0  0.56753  0.44682  0.39306  1.0000
  C   C3505     1.0  0.56087  0.45257  0.38711  1.0000
  H   H2776     1.0  0.56751  0.49008  0.21275  1.0000
  H   H2777     1.0  0.50477  0.50033  0.38520  1.0000
  H   H2778     1.0  0.54994  0.48710  0.33303  1.0000
  H   H2779     1.0  0.51495  0.44591  0.43254  1.0000
  H   H2780     1.0  0.52029  0.46141  0.37489  1.0000
  H   H2781     1.0  0.53693  0.47179  0.35329  1.0000
  H   H2782     1.0  0.60821  0.33897  0.51079  1.0000
  C   C3506     1.0  0.57631  0.45917  0.41270  1.0000
  H   H2783     1.0  0.56692  0.43999  0.38621  1.0000
  H   H2784     1.0  0.55517  0.45007  0.37563  1.0000
  C   C3507     1.0  0.56645  0.41315  0.97359  1.0000
  C   C3508     1.0  0.58309  0.39532  0.87103  1.0000
  C   C3509     1.0  0.58283  0.38555  0.87253  1.0000
  C   C3510     1.0  0.57653  0.38081  0.85672  1.0000
  C   C3511     1.0  0.57052  0.38584  0.83926  1.0000
  H   H2785     1.0  0.55343  0.40402  0.02203  1.0000
  H   H2786     1.0  0.56848  0.41755  0.99127  1.0000
  H   H2787     1.0  0.57861  0.42120  0.92045  1.0000
  H   H2788     1.0  0.58738  0.38160  0.88666  1.0000
  H   H2789     1.0  0.57607  0.37315  0.85890  1.0000
  H   H2790     1.0  0.56534  0.38199  0.82869  1.0000
  C   C3512     1.0  0.69295  0.38940  0.37884  1.0000
  C   C3513     1.0  0.68538  0.39173  0.40492  1.0000
  C   C3514     1.0  0.65735  0.38306  0.45989  1.0000
  C   C3515     1.0  0.64892  0.38614  0.47539  1.0000
  C   C3516     1.0  0.64037  0.38313  0.46709  1.0000
  C   C3517     1.0  0.64020  0.37717  0.44256  1.0000
  C   C3518     1.0  0.64859  0.37416  0.42657  1.0000
  C   C3519     1.0  0.65715  0.37709  0.43512  1.0000
  C   C3520     1.0  0.67016  0.40642  0.42773  1.0000
  H   H2791     1.0  0.69802  0.39510  0.35207  1.0000
  H   H2792     1.0  0.68486  0.39929  0.39768  1.0000
  H   H2793     1.0  0.65115  0.37598  0.54530  1.0000
  H   H2794     1.0  0.64897  0.39093  0.49378  1.0000
  H   H2795     1.0  0.63395  0.38564  0.47902  1.0000
  H   H2796     1.0  0.63362  0.37501  0.43550  1.0000
  H   H2797     1.0  0.64855  0.36967  0.40701  1.0000
  H   H2798     1.0  0.66359  0.37483  0.42158  1.0000
  H   H2799     1.0  0.66910  0.40370  0.40367  1.0000
  H   H2800     1.0  0.67227  0.42151  0.39216  1.0000
  C   C3521     1.0  0.53905  0.46759  0.86900  1.0000
  C   C3522     1.0  0.54922  0.47096  0.85112  1.0000
  C   C3523     1.0  0.55519  0.47140  0.87532  1.0000
  C   C3524     1.0  0.55110  0.46832  0.91757  1.0000
  C   C3525     1.0  0.54097  0.46506  0.93566  1.0000
  C   C3526     1.0  0.53494  0.46486  0.91143  1.0000
  C   C3527     1.0  0.54866  0.46546  0.71504  1.0000
  C   C3528     1.0  0.54554  0.47405  0.71567  1.0000
  C   C3529     1.0  0.54022  0.47494  0.75246  1.0000
  H   H2801     1.0  0.56303  0.47409  0.86128  1.0000
  H   H2802     1.0  0.55581  0.46854  0.93608  1.0000
  H   H2803     1.0  0.53781  0.46281  0.96838  1.0000
  H   H2804     1.0  0.52709  0.46262  0.92570  1.0000
  H   H2805     1.0  0.55285  0.46484  0.68656  1.0000
  H   H2806     1.0  0.54734  0.48013  0.68775  1.0000
  H   H2807     1.0  0.53785  0.48166  0.75194  1.0000
  C   C3530     1.0  0.59373  0.37667  0.56658  1.0000
  C   C3531     1.0  0.59395  0.37971  0.60003  1.0000
  C   C3532     1.0  0.58907  0.37325  0.63993  1.0000
  C   C3533     1.0  0.58365  0.36387  0.64546  1.0000
  P   P116      1.0  0.58917  0.37726  0.68338  1.0000
  C   C3534     1.0  0.60009  0.38713  0.66579  1.0000
  C   C3535     1.0  0.57795  0.38102  0.70100  1.0000
  C   C3536     1.0  0.57705  0.38661  0.72752  1.0000
  C   C3537     1.0  0.56832  0.38938  0.74109  1.0000
  C   C3538     1.0  0.56026  0.38617  0.73016  1.0000
  C   C3539     1.0  0.56096  0.38034  0.70493  1.0000
  C   C3540     1.0  0.56978  0.37789  0.68996  1.0000
  C   C3541     1.0  0.60917  0.38520  0.64949  1.0000
  C   C3542     1.0  0.61774  0.39265  0.63422  1.0000
  C   C3543     1.0  0.61739  0.40204  0.63639  1.0000
  C   C3544     1.0  0.60840  0.40411  0.65173  1.0000
  C   C3545     1.0  0.59976  0.39678  0.66525  1.0000
  C   C3546     1.0  0.59053  0.36757  0.72443  1.0000
  C   C3547     1.0  0.59475  0.35923  0.71544  1.0000
  C   C3548     1.0  0.59715  0.35184  0.74778  1.0000
  C   C3549     1.0  0.59543  0.35276  0.78961  1.0000
  C   C3550     1.0  0.59110  0.36105  0.79950  1.0000
  C   C3551     1.0  0.58866  0.36844  0.76685  1.0000
  H   H2808     1.0  0.59773  0.39049  0.39380  1.0000
  H   H2809     1.0  0.59800  0.38709  0.59448  1.0000
  S   S517      1.0  0.55807  0.35152  0.70092  1.0000
  H   H2810     1.0  0.58305  0.38884  0.73790  1.0000
  H   H2811     1.0  0.56772  0.39385  0.76081  1.0000
  H   H2812     1.0  0.55340  0.38802  0.74197  1.0000
  H   H2813     1.0  0.55461  0.37750  0.69764  1.0000
  H   H2814     1.0  0.56999  0.37323  0.67109  1.0000
  H   H2815     1.0  0.60963  0.37786  0.64902  1.0000
  H   H2816     1.0  0.62468  0.39103  0.62211  1.0000
  H   H2817     1.0  0.62409  0.40772  0.62619  1.0000
  H   H2818     1.0  0.60816  0.41142  0.65319  1.0000
  H   H2819     1.0  0.59295  0.39879  0.67488  1.0000
  H   H2820     1.0  0.59663  0.35876  0.68507  1.0000
  H   H2821     1.0  0.60047  0.34613  0.74037  1.0000
  H   H2822     1.0  0.59741  0.34759  0.81206  1.0000
  H   H2823     1.0  0.58979  0.36168  0.82956  1.0000
  H   H2824     1.0  0.58575  0.37437  0.77390  1.0000
  C   C3552     1.0  0.52495  0.49104  0.43253  1.0000
  C   C3553     1.0  0.52428  0.48176  0.42804  1.0000
  C   C3554     1.0  0.52041  0.47333  0.46227  1.0000
  C   C3555     1.0  0.51752  0.47418  0.50115  1.0000
  C   C3556     1.0  0.51837  0.48351  0.50600  1.0000
  C   C3557     1.0  0.52193  0.49192  0.47127  1.0000
  P   P117      1.0  0.51510  0.48489  0.55586  1.0000
  C   C3558     1.0  0.52607  0.48842  0.56806  1.0000
  S   S518      1.0  0.50430  0.46116  0.75039  1.0000
  H   H2825     1.0  0.57585  0.45917  0.08958  1.0000
  C   C3559     1.0  0.52888  0.36792  0.48143  1.0000
  C   C3560     1.0  0.52638  0.48458  0.60774  1.0000
  H   H2826     1.0  0.59430  0.49600  0.76136  1.0000
  H   H2827     1.0  0.57829  0.38930  0.53110  1.0000
  H   H2828     1.0  0.52996  0.36570  0.51078  1.0000
  H   H2829     1.0  0.54783  0.44645  0.14793  1.0000
  C   C3561     1.0  0.50470  0.42615  0.14053  1.0000
  H   H2830     1.0  0.52662  0.48112  0.39798  1.0000
  H   H2831     1.0  0.51954  0.46614  0.45867  1.0000
  H   H2832     1.0  0.51449  0.46754  0.52698  1.0000
  H   H2833     1.0  0.53813  0.48855  0.18814  1.0000
  H   H2834     1.0  0.51114  0.38567  0.70854  1.0000
  H   H2835     1.0  0.52007  0.47952  0.63178  1.0000
  H   H2836     1.0  0.58060  0.44581  0.40897  1.0000
  H   H2837     1.0  0.54506  0.41652  0.15392  1.0000
  C   C3562     1.0  0.62474  0.48692  0.20464  1.0000
  H   H2838     1.0  0.54476  0.39592  0.41244  1.0000
  H   H2839     1.0  0.58832  0.36490  0.54659  1.0000
  C   C3563     1.0  0.58785  0.41701  0.23184  1.0000
  H   H2840     1.0  0.54332  0.41950  0.05533  1.0000
  H   H2841     1.0  0.60494  0.40106  0.28828  1.0000
  H   H2842     1.0  0.57546  0.37498  0.50813  1.0000
  C   C3564     1.0  0.56445  0.48949  0.74299  1.0000
  C   C3565     1.0  0.51428  0.43141  0.80132  1.0000
  C   C3566     1.0  0.51963  0.40046  0.67401  1.0000
  C   C3567     1.0  0.56363  0.44889  0.08937  1.0000
  H   H2843     1.0  0.50920  0.49023  0.86077  1.0000
  C   C3568     1.0  0.58260  0.38975  0.50098  1.0000
  H   H2844     1.0  0.57281  0.47510  0.23925  1.0000
  C   C3569     1.0  0.64581  0.35988  0.93917  1.0000
  C   C3570     1.0  0.63082  0.43855  0.93207  1.0000
  H   H2845     1.0  0.52256  0.43823  0.32407  1.0000
  C   C3571     1.0  0.61834  0.49692  0.05744  1.0000
  H   H2846     1.0  0.69985  0.43645  0.08999  1.0000
  C   C3572     1.0  0.67073  0.34396  0.20743  1.0000
  C   C3573     1.0  0.69613  0.40623  0.87911  1.0000
  C   C3574     1.0  0.53878  0.41798  0.39841  1.0000
  C   C3575     1.0  0.50748  0.40605  0.73436  1.0000
  C   C3576     1.0  0.55791  0.34822  0.62991  1.0000
  C   C3577     1.0  0.74780  0.40109  0.13282  1.0000
  C   C3578     1.0  0.64283  0.34354  0.98659  1.0000
  H   H2847     1.0  0.74139  0.39405  0.27123  1.0000
  H   H2848     1.0  0.57415  0.48029  0.16054  1.0000
  H   H2849     1.0  0.73382  0.34650  0.74205  1.0000
  C   C3579     1.0  0.53823  0.45332  0.43198  1.0000
  C   C3580     1.0  0.73229  0.37064  0.89182  1.0000
  H   H2850     1.0  0.70774  0.39967  0.85622  1.0000
  C   C3581     1.0  0.59613  0.34250  0.89460  1.0000
  C   C3582     1.0  0.59283  0.48861  0.68076  1.0000
  C   C3583     1.0  0.51762  0.43222  0.34990  1.0000
  P   P118      1.0  0.55482  0.48127  0.15208  1.0000
  H   H2851     1.0  0.66287  0.34603  0.16426  1.0000
  H   H2852     1.0  0.51130  0.37806  0.05430  1.0000
  C   C3584     1.0  0.50952  0.43568  0.13553  1.0000
  C   C3585     1.0  0.65736  0.35587  0.97440  1.0000
  H   H2853     1.0  0.60778  0.38460  0.29228  1.0000
  C   C3586     1.0  0.74683  0.35304  0.64176  1.0000
  P   P119      1.0  0.58667  0.40782  0.31244  1.0000
  C   C3587     1.0  0.58914  0.39594  0.31322  1.0000
  C   C3588     1.0  0.57756  0.40710  0.35873  1.0000
  C   C3589     1.0  0.57504  0.39895  0.39396  1.0000
  C   C3590     1.0  0.56821  0.39867  0.42990  1.0000
  C   C3591     1.0  0.56382  0.40652  0.43104  1.0000
  C   C3592     1.0  0.56639  0.41474  0.39617  1.0000
  C   C3593     1.0  0.57322  0.41503  0.36012  1.0000
  C   C3594     1.0  0.58130  0.38771  0.32545  1.0000
  C   C3595     1.0  0.58301  0.37846  0.32645  1.0000
  C   C3596     1.0  0.59255  0.37735  0.31465  1.0000
  C   C3597     1.0  0.60040  0.38552  0.30134  1.0000
  C   C3598     1.0  0.59873  0.39482  0.29991  1.0000
  C   C3599     1.0  0.56592  0.46200  0.01324  1.0000
  H   H2854     1.0  0.60301  0.40676  0.34502  1.0000
  H   H2855     1.0  0.57823  0.39272  0.39392  1.0000
  H   H2856     1.0  0.56630  0.39226  0.45658  1.0000
  H   H2857     1.0  0.55840  0.40620  0.45880  1.0000
  H   H2858     1.0  0.56303  0.42087  0.39680  1.0000
  H   H2859     1.0  0.57515  0.42144  0.33329  1.0000
  H   H2860     1.0  0.57384  0.38839  0.33460  1.0000
  H   H2861     1.0  0.57691  0.37212  0.33674  1.0000
  H   H2862     1.0  0.59384  0.37014  0.31584  1.0000
  C   C3600     1.0  0.56432  0.47242  0.30146  1.0000
  H   H2863     1.0  0.52629  0.44079  0.46979  1.0000
  C   C3601     1.0  0.57212  0.41530  0.93302  1.0000
  C   C3602     1.0  0.74617  0.35908  0.70992  1.0000
  H   H2864     1.0  0.60111  0.40486  0.41652  1.0000
  C   C3603     1.0  0.51766  0.49879  0.34394  1.0000
  H   H2865     1.0  0.56691  0.46596  0.31204  1.0000
  H   H2866     1.0  0.65416  0.34093  0.01300  1.0000
  H   H2867     1.0  0.55771  0.40618  0.61785  1.0000
  H   H2868     1.0  0.62364  0.47509  0.63678  1.0000
  C   C3604     1.0  0.60381  0.41433  0.32780  1.0000
  C   C3605     1.0  0.58176  0.41119  0.27114  1.0000
  C   C3606     1.0  0.67860  0.38432  0.43912  1.0000
  H   H2869     1.0  0.51385  0.40132  0.07105  1.0000
  C   C3607     1.0  0.53807  0.46725  0.78901  1.0000
  H   H2870     1.0  0.55254  0.47341  0.81845  1.0000
  C   C3608     1.0  0.56353  0.42701  0.06353  1.0000
  C   C3609     1.0  0.57089  0.39565  0.83700  1.0000
  H   H2871     1.0  0.72541  0.36813  0.14125  1.0000
  C   C3610     1.0  0.67630  0.39678  0.96940  1.0000
  H   H2872     1.0  0.57951  0.35889  0.67569  1.0000
  C   C3611     1.0  0.74480  0.33593  0.82866  1.0000
  C   C3612     1.0  0.69377  0.37967  0.38636  1.0000
  C   C3613     1.0  0.67001  0.39993  0.46465  1.0000
  H   H2873     1.0  0.69944  0.37785  0.36531  1.0000
  C   C3614     1.0  0.54632  0.45767  0.75118  1.0000
  C   C3615     1.0  0.53832  0.38544  0.51521  1.0000
  C   C3616     1.0  0.61901  0.33785  0.03528  1.0000
  H   H2874     1.0  0.56585  0.39924  0.82493  1.0000
  H   H2875     1.0  0.62886  0.36204  0.39930  1.0000
  C   C3617     1.0  0.72908  0.36957  0.74209  1.0000
  C   C3618     1.0  0.60208  0.40860  0.51146  1.0000
  C   C3619     1.0  0.65775  0.37590  0.55332  1.0000
  H   H2876     1.0  0.62699  0.38974  0.86938  1.0000
  C   C3620     1.0  0.50691  0.43973  0.16681  1.0000
  C   C3621     1.0  0.57727  0.40052  0.85250  1.0000
  H   H2877     1.0  0.61244  0.35228  0.40953  1.0000
  H   H2878     1.0  0.58116  0.43304  0.85231  1.0000
  C   C3622     1.0  0.59999  0.34337  0.63030  1.0000
  H   H2879     1.0  0.51555  0.50124  0.58888  1.0000
  C   C3623     1.0  0.67295  0.42021  0.45217  1.0000
  C   C3624     1.0  0.50980  0.42217  0.80160  1.0000
  H   H2880     1.0  0.59858  0.41921  0.54187  1.0000
  H   H2881     1.0  0.63793  0.37947  0.89029  1.0000
  C   C3625     1.0  0.55490  0.42593  0.09479  1.0000
  C   C3626     1.0  0.50751  0.45842  0.21044  1.0000
  C   C3627     1.0  0.68711  0.37227  0.42042  1.0000
  C   C3628     1.0  0.67957  0.37458  0.44678  1.0000
  C   C3629     1.0  0.66699  0.38045  0.52396  1.0000
  H   H2882     1.0  0.64980  0.36778  0.61634  1.0000
  H   H2883     1.0  0.67399  0.42803  0.44741  1.0000
  C   C3630     1.0  0.58397  0.41932  0.19993  1.0000
  H   H2884     1.0  0.51278  0.47401  0.86511  1.0000
  H   H2885     1.0  0.52908  0.35371  0.47405  1.0000
  C   C3631     1.0  0.53102  0.41566  0.43439  1.0000
  C   C3632     1.0  0.63747  0.38096  0.85996  1.0000
  C   C3633     1.0  0.55522  0.40006  0.96763  1.0000
  C   C3634     1.0  0.56930  0.40991  0.90930  1.0000
  C   C3635     1.0  0.62613  0.36281  0.37384  1.0000
  C   C3636     1.0  0.61686  0.35732  0.37967  1.0000
  C   C3637     1.0  0.62553  0.45955  0.02993  1.0000
  H   H2886     1.0  0.68768  0.36472  0.42579  1.0000
  H   H2887     1.0  0.67435  0.36872  0.47256  1.0000
  C   C3638     1.0  0.63133  0.38679  0.84818  1.0000
  C   C3639     1.0  0.54101  0.45855  0.78799  1.0000
  H   H2888     1.0  0.54860  0.45094  0.75085  1.0000
  C   C3640     1.0  0.67166  0.33745  0.24189  1.0000
  Fe  Fe264     1.0  0.52254  0.40139  0.33384  1.0000
  C   C3641     1.0  0.51908  0.42270  0.35563  1.0000
  H   H2889     1.0  0.56312  0.44366  0.11817  1.0000
  H   H2890     1.0  0.54860  0.39424  0.98076  1.0000
  C   C3642     1.0  0.63177  0.36942  0.33549  1.0000
  H   H2891     1.0  0.63901  0.37344  0.33153  1.0000
  H   H2892     1.0  0.57047  0.39789  0.63383  1.0000
  C   C3643     1.0  0.65695  0.37124  0.59382  1.0000
  C   C3644     1.0  0.67106  0.40368  0.49580  1.0000
  H   H2893     1.0  0.51625  0.49601  0.94494  1.0000
  H   H2894     1.0  0.59011  0.48208  0.11090  1.0000
  H   H2895     1.0  0.57480  0.41718  0.49150  1.0000
  H   H2896     1.0  0.66450  0.40728  0.20248  1.0000
  H   H2897     1.0  0.50263  0.45951  0.19261  1.0000
  P   P120      1.0  0.53135  0.46812  0.83725  1.0000
  H   H2898     1.0  0.55777  0.37529  0.51769  1.0000
  C   C3645     1.0  0.60366  0.42741  0.43879  1.0000
  H   H2899     1.0  0.57100  0.41750  0.18230  1.0000
  H   H2900     1.0  0.62201  0.49210  0.04396  1.0000
  H   H2901     1.0  0.54306  0.45104  0.44884  1.0000
  C   C3646     1.0  0.56079  0.40225  0.92700  1.0000
  P   P121      1.0  0.57637  0.41250  0.85672  1.0000
  C   C3647     1.0  0.65791  0.40319  0.22743  1.0000
  C   C3648     1.0  0.61313  0.35860  0.34733  1.0000
  H   H2902     1.0  0.60590  0.35435  0.35202  1.0000
  H   H2903     1.0  0.65466  0.35511  0.23460  1.0000
  C   C3649     1.0  0.66563  0.35932  0.81841  1.0000
  H   H2904     1.0  0.65408  0.39292  0.19818  1.0000
  C   C3650     1.0  0.57407  0.41556  0.20675  1.0000
  C   C3651     1.0  0.55720  0.44681  0.06827  1.0000
  C   C3652     1.0  0.50161  0.49493  0.53341  1.0000
  C   C3653     1.0  0.61278  0.43130  0.30485  1.0000
  C   C3654     1.0  0.67246  0.41378  0.48957  1.0000
  C   C3655     1.0  0.67497  0.36541  0.80633  1.0000
  H   H2905     1.0  0.58858  0.42414  0.17001  1.0000
  H   H2906     1.0  0.58530  0.39903  0.57922  1.0000
  S   S519      1.0  0.68171  0.34009  0.25891  1.0000
  C   C3656     1.0  0.58794  0.42124  0.84230  1.0000
  C   C3657     1.0  0.58797  0.43089  0.84282  1.0000
  C   C3658     1.0  0.64346  0.37760  0.83184  1.0000
  C   C3659     1.0  0.65540  0.40608  0.26193  1.0000
  C   C3660     1.0  0.62803  0.37087  0.30287  1.0000
  C   C3661     1.0  0.65205  0.36121  0.21969  1.0000
  C   C3662     1.0  0.65195  0.39502  0.22519  1.0000
  H   H2907     1.0  0.64392  0.36279  0.27558  1.0000
  C   C3663     1.0  0.67025  0.37817  0.76189  1.0000
  H   H2908     1.0  0.66008  0.41228  0.26424  1.0000
  H   H2909     1.0  0.67068  0.39890  0.52508  1.0000
  C   C3664     1.0  0.59769  0.34585  0.59424  1.0000
  H   H2910     1.0  0.59266  0.42945  0.27488  1.0000
  C   C3665     1.0  0.50519  0.41663  0.41728  1.0000
  C   C3666     1.0  0.58424  0.49800  0.28243  1.0000
  C   C3667     1.0  0.64596  0.36560  0.24283  1.0000
  H   H2911     1.0  0.55836  0.39804  0.90933  1.0000
  H   H2912     1.0  0.58166  0.41940  0.76886  1.0000
  C   C3668     1.0  0.61867  0.36533  0.30911  1.0000
  C   C3669     1.0  0.56802  0.40958  0.24555  1.0000
  H   H2913     1.0  0.56698  0.40279  0.30752  1.0000
  C   C3670     1.0  0.60595  0.43412  0.28637  1.0000
  H   H2914     1.0  0.61883  0.43678  0.30371  1.0000
  C   C3671     1.0  0.67537  0.38028  0.53582  1.0000
  H   H2915     1.0  0.51366  0.46438  0.81546  1.0000
  C   C3672     1.0  0.65480  0.36469  0.17728  1.0000
  C   C3673     1.0  0.54108  0.44096  0.15823  1.0000
  H   H2916     1.0  0.64843  0.37345  0.84133  1.0000
  C   C3674     1.0  0.64331  0.38976  0.25734  1.0000
  H   H2917     1.0  0.57010  0.40619  0.10561  1.0000
  H   H2918     1.0  0.68256  0.38387  0.51379  1.0000
  H   H2919     1.0  0.67303  0.41665  0.51390  1.0000
  H   H2920     1.0  0.57023  0.47100  0.72903  1.0000
  C   C3675     1.0  0.51869  0.48053  0.85012  1.0000
  C   C3676     1.0  0.64264  0.37356  0.22365  1.0000
  H   H2921     1.0  0.61558  0.36613  0.28475  1.0000
  C   C3677     1.0  0.64679  0.40098  0.29370  1.0000
  H   H2922     1.0  0.60528  0.36525  0.90541  1.0000
  C   C3678     1.0  0.66533  0.37108  0.60530  1.0000
  C   C3679     1.0  0.59360  0.39030  0.42380  1.0000
  H   H2923     1.0  0.55994  0.41577  0.54642  1.0000
  H   H2924     1.0  0.57076  0.47201  0.41149  1.0000
  H   H2925     1.0  0.74729  0.35426  0.02902  1.0000
  C   C3680     1.0  0.64551  0.37704  0.18096  1.0000
  C   C3681     1.0  0.59690  0.41887  0.82792  1.0000
  H   H2926     1.0  0.59722  0.41179  0.82413  1.0000
  C   C3682     1.0  0.65155  0.37260  0.15793  1.0000
  P   P122      1.0  0.63523  0.37961  0.25336  1.0000
  C   C3683     1.0  0.64068  0.39297  0.29123  1.0000
  C   C3684     1.0  0.64335  0.38008  0.79156  1.0000
  C   C3685     1.0  0.63115  0.38926  0.80833  1.0000
  C   C3686     1.0  0.50765  0.47360  0.72098  1.0000
  H   H2927     1.0  0.52432  0.39829  0.65081  1.0000
  H   H2928     1.0  0.53914  0.45240  0.81570  1.0000
  C   C3687     1.0  0.57025  0.41838  0.82326  1.0000
  C   C3688     1.0  0.57470  0.42102  0.78106  1.0000
  H   H2929     1.0  0.64321  0.38329  0.16540  1.0000
  C   C3689     1.0  0.59535  0.39846  0.43653  1.0000
  H   H2930     1.0  0.68042  0.36287  0.81898  1.0000
  C   C3690     1.0  0.67454  0.37561  0.57631  1.0000
  H   H2931     1.0  0.55861  0.44957  0.23241  1.0000
  H   H2932     1.0  0.60430  0.34896  0.63750  1.0000
  H   H2933     1.0  0.65958  0.36135  0.15936  1.0000
  H   H2934     1.0  0.56032  0.40679  0.25083  1.0000
  C   C3691     1.0  0.56552  0.41217  0.55347  1.0000
  C   C3692     1.0  0.52831  0.47987  0.83318  1.0000
  C   C3693     1.0  0.53828  0.38985  0.54540  1.0000
  H   H2935     1.0  0.54049  0.47079  0.45742  1.0000
  C   C3694     1.0  0.59678  0.43785  0.83131  1.0000
  H   H2936     1.0  0.66281  0.44060  0.87742  1.0000
  H   H2937     1.0  0.62880  0.39818  0.24247  1.0000
  H   H2938     1.0  0.63384  0.38942  0.31562  1.0000
  C   C3695     1.0  0.62720  0.38464  0.22746  1.0000
  H   H2939     1.0  0.63131  0.37174  0.75091  1.0000
  H   H2940     1.0  0.62663  0.39407  0.79894  1.0000
  H   H2941     1.0  0.59678  0.44528  0.83185  1.0000
  H   H2942     1.0  0.62248  0.35868  0.73362  1.0000
  C   C3696     1.0  0.52084  0.45782  0.85760  1.0000
  H   H2943     1.0  0.52033  0.37569  0.57754  1.0000
  C   C3697     1.0  0.65683  0.38697  0.70839  1.0000
  C   C3698     1.0  0.60569  0.42583  0.81691  1.0000
  H   H2944     1.0  0.65379  0.37533  0.12502  1.0000
  C   C3699     1.0  0.63715  0.38597  0.78005  1.0000
  C   C3700     1.0  0.63504  0.36633  0.74296  1.0000
  C   C3701     1.0  0.62997  0.35890  0.73296  1.0000
  H   H2945     1.0  0.51894  0.46596  0.59279  1.0000
  C   C3702     1.0  0.66078  0.39609  0.71101  1.0000
  C   C3703     1.0  0.55400  0.47851  0.40827  1.0000
  C   C3704     1.0  0.65697  0.38625  0.67015  1.0000
  C   C3705     1.0  0.60563  0.43526  0.81898  1.0000
  C   C3706     1.0  0.56137  0.42077  0.83845  1.0000
  H   H2946     1.0  0.66054  0.39688  0.74026  1.0000
  H   H2947     1.0  0.61261  0.42400  0.80591  1.0000
  H   H2948     1.0  0.55789  0.41908  0.87078  1.0000
  C   C3707     1.0  0.62535  0.39385  0.22756  1.0000
  H   H2949     1.0  0.68105  0.37556  0.58524  1.0000
  H   H2950     1.0  0.54982  0.41263  0.36315  1.0000
  P   P123      1.0  0.65152  0.37639  0.75403  1.0000
  C   C3708     1.0  0.64474  0.36667  0.74236  1.0000
  H   H2951     1.0  0.52511  0.42144  0.33428  1.0000
  C   C3709     1.0  0.51337  0.45798  0.83997  1.0000
  C   C3710     1.0  0.56584  0.41166  0.10235  1.0000
  H   H2952     1.0  0.55471  0.40401  0.16009  1.0000
  H   H2953     1.0  0.55736  0.38270  0.57251  1.0000
  H   H2954     1.0  0.68450  0.40547  0.10087  1.0000
  C   C3711     1.0  0.66490  0.40433  0.67600  1.0000
  C   C3712     1.0  0.66495  0.40358  0.63819  1.0000
  H   H2955     1.0  0.62355  0.37197  0.20882  1.0000
  C   C3713     1.0  0.66097  0.39454  0.63525  1.0000
  H   H2956     1.0  0.66085  0.39404  0.60595  1.0000
  C   C3714     1.0  0.57027  0.42590  0.75438  1.0000
  H   H2957     1.0  0.57378  0.42800  0.72185  1.0000
  C   C3715     1.0  0.62234  0.37915  0.20875  1.0000
  C   C3716     1.0  0.63415  0.43804  0.89252  1.0000
  P   P124      1.0  0.69156  0.41666  0.14951  1.0000
  C   C3717     1.0  0.53970  0.42524  0.04578  1.0000
  H   H2958     1.0  0.65386  0.37937  0.66714  1.0000
  C   C3718     1.0  0.63451  0.35178  0.72220  1.0000
  H   H2959     1.0  0.66787  0.41007  0.61136  1.0000
  C   C3719     1.0  0.64932  0.35961  0.73056  1.0000
  C   C3720     1.0  0.50499  0.42139  0.77328  1.0000
  C   C3721     1.0  0.61882  0.39752  0.20887  1.0000
  H   H2960     1.0  0.61739  0.40460  0.20925  1.0000
  H   H2961     1.0  0.66779  0.41141  0.67827  1.0000
  H   H2962     1.0  0.74328  0.39949  0.03085  1.0000
  C   C3722     1.0  0.54090  0.43379  0.05674  1.0000
  S   S520      1.0  0.72145  0.36219  0.89809  1.0000
  C   C3723     1.0  0.66084  0.37209  0.77361  1.0000
  C   C3724     1.0  0.58450  0.45124  0.75642  1.0000
  H   H2963     1.0  0.63714  0.38825  0.74892  1.0000
  H   H2964     1.0  0.65686  0.35984  0.72882  1.0000
  C   C3725     1.0  0.64419  0.35215  0.72089  1.0000
  H   H2965     1.0  0.57151  0.44366  0.80778  1.0000
  H   H2966     1.0  0.63051  0.34598  0.71491  1.0000
  H   H2967     1.0  0.61247  0.44059  0.81056  1.0000
  C   C3726     1.0  0.61573  0.38280  0.19051  1.0000
  H   H2968     1.0  0.50568  0.48293  0.80112  1.0000
  C   C3727     1.0  0.54655  0.48451  0.46294  1.0000
  C   C3728     1.0  0.66323  0.34122  0.19213  1.0000
  H   H2969     1.0  0.67223  0.38554  0.74066  1.0000
  H   H2970     1.0  0.55404  0.49879  0.45998  1.0000
  C   C3729     1.0  0.65455  0.36263  0.94661  1.0000
  S   S521      1.0  0.51369  0.40271  0.39304  1.0000
  H   H2971     1.0  0.66470  0.36748  0.63667  1.0000
  H   H2972     1.0  0.52676  0.44840  0.89808  1.0000
  C   C3730     1.0  0.53298  0.39891  0.45473  1.0000
  C   C3731     1.0  0.55214  0.38361  0.55619  1.0000
  H   H2973     1.0  0.50096  0.42962  0.72290  1.0000
  C   C3732     1.0  0.56904  0.41996  0.06760  1.0000
  C   C3733     1.0  0.55691  0.42555  0.81166  1.0000
  C   C3734     1.0  0.56135  0.42813  0.76970  1.0000
  C   C3735     1.0  0.61397  0.39198  0.19058  1.0000
  C   C3736     1.0  0.51269  0.41483  0.38862  1.0000
  C   C3737     1.0  0.52070  0.44906  0.88649  1.0000
  C   C3738     1.0  0.51496  0.46636  0.20547  1.0000
  C   C3739     1.0  0.53585  0.48849  0.81599  1.0000
  C   C3740     1.0  0.54516  0.38892  0.56587  1.0000
  H   H2974     1.0  0.58858  0.44581  0.76455  1.0000
  C   C3741     1.0  0.50611  0.39614  0.73643  1.0000
  H   H2975     1.0  0.60877  0.39476  0.17680  1.0000
  H   H2976     1.0  0.61189  0.37846  0.17667  1.0000
  H   H2977     1.0  0.56743  0.48829  0.36374  1.0000
  H   H2978     1.0  0.74336  0.34729  0.33373  1.0000
  C   C3742     1.0  0.57492  0.45003  0.78070  1.0000
  H   H2979     1.0  0.55000  0.42728  0.82350  1.0000
  H   H2980     1.0  0.55788  0.43190  0.74916  1.0000
  H   H2981     1.0  0.60852  0.42671  0.45675  1.0000
  C   C3743     1.0  0.50729  0.47356  0.59371  1.0000
  H   H2982     1.0  0.56242  0.45630  0.78928  1.0000
  C   C3744     1.0  0.63651  0.33816  0.29142  1.0000
  C   C3745     1.0  0.67727  0.37481  0.77809  1.0000
  H   H2983     1.0  0.74084  0.40643  0.18069  1.0000
  H   H2984     1.0  0.61273  0.41964  0.56691  1.0000
  C   C3746     1.0  0.54254  0.49851  0.54828  1.0000
  H   H2985     1.0  0.54336  0.48816  0.80379  1.0000
  C   C3747     1.0  0.58960  0.42102  0.42188  1.0000
  H   H2986     1.0  0.65138  0.35784  0.81215  1.0000
  C   C3748     1.0  0.54530  0.47778  0.13175  1.0000
  P   P125      1.0  0.59208  0.40885  0.49120  1.0000
  H   H2987     1.0  0.51852  0.34724  0.12160  1.0000
  C   C3749     1.0  0.56981  0.45716  0.77042  1.0000
  C   C3750     1.0  0.50625  0.44918  0.23885  1.0000
  H   H2988     1.0  0.52234  0.49918  0.47405  1.0000
  C   C3751     1.0  0.65859  0.36263  0.80215  1.0000
  C   C3752     1.0  0.51290  0.44083  0.89940  1.0000
  C   C3753     1.0  0.54564  0.38051  0.50444  1.0000
  H   H2989     1.0  0.55430  0.45161  0.01098  1.0000
  H   H2990     1.0  0.60203  0.44371  0.35459  1.0000
  C   C3754     1.0  0.53366  0.42393  0.02256  1.0000
  C   C3755     1.0  0.58098  0.38157  0.48823  1.0000
  H   H2991     1.0  0.60811  0.47650  0.67983  1.0000
  C   C3756     1.0  0.60010  0.43712  0.38073  1.0000
  H   H2992     1.0  0.58751  0.43048  0.36878  1.0000
  H   H2993     1.0  0.61262  0.44154  0.39820  1.0000
  H   H2994     1.0  0.68449  0.37955  0.76920  1.0000
  C   C3757     1.0  0.56174  0.49422  0.41097  1.0000
  C   C3758     1.0  0.61761  0.47564  0.62485  1.0000
  C   C3759     1.0  0.59191  0.42964  0.38881  1.0000
  C   C3760     1.0  0.60604  0.43593  0.40535  1.0000
  C   C3761     1.0  0.60875  0.47637  0.64934  1.0000
  C   C3762     1.0  0.58899  0.45959  0.72204  1.0000
  H   H2995     1.0  0.57237  0.48160  0.77821  1.0000
  C   C3763     1.0  0.56164  0.48704  0.39184  1.0000
  C   C3764     1.0  0.56426  0.40676  0.59367  1.0000
  C   C3765     1.0  0.57401  0.41298  0.52231  1.0000
  H   H2996     1.0  0.53634  0.44735  0.05440  1.0000
  H   H2997     1.0  0.65376  0.35175  0.08622  1.0000
  C   C3766     1.0  0.59529  0.41994  0.44785  1.0000
  H   H2998     1.0  0.58341  0.41518  0.42707  1.0000
  C   C3767     1.0  0.57429  0.46554  0.73628  1.0000
  C   C3768     1.0  0.58133  0.40843  0.53121  1.0000
  C   C3769     1.0  0.55856  0.45333  0.02955  1.0000
  C   C3770     1.0  0.57990  0.40286  0.57165  1.0000
  C   C3771     1.0  0.64290  0.47113  0.85161  1.0000
  C   C3772     1.0  0.58395  0.46688  0.71188  1.0000
  C   C3773     1.0  0.70546  0.42236  0.80846  1.0000
  P   P126      1.0  0.54811  0.43529  0.08916  1.0000
  C   C3774     1.0  0.52830  0.37759  0.46365  1.0000
  C   C3775     1.0  0.57144  0.40210  0.60271  1.0000
  C   C3776     1.0  0.58978  0.39828  0.47507  1.0000
  C   C3777     1.0  0.58648  0.38185  0.44966  1.0000
  H   H2999     1.0  0.58516  0.37556  0.43961  1.0000
  H   H3000     1.0  0.66979  0.43106  0.23590  1.0000
  C   C3778     1.0  0.74104  0.36750  0.88746  1.0000
  H   H3001     1.0  0.52696  0.42109  0.43963  1.0000
  C   C3779     1.0  0.56947  0.48804  0.77152  1.0000
  H   H3002     1.0  0.66389  0.35204  0.84048  1.0000
  H   H3003     1.0  0.51738  0.44710  0.77266  1.0000
  C   C3780     1.0  0.52321  0.36666  0.23940  1.0000
  C   C3781     1.0  0.72935  0.38141  0.79162  1.0000
  C   C3782     1.0  0.61246  0.37232  0.93887  1.0000
  P   P127      1.0  0.52923  0.38649  0.48977  1.0000
  C   C3783     1.0  0.50962  0.43390  0.37650  1.0000
  C   C3784     1.0  0.61148  0.41484  0.54948  1.0000
  H   H3004     1.0  0.62885  0.46660  0.03118  1.0000
  C   C3785     1.0  0.67240  0.43035  0.20589  1.0000
  S   S522      1.0  0.58705  0.33846  0.36421  1.0000
  H   H3005     1.0  0.65371  0.38569  0.94489  1.0000
  C   C3786     1.0  0.60871  0.40284  0.50246  1.0000
  C   C3787     1.0  0.73444  0.38289  0.25145  1.0000
  H   H3006     1.0  0.60796  0.39836  0.48340  1.0000
  C   C3788     1.0  0.51122  0.46544  0.60566  1.0000
  H   H3007     1.0  0.74306  0.35698  0.96581  1.0000
  H   H3008     1.0  0.71665  0.38511  0.77777  1.0000
  C   C3789     1.0  0.53573  0.44085  0.04513  1.0000
  C   C3790     1.0  0.57089  0.45763  0.07316  1.0000
  C   C3791     1.0  0.72206  0.37507  0.74797  1.0000
  C   C3792     1.0  0.65998  0.38880  0.95194  1.0000
  H   H3009     1.0  0.56701  0.46693  0.98321  1.0000
  H   H3010     1.0  0.59769  0.38154  0.53593  1.0000
  C   C3793     1.0  0.66880  0.43485  0.17530  1.0000
  C   C3794     1.0  0.64154  0.42476  0.91601  1.0000
  C   C3795     1.0  0.52543  0.37307  0.40697  1.0000
  H   H3011     1.0  0.66324  0.40254  0.90451  1.0000
  H   H3012     1.0  0.64241  0.35475  0.34848  1.0000
  C   C3796     1.0  0.66544  0.39840  0.92900  1.0000
  H   H3013     1.0  0.65865  0.37568  0.00060  1.0000
  H   H3014     1.0  0.66342  0.43909  0.18159  1.0000
  C   C3797     1.0  0.59625  0.49785  0.65029  1.0000
  H   H3015     1.0  0.51109  0.39072  0.47852  1.0000
  H   H3016     1.0  0.53551  0.44513  0.21139  1.0000
  C   C3798     1.0  0.53940  0.43442  0.13695  1.0000
  C   C3799     1.0  0.57211  0.46413  0.03487  1.0000
  H   H3017     1.0  0.52903  0.42206  0.13694  1.0000
  C   C3800     1.0  0.66271  0.38319  0.98336  1.0000
  S   S523      1.0  0.53442  0.49632  0.29576  1.0000
  C   C3801     1.0  0.70861  0.42513  0.21371  1.0000
  C   C3802     1.0  0.63840  0.42530  0.95537  1.0000
  H   H3018     1.0  0.67297  0.38285  0.01642  1.0000
  C   C3803     1.0  0.67082  0.38722  0.99224  1.0000
  H   H3019     1.0  0.62434  0.40951  0.55069  1.0000
  C   C3804     1.0  0.67929  0.42483  0.19814  1.0000
  C   C3805     1.0  0.73572  0.34015  0.11820  1.0000
  H   H3020     1.0  0.62050  0.37751  0.97429  1.0000
  H   H3021     1.0  0.55593  0.49604  0.25953  1.0000
  H   H3022     1.0  0.62188  0.39877  0.50966  1.0000
  H   H3023     1.0  0.71051  0.43148  0.22291  1.0000
  C   C3806     1.0  0.67208  0.43381  0.13686  1.0000
  C   C3807     1.0  0.68402  0.42054  0.94311  1.0000
  H   H3024     1.0  0.67609  0.35088  0.19142  1.0000
  C   C3808     1.0  0.70941  0.41415  0.81573  1.0000
  H   H3025     1.0  0.60877  0.37828  0.93560  1.0000
  C   C3809     1.0  0.56230  0.50027  0.15126  1.0000
  C   C3810     1.0  0.72221  0.38100  0.77263  1.0000
  C   C3811     1.0  0.67369  0.40244  0.93740  1.0000
  C   C3812     1.0  0.53050  0.42731  0.15227  1.0000
  C   C3813     1.0  0.70221  0.42505  0.19103  1.0000
  C   C3814     1.0  0.67904  0.42836  0.12890  1.0000
  H   H3026     1.0  0.53973  0.46345  0.29985  1.0000
  H   H3027     1.0  0.66920  0.43724  0.11335  1.0000
  C   C3815     1.0  0.52096  0.41036  0.67145  1.0000
  C   C3816     1.0  0.61527  0.35732  0.92598  1.0000
  C   C3817     1.0  0.52820  0.40619  0.46277  1.0000
  C   C3818     1.0  0.59192  0.43515  0.94745  1.0000
  H   H3028     1.0  0.53068  0.36542  0.99248  1.0000
  C   C3819     1.0  0.52823  0.36104  0.46104  1.0000
  C   C3820     1.0  0.67930  0.42330  0.00844  1.0000
  C   C3821     1.0  0.70263  0.43125  0.07621  1.0000
  C   C3822     1.0  0.61051  0.36500  0.92178  1.0000
  H   H3029     1.0  0.59642  0.46030  0.70420  1.0000
  H   H3030     1.0  0.71404  0.41304  0.02807  1.0000
  H   H3031     1.0  0.68179  0.40113  0.22664  1.0000
  H   H3032     1.0  0.68174  0.42116  0.22275  1.0000
  C   C3823     1.0  0.68286  0.42401  0.15924  1.0000
  H   H3033     1.0  0.68268  0.39968  0.97634  1.0000
  H   H3034     1.0  0.69392  0.42898  0.83035  1.0000
  H   H3035     1.0  0.54669  0.37411  0.99181  1.0000
  C   C3824     1.0  0.54462  0.46349  0.27141  1.0000
  H   H3036     1.0  0.68139  0.42748  0.09924  1.0000
  H   H3037     1.0  0.61069  0.34286  0.30260  1.0000
  C   C3825     1.0  0.58337  0.36091  0.61189  1.0000
  S   S524      1.0  0.57807  0.34179  0.74735  1.0000
  H   H3038     1.0  0.67180  0.38434  0.24558  1.0000
  H   H3039     1.0  0.52215  0.40458  0.49030  1.0000
  C   C3826     1.0  0.50961  0.38687  0.51057  1.0000
  H   H3040     1.0  0.69259  0.39979  0.90560  1.0000
  C   C3827     1.0  0.64843  0.35125  0.34720  1.0000
  C   C3828     1.0  0.54896  0.45561  0.27015  1.0000
  H   H3041     1.0  0.53344  0.37540  0.11103  1.0000
  H   H3042     1.0  0.74397  0.34464  0.92990  1.0000
  H   H3043     1.0  0.54324  0.47747  0.23820  1.0000
  H   H3044     1.0  0.66969  0.41452  0.98854  1.0000
  C   C3829     1.0  0.57061  0.49488  0.79171  1.0000
  H   H3045     1.0  0.74579  0.36696  0.21490  1.0000
  C   C3830     1.0  0.58843  0.36728  0.57252  1.0000
  H   H3046     1.0  0.60032  0.35331  0.57324  1.0000
  H   H3047     1.0  0.66823  0.34516  0.08272  1.0000
  H   H3048     1.0  0.51987  0.43268  0.23733  1.0000
  H   H3049     1.0  0.72573  0.38282  0.89452  1.0000
  C   C3831     1.0  0.68035  0.39844  0.20316  1.0000
  C   C3832     1.0  0.67456  0.38898  0.21397  1.0000
  C   C3833     1.0  0.51711  0.38407  0.52506  1.0000
  C   C3834     1.0  0.54383  0.41089  0.39109  1.0000
  H   H3050     1.0  0.64383  0.36511  0.91699  1.0000
  C   C3835     1.0  0.66572  0.43481  0.86851  1.0000
  C   C3836     1.0  0.66463  0.43289  0.83377  1.0000
  C   C3837     1.0  0.60998  0.49907  0.04906  1.0000
  H   H3051     1.0  0.67132  0.43093  0.91823  1.0000
  C   C3838     1.0  0.53379  0.49763  0.81433  1.0000
  H   H3052     1.0  0.51154  0.44105  0.28491  1.0000
  C   C3839     1.0  0.62948  0.34203  0.43607  1.0000
  H   H3053     1.0  0.61577  0.33803  0.36289  1.0000
  C   C3840     1.0  0.61911  0.37191  0.96048  1.0000
  H   H3054     1.0  0.52625  0.35840  0.40735  1.0000
  H   H3055     1.0  0.63005  0.35575  0.86517  1.0000
  C   C3841     1.0  0.73241  0.38032  0.89107  1.0000
  C   C3842     1.0  0.73632  0.37000  0.76090  1.0000
  H   H3056     1.0  0.69937  0.43147  0.18231  1.0000
  H   H3057     1.0  0.67615  0.41425  0.83530  1.0000
  P   P128      1.0  0.68095  0.41477  0.90802  1.0000
  C   C3843     1.0  0.68181  0.40095  0.13252  1.0000
  C   C3844     1.0  0.56966  0.46494  0.40684  1.0000
  H   H3058     1.0  0.66089  0.43716  0.81579  1.0000
  H   H3059     1.0  0.52601  0.44513  0.01159  1.0000
  C   C3845     1.0  0.71021  0.40890  0.21233  1.0000
  H   H3060     1.0  0.63229  0.34871  0.80935  1.0000
  C   C3846     1.0  0.67323  0.41995  0.84495  1.0000
  C   C3847     1.0  0.68418  0.40443  0.16236  1.0000
  C   C3848     1.0  0.67697  0.41902  0.98070  1.0000
  C   C3849     1.0  0.63108  0.34835  0.87056  1.0000
  H   H3061     1.0  0.71181  0.44259  0.02073  1.0000
  H   H3062     1.0  0.67384  0.42208  0.03741  1.0000
  C   C3850     1.0  0.74238  0.35199  0.79738  1.0000
  C   C3851     1.0  0.70480  0.40614  0.85117  1.0000
  H   H3063     1.0  0.66745  0.42387  0.79541  1.0000
  C   C3852     1.0  0.66835  0.42543  0.82214  1.0000
  C   C3853     1.0  0.67437  0.42182  0.87982  1.0000
  H   H3064     1.0  0.66839  0.37795  0.19227  1.0000
  C   C3854     1.0  0.67255  0.38542  0.18399  1.0000
  C   C3855     1.0  0.69964  0.42112  0.09766  1.0000
  C   C3856     1.0  0.70948  0.43476  0.03707  1.0000
  C   C3857     1.0  0.58789  0.49699  0.21414  1.0000
  H   H3065     1.0  0.54074  0.42522  0.37590  1.0000
  C   C3858     1.0  0.62228  0.35708  0.94603  1.0000
  C   C3859     1.0  0.62394  0.36428  0.96437  1.0000
  H   H3066     1.0  0.72932  0.38579  0.81161  1.0000
  C   C3860     1.0  0.69208  0.41444  0.87202  1.0000
  C   C3861     1.0  0.67053  0.42927  0.89164  1.0000
  H   H3067     1.0  0.54747  0.44947  0.29758  1.0000
  C   C3862     1.0  0.69955  0.41675  0.17988  1.0000
  S   S525      1.0  0.57679  0.49334  0.82802  1.0000
  H   H3068     1.0  0.51789  0.43196  0.82356  1.0000
  C   C3863     1.0  0.63420  0.48916  0.20630  1.0000
  C   C3864     1.0  0.70401  0.41464  0.08036  1.0000
  H   H3069     1.0  0.65935  0.36498  0.32574  1.0000
  C   C3865     1.0  0.73638  0.37595  0.78579  1.0000
  C   C3866     1.0  0.55988  0.34489  0.66654  1.0000
  C   C3867     1.0  0.58021  0.47918  0.64292  1.0000
  C   C3868     1.0  0.67613  0.39141  0.14331  1.0000
  H   H3070     1.0  0.70232  0.40686  0.09734  1.0000
  C   C3869     1.0  0.55524  0.45566  0.23341  1.0000
  C   C3870     1.0  0.52630  0.38004  0.42675  1.0000
  C   C3871     1.0  0.69686  0.42254  0.83655  1.0000
  C   C3872     1.0  0.69339  0.42644  0.93360  1.0000
  C   C3873     1.0  0.74757  0.34870  0.01413  1.0000
  C   C3874     1.0  0.50528  0.44121  0.88299  1.0000
  H   H3071     1.0  0.71596  0.41390  0.79361  1.0000
  H   H3072     1.0  0.62889  0.36397  0.98198  1.0000
  H   H3073     1.0  0.57924  0.35363  0.61636  1.0000
  H   H3074     1.0  0.64563  0.41942  0.90964  1.0000
  H   H3075     1.0  0.52539  0.38731  0.41319  1.0000
  H   H3076     1.0  0.63837  0.34167  0.22754  1.0000
  C   C3875     1.0  0.70374  0.40876  0.18997  1.0000
  C   C3876     1.0  0.71258  0.41704  0.22451  1.0000
  C   C3877     1.0  0.65796  0.35704  0.33417  1.0000
  C   C3878     1.0  0.63252  0.34447  0.83851  1.0000
  H   H3077     1.0  0.70900  0.42853  0.78076  1.0000
  C   C3879     1.0  0.74764  0.40539  0.16328  1.0000
  H   H3078     1.0  0.56346  0.48416  0.72774  1.0000
  H   H3079     1.0  0.63692  0.34636  0.42446  1.0000
  H   H3080     1.0  0.58789  0.44415  0.98468  1.0000
  H   H3081     1.0  0.69897  0.42775  0.90490  1.0000
  C   C3880     1.0  0.51490  0.41317  0.70144  1.0000
  H   H3082     1.0  0.59687  0.49849  0.61907  1.0000
  H   H3083     1.0  0.72874  0.36497  0.72320  1.0000
  H   H3084     1.0  0.71339  0.40268  0.22030  1.0000
  H   H3085     1.0  0.54923  0.49701  0.59530  1.0000
  C   C3881     1.0  0.50827  0.47893  0.36951  1.0000
  C   C3882     1.0  0.57478  0.48189  0.12871  1.0000
  H   H3086     1.0  0.71753  0.41710  0.24210  1.0000
  C   C3883     1.0  0.68865  0.42915  0.99878  1.0000
  C   C3884     1.0  0.69568  0.43072  0.96140  1.0000
  H   H3087     1.0  0.51003  0.41570  0.82425  1.0000
  H   H3088     1.0  0.70206  0.40245  0.18032  1.0000
  H   H3089     1.0  0.67476  0.38853  0.12002  1.0000
  H   H3090     1.0  0.69045  0.43248  0.02019  1.0000
  C   C3885     1.0  0.73258  0.34232  0.86695  1.0000
  C   C3886     1.0  0.51664  0.48972  0.84820  1.0000
  C   C3887     1.0  0.59383  0.44168  0.96804  1.0000
  H   H3091     1.0  0.61259  0.43471  0.02576  1.0000
  H   H3092     1.0  0.51605  0.42087  0.69877  1.0000
  S   S526      1.0  0.50724  0.44567  0.36469  1.0000
  H   H3093     1.0  0.63778  0.34088  0.09696  1.0000
  H   H3094     1.0  0.67030  0.33897  0.33884  1.0000
  C   C3888     1.0  0.51403  0.43992  0.77264  1.0000
  C   C3889     1.0  0.52982  0.43959  0.02127  1.0000
  C   C3890     1.0  0.50310  0.38960  0.86823  1.0000
  H   H3095     1.0  0.70294  0.43526  0.95391  1.0000
  C   C3891     1.0  0.66582  0.35258  0.33167  1.0000
  H   H3096     1.0  0.63253  0.44286  0.86770  1.0000
  C   C3892     1.0  0.52657  0.36364  0.42366  1.0000
  P   P129      1.0  0.74546  0.36296  0.75395  1.0000
  C   C3893     1.0  0.58496  0.48530  0.05924  1.0000
  C   C3894     1.0  0.60077  0.47684  0.63482  1.0000
  C   C3895     1.0  0.73561  0.37519  0.23555  1.0000
  H   H3097     1.0  0.64006  0.42037  0.97968  1.0000
  C   C3896     1.0  0.61971  0.33744  0.99618  1.0000
  C   C3897     1.0  0.69132  0.34667  0.10044  1.0000
  H   H3098     1.0  0.74120  0.39420  0.88610  1.0000
  H   H3099     1.0  0.60480  0.45041  0.98183  1.0000
  H   H3100     1.0  0.63192  0.46368  0.96539  1.0000
  C   C3898     1.0  0.64668  0.34095  0.35841  1.0000
  C   C3899     1.0  0.50929  0.43920  0.74429  1.0000
  C   C3900     1.0  0.54121  0.46782  0.13925  1.0000
  C   C3901     1.0  0.71349  0.42820  0.01943  1.0000
  C   C3902     1.0  0.54660  0.47143  0.23603  1.0000
  C   C3903     1.0  0.54105  0.37502  0.05201  1.0000
  H   H3101     1.0  0.52450  0.45506  0.27658  1.0000
  C   C3904     1.0  0.65162  0.34629  0.99355  1.0000
  C   C3905     1.0  0.71077  0.41814  0.04115  1.0000
  C   C3906     1.0  0.72939  0.37485  0.11655  1.0000
  C   C3907     1.0  0.63305  0.43216  0.96345  1.0000
  H   H3102     1.0  0.71709  0.37663  0.09548  1.0000
  C   C3908     1.0  0.54286  0.49447  0.58752  1.0000
  C   C3909     1.0  0.56352  0.33649  0.67477  1.0000
  C   C3910     1.0  0.73491  0.35077  0.83325  1.0000
  C   C3911     1.0  0.55967  0.34320  0.60142  1.0000
  C   C3912     1.0  0.64423  0.33799  0.09442  1.0000
  H   H3103     1.0  0.59012  0.48090  0.74441  1.0000
  C   C3913     1.0  0.60921  0.43587  0.92255  1.0000
  H   H3104     1.0  0.50439  0.42139  0.26405  1.0000
  C   C3914     1.0  0.74586  0.34289  0.11032  1.0000
  C   C3915     1.0  0.74434  0.38763  0.07974  1.0000
  H   H3105     1.0  0.58242  0.46182  0.42175  1.0000
  C   C3916     1.0  0.52116  0.46514  0.22900  1.0000
  C   C3917     1.0  0.53478  0.48752  0.61724  1.0000
  H   H3106     1.0  0.55962  0.48139  0.59372  1.0000
  C   C3918     1.0  0.62874  0.45893  0.90248  1.0000
  H   H3107     1.0  0.68477  0.34478  0.05564  1.0000
  C   C3919     1.0  0.59487  0.49648  0.73034  1.0000
  C   C3920     1.0  0.50356  0.42615  0.41095  1.0000
  P   P130      1.0  0.58944  0.47778  0.66755  1.0000
  C   C3921     1.0  0.51220  0.39335  0.70648  1.0000
  H   H3108     1.0  0.52518  0.47025  0.08616  1.0000
  C   C3922     1.0  0.73955  0.39252  0.05443  1.0000
  H   H3109     1.0  0.62845  0.49921  0.08937  1.0000
  H   H3110     1.0  0.56191  0.46323  0.16964  1.0000
  H   H3111     1.0  0.58451  0.43260  0.94836  1.0000
  C   C3923     1.0  0.53395  0.46511  0.12303  1.0000
  H   H3112     1.0  0.51582  0.47351  0.18394  1.0000
  C   C3924     1.0  0.62193  0.50094  0.08335  1.0000
  C   C3925     1.0  0.69191  0.34250  0.13914  1.0000
  C   C3926     1.0  0.56981  0.47288  0.60835  1.0000
  C   C3927     1.0  0.73914  0.37882  0.11117  1.0000
  H   H3113     1.0  0.55803  0.34574  0.57343  1.0000
  H   H3114     1.0  0.53078  0.45739  0.12933  1.0000
  H   H3115     1.0  0.67322  0.35704  0.32137  1.0000
  H   H3116     1.0  0.57793  0.48868  0.01367  1.0000
  C   C3928     1.0  0.60341  0.44528  0.96608  1.0000
  C   C3929     1.0  0.63351  0.34092  0.25720  1.0000
  C   C3930     1.0  0.62726  0.45784  0.99261  1.0000
  C   C3931     1.0  0.59240  0.48795  0.72069  1.0000
  C   C3932     1.0  0.53420  0.49548  0.53854  1.0000
  P   P131      1.0  0.62351  0.44715  0.94197  1.0000
  H   H3117     1.0  0.65926  0.36992  0.93023  1.0000
  C   C3933     1.0  0.53080  0.47234  0.09876  1.0000
  H   H3118     1.0  0.61181  0.47671  0.53886  1.0000
  H   H3119     1.0  0.72814  0.35241  0.18466  1.0000
  H   H3120     1.0  0.54359  0.46211  0.15767  1.0000
  H   H3121     1.0  0.63698  0.48346  0.22291  1.0000
  C   C3934     1.0  0.52884  0.43116  0.00978  1.0000
  H   H3122     1.0  0.63064  0.43243  0.99412  1.0000
  H   H3123     1.0  0.58964  0.34079  0.55855  1.0000
  C   C3935     1.0  0.64007  0.49870  0.18626  1.0000
  C   C3936     1.0  0.51227  0.49388  0.68045  1.0000
  H   H3124     1.0  0.51667  0.42115  0.19986  1.0000
  C   C3937     1.0  0.59959  0.43219  0.92494  1.0000
  C   C3938     1.0  0.56785  0.48543  0.07397  1.0000
  H   H3125     1.0  0.71887  0.43092  0.98932  1.0000
  C   C3939     1.0  0.50559  0.44974  0.85295  1.0000
  H   H3126     1.0  0.59811  0.42716  0.90877  1.0000
  C   C3940     1.0  0.74481  0.37298  0.22651  1.0000
  C   C3941     1.0  0.55292  0.47152  0.19886  1.0000
  H   H3127     1.0  0.65066  0.47332  0.83500  1.0000
  H   H3128     1.0  0.74105  0.39894  0.12701  1.0000
  H   H3129     1.0  0.52436  0.43021  0.99088  1.0000
  C   C3942     1.0  0.61468  0.44336  0.06386  1.0000
  H   H3130     1.0  0.53489  0.48467  0.64808  1.0000
  H   H3131     1.0  0.72154  0.34138  0.15117  1.0000
  H   H3132     1.0  0.64772  0.34664  0.71248  1.0000
  H   H3133     1.0  0.50664  0.40257  0.13974  1.0000
  H   H3134     1.0  0.64003  0.48454  0.81882  1.0000
  C   C3943     1.0  0.55718  0.46351  0.19787  1.0000
  H   H3135     1.0  0.73086  0.35632  0.83538  1.0000
  H   H3136     1.0  0.52676  0.47132  0.22600  1.0000
  C   C3944     1.0  0.53495  0.48228  0.09052  1.0000
  C   C3945     1.0  0.50835  0.49532  0.37295  1.0000
  C   C3946     1.0  0.61119  0.44236  0.94363  1.0000
  C   C3947     1.0  0.54221  0.48500  0.10675  1.0000
  C   C3948     1.0  0.52233  0.49233  0.32801  1.0000
  C   C3949     1.0  0.63885  0.46194  0.88179  1.0000
  H   H3137     1.0  0.59132  0.48735  0.26255  1.0000
  H   H3138     1.0  0.52503  0.49438  0.69960  1.0000
  C   C3950     1.0  0.63087  0.34262  0.90907  1.0000
  H   H3139     1.0  0.52582  0.36711  0.26450  1.0000
  C   C3951     1.0  0.74240  0.38822  0.25838  1.0000
  H   H3140     1.0  0.62231  0.47959  0.85699  1.0000
  H   H3141     1.0  0.61511  0.46351  0.91036  1.0000
  H   H3142     1.0  0.61756  0.45385  0.09414  1.0000
  H   H3143     1.0  0.61501  0.43362  0.90416  1.0000
  C   C3952     1.0  0.74313  0.35272  0.15538  1.0000
  H   H3144     1.0  0.62027  0.47951  0.22005  1.0000
  C   C3953     1.0  0.73977  0.34767  0.67931  1.0000
  C   C3954     1.0  0.62285  0.46544  0.89381  1.0000
  H   H3145     1.0  0.74176  0.37623  0.80137  1.0000
  C   C3955     1.0  0.62088  0.33885  0.33376  1.0000
  H   H3146     1.0  0.54060  0.48363  0.48994  1.0000
  C   C3956     1.0  0.62265  0.44885  0.99060  1.0000
  C   C3957     1.0  0.61643  0.44158  0.02666  1.0000
  C   C3958     1.0  0.63693  0.47745  0.84243  1.0000
  C   C3959     1.0  0.63943  0.43116  0.88461  1.0000
  C   C3960     1.0  0.56663  0.48287  0.11570  1.0000
  H   H3147     1.0  0.51600  0.38074  0.16625  1.0000
  H   H3148     1.0  0.64185  0.43080  0.85395  1.0000
  C   C3961     1.0  0.56807  0.48766  0.62527  1.0000
  H   H3149     1.0  0.59195  0.48597  0.03749  1.0000
  C   C3962     1.0  0.72471  0.37966  0.09092  1.0000
  C   C3963     1.0  0.52418  0.49827  0.83003  1.0000
  H   H3150     1.0  0.52776  0.49759  0.40596  1.0000
  C   C3964     1.0  0.60468  0.33947  0.88139  1.0000
  C   C3965     1.0  0.58388  0.48299  0.10058  1.0000
  C   C3966     1.0  0.61920  0.45235  0.06548  1.0000
  H   H3151     1.0  0.69554  0.35406  0.08200  1.0000
  C   C3967     1.0  0.50009  0.38471  0.53726  1.0000
  H   H3152     1.0  0.51098  0.44697  0.16266  1.0000
  C   C3968     1.0  0.62693  0.47464  0.86376  1.0000
  H   H3153     1.0  0.74103  0.36004  0.88788  1.0000
  H   H3154     1.0  0.74847  0.36538  0.31373  1.0000
  C   C3969     1.0  0.61089  0.47650  0.56991  1.0000
  H   H3155     1.0  0.62185  0.34453  0.23472  1.0000
  C   C3970     1.0  0.73306  0.34979  0.16374  1.0000
  H   H3156     1.0  0.58473  0.49550  0.31274  1.0000
  C   C3971     1.0  0.51994  0.45597  0.25727  1.0000
  H   H3157     1.0  0.74250  0.37510  0.13227  1.0000
  H   H3158     1.0  0.64361  0.45717  0.88859  1.0000
  H   H3159     1.0  0.50353  0.37197  0.62443  1.0000
  H   H3160     1.0  0.60952  0.43795  0.09134  1.0000
  H   H3161     1.0  0.71638  0.37462  0.73397  1.0000
  H   H3162     1.0  0.55507  0.35471  0.62345  1.0000
  C   C3972     1.0  0.72978  0.38850  0.05991  1.0000
  C   C3973     1.0  0.59178  0.33876  0.58565  1.0000
  H   H3163     1.0  0.72606  0.39227  0.04049  1.0000
  C   C3974     1.0  0.58806  0.49344  0.25396  1.0000
  C   C3975     1.0  0.72936  0.34356  0.14497  1.0000
  H   H3164     1.0  0.59618  0.47804  0.58160  1.0000
  C   C3976     1.0  0.50372  0.48535  0.38634  1.0000
  H   H3165     1.0  0.52411  0.37502  0.37810  1.0000
  H   H3166     1.0  0.66740  0.33915  0.95001  1.0000
  C   C3977     1.0  0.55414  0.49302  0.44624  1.0000
  C   C3978     1.0  0.66148  0.34029  0.08652  1.0000
  C   C3979     1.0  0.54650  0.47725  0.44420  1.0000
  H   H3167     1.0  0.56752  0.50093  0.39735  1.0000
  H   H3168     1.0  0.51547  0.43980  0.10785  1.0000
  H   H3169     1.0  0.56951  0.49938  0.13748  1.0000
  C   C3980     1.0  0.74119  0.38675  0.88633  1.0000
  H   H3170     1.0  0.72689  0.34157  0.89470  1.0000
  C   C3981     1.0  0.62296  0.34335  0.46941  1.0000
  C   C3982     1.0  0.55391  0.49272  0.16188  1.0000
  H   H3171     1.0  0.51201  0.39905  0.80865  1.0000
  H   H3172     1.0  0.61378  0.49224  0.18143  1.0000
  P   P132      1.0  0.62825  0.34702  0.95211  1.0000
  H   H3173     1.0  0.62557  0.47513  0.56620  1.0000
  C   C3983     1.0  0.65320  0.34409  0.08857  1.0000
  S   S527      1.0  0.58740  0.33848  0.47518  1.0000
  H   H3174     1.0  0.66412  0.35792  0.98038  1.0000
  C   C3984     1.0  0.57701  0.48673  0.04588  1.0000
  H   H3175     1.0  0.54544  0.49274  0.09959  1.0000
  C   C3985     1.0  0.57544  0.48688  0.64308  1.0000
  C   C3986     1.0  0.50528  0.37628  0.59276  1.0000
  H   H3176     1.0  0.62373  0.34372  0.03935  1.0000
  H   H3177     1.0  0.56178  0.48645  0.06289  1.0000
  C   C3987     1.0  0.68515  0.34138  0.08571  1.0000
  C   C3988     1.0  0.63022  0.33712  0.33004  1.0000
  C   C3989     1.0  0.56061  0.49778  0.73422  1.0000
  C   C3990     1.0  0.57714  0.47203  0.62641  1.0000
  C   C3991     1.0  0.50284  0.49635  0.76838  1.0000
  H   H3178     1.0  0.57718  0.49223  0.65756  1.0000
  H   H3179     1.0  0.64742  0.50042  0.18758  1.0000
  S   S528      1.0  0.55443  0.49922  0.69806  1.0000
  H   H3180     1.0  0.74600  0.35764  0.16959  1.0000
  H   H3181     1.0  0.50822  0.45030  0.64299  1.0000
  C   C3992     1.0  0.74574  0.34335  0.95790  1.0000
  C   C3993     1.0  0.66416  0.34238  0.34179  1.0000
  C   C3994     1.0  0.60198  0.47715  0.59451  1.0000
  C   C3995     1.0  0.61867  0.47566  0.58519  1.0000
  H   H3182     1.0  0.50995  0.50082  0.76353  1.0000
  C   C3996     1.0  0.56531  0.48072  0.60759  1.0000
  H   H3183     1.0  0.58044  0.46582  0.62753  1.0000
  H   H3184     1.0  0.56758  0.46742  0.59509  1.0000
  C   C3997     1.0  0.61793  0.34162  0.29940  1.0000
  C   C3998     1.0  0.54472  0.49421  0.17980  1.0000
  H   H3185     1.0  0.51804  0.50098  0.24732  1.0000
  C   C3999     1.0  0.62422  0.34261  0.26117  1.0000
  H   H3186     1.0  0.62531  0.34881  0.48244  1.0000
  H   H3187     1.0  0.74709  0.35069  0.61548  1.0000
  C   C4000     1.0  0.73940  0.35070  0.71323  1.0000
  H   H3188     1.0  0.53258  0.48790  0.07134  1.0000
  H   H3189     1.0  0.73454  0.34118  0.68216  1.0000
  H   H3190     1.0  0.58143  0.33841  0.93472  1.0000
  H   H3191     1.0  0.53409  0.49891  0.50819  1.0000
  C   C4001     1.0  0.74522  0.35030  0.97816  1.0000
  C   C4002     1.0  0.50045  0.48629  0.78969  1.0000
  H   H3192     1.0  0.60726  0.49600  0.02877  1.0000
  H   H3193     1.0  0.56445  0.49365  0.62567  1.0000
  C   C4003     1.0  0.62113  0.49413  0.18264  1.0000
  H   H3194     1.0  0.54798  0.37905  0.05131  1.0000
  C   C4004     1.0  0.50519  0.45656  0.63402  1.0000
  C   C4005     1.0  0.65466  0.33658  0.35458  1.0000
  C   C4006     1.0  0.50170  0.47767  0.69991  1.0000
  C   C4007     1.0  0.52366  0.36801  0.08655  1.0000
  H   H3195     1.0  0.64371  0.33672  0.28772  1.0000
  C   C4008     1.0  0.53128  0.36741  0.01876  1.0000
  C   C4009     1.0  0.54031  0.37229  0.01841  1.0000
  C   C4010     1.0  0.50542  0.37388  0.11999  1.0000
  C   C4011     1.0  0.50585  0.35299  0.14018  1.0000
  C   C4012     1.0  0.51899  0.35746  0.19685  1.0000
  H   H3196     1.0  0.50023  0.48961  0.51822  1.0000
  C   C4013     1.0  0.51651  0.36561  0.17411  1.0000
  C   C4014     1.0  0.52229  0.35799  0.22945  1.0000
  C   C4015     1.0  0.52299  0.36527  0.05269  1.0000
  C   C4016     1.0  0.53276  0.37292  0.08595  1.0000
  C   C4017     1.0  0.50523  0.33617  0.14019  1.0000
  H   H3197     1.0  0.50692  0.42289  0.11684  1.0000
  H   H3198     1.0  0.50139  0.40786  0.32707  1.0000
  C   C4018     1.0  0.50606  0.37889  0.07987  1.0000
  H   H3199     1.0  0.50004  0.49667  0.93786  1.0000
  H   H3200     1.0  0.52421  0.35170  0.24694  1.0000
  H   H3201     1.0  0.52154  0.38154  0.22435  1.0000
  C   C4019     1.0  0.52083  0.37480  0.21670  1.0000
  H   H3202     1.0  0.51846  0.35073  0.18940  1.0000
  C   C4020     1.0  0.51761  0.37431  0.18397  1.0000
  H   H3203     1.0  0.50030  0.41058  0.44318  1.0000
  H   H3204     1.0  0.51602  0.36161  0.05223  1.0000
  H   H3205     1.0  0.74901  0.33969  0.40714  1.0000
  H   H3206     1.0  0.49995  0.44988  0.83875  1.0000
  C   C4021     1.0  0.51062  0.34565  0.13292  1.0000
  H   H3207     1.0  0.63856  0.33601  0.00130  1.0000
  P   P133      1.0  0.51289  0.36525  0.13018  1.0000
  H   H3208     1.0  0.50032  0.39055  0.76124  1.0000
  H   H3209     1.0  0.50044  0.38901  0.04119  1.0000
  C   C4022     1.0  0.49935  0.42149  0.29185  1.0000
  C   C4023     1.0  0.49937  0.43429  0.20331  1.0000
  C   C4024     1.0  0.49993  0.38518  0.07223  1.0000
  H   H3210     1.0  0.49967  0.41675  0.89330  1.0000
  H   H3211     1.0  0.49928  0.43482  0.89272  1.0000
  H   H3212     1.0  0.49919  0.49096  0.66462  1.0000
  P   P134      1.0  0.49931  0.40954  0.77253  1.0000
  C   C4025     1.0  0.58795  0.33585  0.92506  1.0000
  C   C4026     1.0  0.60079  0.52458  0.21573  1.0000
  S   S529      1.0  0.50392  0.58224  0.20283  1.0000
  H   H3213     1.0  0.50672  0.56767  0.08401  1.0000
  H   H3214     1.0  0.50481  0.58431  0.64327  1.0000
  C   C4027     1.0  0.51297  0.56239  0.43379  1.0000
  H   H3215     1.0  0.53158  0.51396  0.24470  1.0000
  C   C4028     1.0  0.50374  0.57177  0.99036  1.0000
  S   S530      1.0  0.50573  0.57846  0.83262  1.0000
  S   S531      1.0  0.50771  0.56857  0.94558  1.0000
  H   H3216     1.0  0.53044  0.51028  0.90607  1.0000
  C   C4029     1.0  0.50375  0.51718  0.80435  1.0000
  H   H3217     1.0  0.55112  0.56456  0.77357  1.0000
  Fe  Fe265     1.0  0.54955  0.53110  0.28403  1.0000
  S   S532      1.0  0.53599  0.52054  0.32971  1.0000
  S   S533      1.0  0.54792  0.54496  0.24128  1.0000
  Fe  Fe266     1.0  0.56243  0.51736  0.30836  1.0000
  H   H3218     1.0  0.60159  0.51299  0.26539  1.0000
  Fe  Fe267     1.0  0.54225  0.50905  0.30848  1.0000
  C   C4030     1.0  0.50256  0.56972  0.39838  1.0000
  C   C4031     1.0  0.55233  0.51043  0.17740  1.0000
  Fe  Fe268     1.0  0.54479  0.51875  0.37231  1.0000
  S   S534      1.0  0.53702  0.51684  0.43818  1.0000
  S   S535      1.0  0.55534  0.51962  0.25973  1.0000
  S   S536      1.0  0.55816  0.53004  0.32800  1.0000
  Fe  Fe269     1.0  0.54675  0.51154  0.68531  1.0000
  S   S537      1.0  0.54210  0.51285  0.63026  1.0000
  C   C4032     1.0  0.50035  0.59478  0.67227  1.0000
  Fe  Fe270     1.0  0.53703  0.52749  0.70527  1.0000
  S   S538      1.0  0.53163  0.53032  0.65140  1.0000
  S   S539      1.0  0.53361  0.53390  0.75689  1.0000
  Fe  Fe271     1.0  0.52785  0.51397  0.66780  1.0000
  C   C4033     1.0  0.60870  0.50918  0.09291  1.0000
  Fe  Fe272     1.0  0.54632  0.52907  0.61641  1.0000
  S   S540      1.0  0.55335  0.53766  0.54954  1.0000
  H   H3219     1.0  0.50780  0.57516  0.44069  1.0000
  S   S541      1.0  0.55237  0.52788  0.66858  1.0000
  C   C4034     1.0  0.54189  0.52280  0.46780  1.0000
  C   C4035     1.0  0.53650  0.52044  0.50894  1.0000
  C   C4036     1.0  0.54008  0.52483  0.53407  1.0000
  C   C4037     1.0  0.54899  0.53186  0.51811  1.0000
  C   C4038     1.0  0.55433  0.53438  0.47668  1.0000
  C   C4039     1.0  0.55085  0.52977  0.45164  1.0000
  H   H3220     1.0  0.52950  0.51518  0.52154  1.0000
  H   H3221     1.0  0.53576  0.52298  0.56560  1.0000
  H   H3222     1.0  0.56122  0.53982  0.46405  1.0000
  H   H3223     1.0  0.55507  0.53165  0.41991  1.0000
  S   S542      1.0  0.57642  0.51236  0.30591  1.0000
  C   C4040     1.0  0.50324  0.51595  0.43099  1.0000
  C   C4041     1.0  0.50565  0.52194  0.76299  1.0000
  C   C4042     1.0  0.63649  0.50597  0.16422  1.0000
  H   H3224     1.0  0.57643  0.51546  0.22324  1.0000
  H   H3225     1.0  0.53917  0.54113  0.41208  1.0000
  C   C4043     1.0  0.56782  0.59421  0.67075  1.0000
  H   H3226     1.0  0.50077  0.64177  0.44629  1.0000
  H   H3227     1.0  0.50985  0.59709  0.73693  1.0000
  H   H3228     1.0  0.61276  0.52893  0.11580  1.0000
  C   C4044     1.0  0.53103  0.58366  0.72932  1.0000
  C   C4045     1.0  0.52475  0.59790  0.73591  1.0000
  C   C4046     1.0  0.57954  0.50925  0.23205  1.0000
  H   H3229     1.0  0.52297  0.57143  0.80572  1.0000
  C   C4047     1.0  0.56348  0.59470  0.73966  1.0000
  H   H3230     1.0  0.51210  0.52620  0.85361  1.0000
  C   C4048     1.0  0.50415  0.57060  0.05893  1.0000
  C   C4049     1.0  0.51044  0.55187  0.77056  1.0000
  C   C4050     1.0  0.51478  0.54923  0.80068  1.0000
  C   C4051     1.0  0.52206  0.54395  0.79564  1.0000
  C   C4052     1.0  0.52480  0.54097  0.76115  1.0000
  C   C4053     1.0  0.52050  0.54368  0.73089  1.0000
  C   C4054     1.0  0.51336  0.54914  0.73555  1.0000
  H   H3231     1.0  0.51251  0.55127  0.82783  1.0000
  H   H3232     1.0  0.52551  0.54208  0.81878  1.0000
  H   H3233     1.0  0.52267  0.54159  0.70390  1.0000
  H   H3234     1.0  0.51007  0.55122  0.71202  1.0000
  C   C4055     1.0  0.53645  0.54809  0.25185  1.0000
  C   C4056     1.0  0.52913  0.54332  0.28928  1.0000
  C   C4057     1.0  0.52013  0.54590  0.29747  1.0000
  C   C4058     1.0  0.51835  0.55345  0.26871  1.0000
  C   C4059     1.0  0.52558  0.55819  0.23094  1.0000
  C   C4060     1.0  0.53462  0.55552  0.22258  1.0000
  H   H3235     1.0  0.53049  0.53787  0.31262  1.0000
  H   H3236     1.0  0.51459  0.54210  0.32661  1.0000
  H   H3237     1.0  0.52431  0.56405  0.20856  1.0000
  H   H3238     1.0  0.54023  0.55928  0.19351  1.0000
  H   H3239     1.0  0.50891  0.51325  0.81345  1.0000
  H   H3240     1.0  0.60126  0.53528  0.16052  1.0000
  C   C4061     1.0  0.57999  0.50593  0.27153  1.0000
  C   C4062     1.0  0.52329  0.51065  0.90340  1.0000
  H   H3241     1.0  0.50371  0.52735  0.62372  1.0000
  C   C4063     1.0  0.54089  0.56999  0.69603  1.0000
  C   C4064     1.0  0.52652  0.56222  0.85418  1.0000
  C   C4065     1.0  0.54864  0.54996  0.35236  1.0000
  H   H3242     1.0  0.53188  0.55307  0.89698  1.0000
  H   H3243     1.0  0.50233  0.54337  0.21161  1.0000
  C   C4066     1.0  0.52184  0.53577  0.53681  1.0000
  H   H3244     1.0  0.52830  0.52534  0.86018  1.0000
  H   H3245     1.0  0.54417  0.55718  0.73238  1.0000
  C   C4067     1.0  0.61351  0.51701  0.16515  1.0000
  S   S543      1.0  0.54957  0.50606  0.35574  1.0000
  C   C4068     1.0  0.55873  0.58787  0.68007  1.0000
  C   C4069     1.0  0.57020  0.59762  0.70051  1.0000
  H   H3246     1.0  0.52644  0.52993  0.39600  1.0000
  C   C4070     1.0  0.56150  0.50905  0.15936  1.0000
  C   C4071     1.0  0.53724  0.56862  0.78391  1.0000
  H   H3247     1.0  0.55171  0.51723  0.18379  1.0000
  S   S544      1.0  0.51440  0.50664  0.65960  1.0000
  H   H3248     1.0  0.63441  0.51940  0.04536  1.0000
  C   C4072     1.0  0.55439  0.58834  0.74912  1.0000
  C   C4073     1.0  0.61029  0.52531  0.14838  1.0000
  C   C4074     1.0  0.50772  0.51013  0.24883  1.0000
  C   C4075     1.0  0.51366  0.53460  0.42357  1.0000
  C   C4076     1.0  0.53230  0.59300  0.73403  1.0000
  H   H3249     1.0  0.51228  0.52181  0.74097  1.0000
  H   H3250     1.0  0.57304  0.59648  0.64040  1.0000
  H   H3251     1.0  0.60467  0.51365  0.10713  1.0000
  C   C4077     1.0  0.53102  0.55233  0.46791  1.0000
  C   C4078     1.0  0.52842  0.56778  0.81359  1.0000
  C   C4079     1.0  0.63666  0.52475  0.05896  1.0000
  C   C4080     1.0  0.60411  0.51645  0.23268  1.0000
  H   H3252     1.0  0.64765  0.53404  0.00283  1.0000
  H   H3253     1.0  0.52564  0.60499  0.74062  1.0000
  C   C4081     1.0  0.51386  0.52662  0.24830  1.0000
  C   C4082     1.0  0.50238  0.54628  0.15003  1.0000
  H   H3254     1.0  0.56749  0.50843  0.79896  1.0000
  C   C4083     1.0  0.54325  0.56081  0.70376  1.0000
  C   C4084     1.0  0.63526  0.53059  0.11667  1.0000
  H   H3255     1.0  0.53191  0.54190  0.56288  1.0000
  H   H3256     1.0  0.52263  0.50541  0.82802  1.0000
  C   C4085     1.0  0.52934  0.54295  0.53684  1.0000
  H   H3257     1.0  0.51117  0.56243  0.02254  1.0000
  C   C4086     1.0  0.51290  0.51959  0.87385  1.0000
  C   C4087     1.0  0.51893  0.53681  0.50225  1.0000
  H   H3258     1.0  0.53900  0.59645  0.73725  1.0000
  C   C4088     1.0  0.54415  0.56382  0.79565  1.0000
  H   H3259     1.0  0.63190  0.52973  0.14845  1.0000
  C   C4089     1.0  0.64279  0.53890  0.09227  1.0000
  H   H3260     1.0  0.54618  0.54898  0.68067  1.0000
  C   C4090     1.0  0.61037  0.51261  0.20759  1.0000
  C   C4091     1.0  0.55194  0.58487  0.71940  1.0000
  C   C4092     1.0  0.51586  0.59349  0.73348  1.0000
  C   C4093     1.0  0.51455  0.58421  0.72869  1.0000
  C   C4094     1.0  0.52450  0.51544  0.24567  1.0000
  H   H3261     1.0  0.50764  0.59947  0.66198  1.0000
  P   P135      1.0  0.54017  0.57664  0.73219  1.0000
  H   H3262     1.0  0.56531  0.59735  0.76276  1.0000
  C   C4095     1.0  0.50777  0.55543  0.38677  1.0000
  H   H3263     1.0  0.57724  0.60254  0.69323  1.0000
  H   H3264     1.0  0.64515  0.54438  0.10516  1.0000
  H   H3265     1.0  0.59568  0.52731  0.23538  1.0000
  H   H3266     1.0  0.52082  0.57197  0.72453  1.0000
  C   C4096     1.0  0.52209  0.51914  0.87771  1.0000
  C   C4097     1.0  0.63213  0.52346  0.10019  1.0000
  C   C4098     1.0  0.59793  0.50568  0.70022  1.0000
  C   C4099     1.0  0.52210  0.57931  0.72665  1.0000
  C   C4100     1.0  0.61716  0.50714  0.10121  1.0000
  C   C4101     1.0  0.51687  0.50817  0.24710  1.0000
  C   C4102     1.0  0.50670  0.56769  0.02395  1.0000
  H   H3267     1.0  0.51339  0.53096  0.50234  1.0000
  S   S545      1.0  0.53183  0.51105  0.72476  1.0000
  H   H3268     1.0  0.52902  0.53033  0.24399  1.0000
  H   H3269     1.0  0.55873  0.51101  0.74807  1.0000
  C   C4103     1.0  0.50772  0.56957  0.42599  1.0000
  H   H3270     1.0  0.65307  0.54658  0.03236  1.0000
  H   H3271     1.0  0.53952  0.57279  0.60071  1.0000
  C   C4104     1.0  0.51858  0.52801  0.40951  1.0000
  C   C4105     1.0  0.52349  0.54513  0.46752  1.0000
  C   C4106     1.0  0.51308  0.55528  0.41404  1.0000
  H   H3272     1.0  0.50542  0.55410  0.14169  1.0000
  P   P136      1.0  0.62237  0.51280  0.13223  1.0000
  C   C4107     1.0  0.54055  0.56945  0.62950  1.0000
  H   H3273     1.0  0.59848  0.50658  0.06138  1.0000
  H   H3274     1.0  0.55479  0.54694  0.35601  1.0000
  H   H3275     1.0  0.54925  0.58618  0.77962  1.0000
  H   H3276     1.0  0.64120  0.51326  0.14864  1.0000
  H   H3277     1.0  0.55629  0.55920  0.29045  1.0000
  H   H3278     1.0  0.61269  0.50623  0.22165  1.0000
  C   C4108     1.0  0.53337  0.55735  0.86546  1.0000
  H   H3279     1.0  0.51867  0.52916  0.56292  1.0000
  C   C4109     1.0  0.50347  0.53168  0.44215  1.0000
  H   H3280     1.0  0.50789  0.55017  0.37048  1.0000
  H   H3281     1.0  0.54224  0.56617  0.28226  1.0000
  C   C4110     1.0  0.54217  0.55812  0.83618  1.0000
  H   H3282     1.0  0.53483  0.55867  0.44111  1.0000
  H   H3283     1.0  0.60114  0.51350  0.63668  1.0000
  C   C4111     1.0  0.60387  0.52900  0.17358  1.0000
  H   H3284     1.0  0.54752  0.55440  0.84498  1.0000
  H   H3285     1.0  0.51705  0.56254  0.45466  1.0000
  H   H3286     1.0  0.54003  0.55655  0.50198  1.0000
  C   C4112     1.0  0.53977  0.54671  0.38413  1.0000
  H   H3287     1.0  0.51974  0.56174  0.87697  1.0000
  C   C4113     1.0  0.53274  0.55774  0.34294  1.0000
  C   C4114     1.0  0.53395  0.55121  0.50239  1.0000
  S   S546      1.0  0.50722  0.55697  0.28308  1.0000
  C   C4115     1.0  0.50258  0.56264  0.37887  1.0000
  H   H3288     1.0  0.52670  0.56079  0.33804  1.0000
  H   H3289     1.0  0.51289  0.53387  0.24827  1.0000
  C   C4116     1.0  0.53954  0.57427  0.65859  1.0000
  C   C4117     1.0  0.64725  0.54014  0.05127  1.0000
  H   H3290     1.0  0.56800  0.51478  0.15199  1.0000
  S   S547      1.0  0.50145  0.55870  0.77508  1.0000
  H   H3291     1.0  0.54381  0.55660  0.61489  1.0000
  C   C4118     1.0  0.54298  0.56035  0.63739  1.0000
  C   C4119     1.0  0.50492  0.50868  0.57249  1.0000
  C   C4120     1.0  0.51338  0.51873  0.41326  1.0000
  C   C4121     1.0  0.50607  0.51930  0.25057  1.0000
  H   H3292     1.0  0.55708  0.58533  0.65651  1.0000
  H   H3293     1.0  0.59970  0.51226  0.70810  1.0000
  C   C4122     1.0  0.54436  0.55607  0.67441  1.0000
  H   H3294     1.0  0.53782  0.58140  0.65166  1.0000
  C   C4123     1.0  0.53172  0.55054  0.37966  1.0000
  C   C4124     1.0  0.64419  0.53306  0.03465  1.0000
  H   H3295     1.0  0.50154  0.54714  0.09056  1.0000
  P   P137      1.0  0.52037  0.54635  0.42149  1.0000
  H   H3296     1.0  0.50752  0.58059  0.72862  1.0000
  H   H3297     1.0  0.51727  0.51364  0.40280  1.0000
  C   C4125     1.0  0.52302  0.52468  0.24582  1.0000
  C   C4126     1.0  0.54161  0.56091  0.31110  1.0000
  C   C4127     1.0  0.54953  0.55697  0.31568  1.0000
  C   C4128     1.0  0.50485  0.51151  0.89508  1.0000
  H   H3298     1.0  0.50623  0.51392  0.58794  1.0000
  H   H3299     1.0  0.58356  0.50771  0.17243  1.0000
  C   C4129     1.0  0.60511  0.50512  0.06704  1.0000
  H   H3300     1.0  0.54863  0.50424  0.52567  1.0000
  C   C4130     1.0  0.59870  0.50637  0.66009  1.0000
  C   C4131     1.0  0.58367  0.50492  0.20324  1.0000
  H   H3301     1.0  0.50054  0.58963  0.51202  1.0000
  C   C4132     1.0  0.56167  0.50459  0.75461  1.0000
  H   H3302     1.0  0.50065  0.53075  0.71797  1.0000
  C   C4133     1.0  0.50056  0.54017  0.18976  1.0000
  H   H3303     1.0  0.52114  0.50648  0.33363  1.0000
  C   C4134     1.0  0.50026  0.54234  0.12115  1.0000
  Fe  Fe273     1.0  0.49996  0.56648  0.24452  1.0000
  H   H3304     1.0  0.50202  0.50449  0.24859  1.0000
  Fe  Fe274     1.0  0.49931  0.57089  0.90053  1.0000
  H   H3305     1.0  0.49925  0.50874  0.43387  1.0000
  C   C4135     1.0  0.50610  0.50302  0.92105  1.0000
  H   H3306     1.0  0.49968  0.52291  0.32487  1.0000
  H   H3307     1.0  0.50032  0.52775  0.91729  1.0000
  H   H3308     1.0  0.53967  0.50425  0.80034  1.0000
  C   C4136     1.0  0.62700  0.50371  0.16214  1.0000
  H   H3309     1.0  0.53686  0.50402  0.20212  1.0000
  H   H3310     1.0  0.49955  0.53655  0.45408  1.0000
  C   C4137     1.0  0.54395  0.50302  0.18755  1.0000
  C   C4138     1.0  0.49907  0.52695  0.75001  1.0000
  C   C4139     1.0  0.56664  0.50312  0.78335  1.0000
  C   C4140     1.0  0.51529  0.50261  0.92518  1.0000
  S   S548      1.0  0.55154  0.00029  0.40169  1.0000
  C   C4141     1.0  0.52002  0.94297  0.65801  1.0000
  H   H3311     1.0  0.53669  0.86098  0.59829  1.0000
  H   H3312     1.0  0.51614  0.95300  0.68967  1.0000
  Fe  Fe275     1.0  0.55088  0.97905  0.35440  1.0000
  S   S549      1.0  0.54156  0.97697  0.41816  1.0000
  S   S550      1.0  0.55017  0.96664  0.32638  1.0000
  Fe  Fe276     1.0  0.53902  0.99167  0.39115  1.0000
  S   S551      1.0  0.52438  0.99532  0.40470  1.0000
  Fe  Fe277     1.0  0.55479  0.98571  0.42480  1.0000
  S   S552      1.0  0.55625  0.98130  0.48824  1.0000
  S   S553      1.0  0.54741  0.99328  0.32722  1.0000
  S   S554      1.0  0.56460  0.98651  0.36299  1.0000
  H   H3313     1.0  0.51070  0.89490  0.65507  1.0000
  Fe  Fe278     1.0  0.50858  0.93055  0.82545  1.0000
  H   H3314     1.0  0.52220  0.94037  0.99956  1.0000
  Fe  Fe279     1.0  0.55442  0.99511  0.73325  1.0000
  P   P138      1.0  0.50323  0.85884  0.68254  1.0000
  S   S555      1.0  0.54811  0.97987  0.78119  1.0000
  C   C4142     1.0  0.50684  0.91934  0.00717  1.0000
  H   H3315     1.0  0.49993  0.90484  0.36806  1.0000
  H   H3316     1.0  0.57486  0.99499  0.46769  1.0000
  S   S556      1.0  0.49922  0.98189  0.76857  1.0000
  Fe  Fe280     1.0  0.56037  0.00076  0.33966  1.0000
  C   C4143     1.0  0.51149  0.94088  0.61091  1.0000
  H   H3317     1.0  0.52402  0.96323  0.38160  1.0000
  C   C4144     1.0  0.51487  0.94987  0.66697  1.0000
  C   C4145     1.0  0.53950  0.97018  0.77860  1.0000
  C   C4146     1.0  0.53758  0.97035  0.74247  1.0000
  C   C4147     1.0  0.53113  0.96226  0.74117  1.0000
  C   C4148     1.0  0.52641  0.95398  0.77600  1.0000
  C   C4149     1.0  0.52821  0.95387  0.81229  1.0000
  C   C4150     1.0  0.53477  0.96189  0.81345  1.0000
  H   H3318     1.0  0.54125  0.97659  0.71528  1.0000
  H   H3319     1.0  0.52985  0.96239  0.71296  1.0000
  S   S557      1.0  0.51954  0.95243  0.24273  1.0000
  H   H3320     1.0  0.53624  0.96165  0.84149  1.0000
  C   C4151     1.0  0.51922  0.98906  0.61625  1.0000
  P   P139      1.0  0.52648  0.98579  0.93288  1.0000
  H   H3321     1.0  0.53407  0.96870  0.96185  1.0000
  H   H3322     1.0  0.54008  0.84891  0.65311  1.0000
  H   H3323     1.0  0.50855  0.98113  0.59866  1.0000
  H   H3324     1.0  0.53098  0.93032  0.75484  1.0000
  C   C4152     1.0  0.51718  0.96096  0.37646  1.0000
  S   S558      1.0  0.51763  0.93584  0.08617  1.0000
  H   H3325     1.0  0.51147  0.84555  0.73427  1.0000
  C   C4153     1.0  0.56031  0.98996  0.51052  1.0000
  C   C4154     1.0  0.57001  0.99540  0.49536  1.0000
  H   H3326     1.0  0.55671  0.99267  0.81719  1.0000
  C   C4155     1.0  0.52865  0.98331  0.08988  1.0000
  C   C4156     1.0  0.50327  0.92794  0.37590  1.0000
  C   C4157     1.0  0.55427  0.99025  0.54753  1.0000
  P   P140      1.0  0.50127  0.96119  0.66076  1.0000
  C   C4158     1.0  0.52522  0.97751  0.16269  1.0000
  C   C4159     1.0  0.50937  0.88700  0.71669  1.0000
  H   H3327     1.0  0.54684  0.98593  0.55999  1.0000
  C   C4160     1.0  0.54178  0.96294  0.30211  1.0000
  C   C4161     1.0  0.53503  0.96832  0.29333  1.0000
  C   C4162     1.0  0.52834  0.96498  0.27507  1.0000
  C   C4163     1.0  0.52835  0.95628  0.26496  1.0000
  C   C4164     1.0  0.53531  0.95106  0.27258  1.0000
  C   C4165     1.0  0.54194  0.95435  0.29117  1.0000
  H   H3328     1.0  0.53483  0.97494  0.30146  1.0000
  C   C4166     1.0  0.51353  0.92850  0.98922  1.0000
  H   H3329     1.0  0.53568  0.94455  0.26381  1.0000
  H   H3330     1.0  0.54723  0.95020  0.29718  1.0000
  H   H3331     1.0  0.52909  0.97363  0.60734  1.0000
  C   C4167     1.0  0.51214  0.98078  0.62133  1.0000
  C   C4168     1.0  0.51452  0.98523  0.41790  1.0000
  C   C4169     1.0  0.51477  0.85544  0.67301  1.0000
  H   H3332     1.0  0.53023  0.95632  0.02929  1.0000
  H   H3333     1.0  0.52033  0.97488  0.45444  1.0000
  S   S559      1.0  0.51880  0.92747  0.20144  1.0000
  C   C4170     1.0  0.51676  0.93347  0.01376  1.0000
  H   H3334     1.0  0.56054  0.97676  0.60563  1.0000
  C   C4171     1.0  0.55785  0.99597  0.56897  1.0000
  H   H3335     1.0  0.52099  0.99556  0.58995  1.0000
  C   C4172     1.0  0.51303  0.96804  0.35693  1.0000
  C   C4173     1.0  0.51257  0.95099  0.38914  1.0000
  C   C4174     1.0  0.55596  0.99191  0.91295  1.0000
  H   H3336     1.0  0.56584  0.98800  0.64043  1.0000
  C   C4175     1.0  0.52398  0.98898  0.64508  1.0000
  C   C4176     1.0  0.53954  0.98863  0.90859  1.0000
  H   H3337     1.0  0.50871  0.98720  0.83307  1.0000
  H   H3338     1.0  0.53241  0.97041  0.12218  1.0000
  C   C4177     1.0  0.51424  0.97599  0.44361  1.0000
  H   H3339     1.0  0.52727  0.96794  0.55023  1.0000
  H   H3340     1.0  0.54844  0.95101  0.56399  1.0000
  H   H3341     1.0  0.51014  0.93734  0.58939  1.0000
  C   C4178     1.0  0.54583  0.98977  0.93129  1.0000
  S   S560      1.0  0.50654  0.94384  0.17692  1.0000
  C   C4179     1.0  0.53261  0.99356  0.24603  1.0000
  C   C4180     1.0  0.51235  0.93218  0.34516  1.0000
  H   H3342     1.0  0.57905  0.96953  0.49387  1.0000
  C   C4181     1.0  0.55366  0.99192  0.84902  1.0000
  C   C4182     1.0  0.52591  0.84642  0.69691  1.0000
  H   H3343     1.0  0.51231  0.98275  0.01410  1.0000
  C   C4183     1.0  0.51115  0.97281  0.85523  1.0000
  H   H3344     1.0  0.51655  0.93155  0.95644  1.0000
  C   C4184     1.0  0.51688  0.92658  0.32326  1.0000
  C   C4185     1.0  0.52025  0.98063  0.90326  1.0000
  C   C4186     1.0  0.52351  0.97673  0.98263  1.0000
  C   C4187     1.0  0.56762  0.00128  0.55403  1.0000
  H   H3345     1.0  0.59060  0.95967  0.51245  1.0000
  C   C4188     1.0  0.52421  0.99105  0.09330  1.0000
  H   H3346     1.0  0.54045  0.96818  0.64285  1.0000
  H   H3347     1.0  0.50220  0.94637  0.09945  1.0000
  H   H3348     1.0  0.52942  0.99539  0.64151  1.0000
  C   C4189     1.0  0.50527  0.86990  0.69597  1.0000
  C   C4190     1.0  0.53316  0.96855  0.59847  1.0000
  H   H3349     1.0  0.55594  0.95204  0.71240  1.0000
  H   H3350     1.0  0.51589  0.94561  0.40426  1.0000
  C   C4191     1.0  0.51631  0.97708  0.01667  1.0000
  S   S561      1.0  0.49973  0.93190  0.88445  1.0000
  H   H3351     1.0  0.52377  0.92993  0.29903  1.0000
  C   C4192     1.0  0.51507  0.96688  0.88118  1.0000
  C   C4193     1.0  0.51243  0.91672  0.33185  1.0000
  C   C4194     1.0  0.51649  0.98659  0.87627  1.0000
  H   H3352     1.0  0.52299  0.96907  0.26948  1.0000
  S   S562      1.0  0.51870  0.94382  0.77201  1.0000
  H   H3353     1.0  0.53698  0.95662  0.52871  1.0000
  H   H3354     1.0  0.54721  0.91924  0.66561  1.0000
  C   C4195     1.0  0.51815  0.99143  0.75128  1.0000
  C   C4196     1.0  0.51936  0.96267  0.05938  1.0000
  C   C4197     1.0  0.52853  0.96921  0.98755  1.0000
  C   C4198     1.0  0.54353  0.98977  0.86720  1.0000
  S   S563      1.0  0.50363  0.91210  0.97787  1.0000
  H   H3355     1.0  0.57042  0.94624  0.63375  1.0000
  H   H3356     1.0  0.49916  0.90096  0.16962  1.0000
  H   H3357     1.0  0.52519  0.94101  0.67348  1.0000
  H   H3358     1.0  0.53889  0.98892  0.84882  1.0000
  H   H3359     1.0  0.52273  0.96606  0.92434  1.0000
  C   C4199     1.0  0.51960  0.97076  0.90513  1.0000
  H   H3360     1.0  0.50783  0.96987  0.83598  1.0000
  H   H3361     1.0  0.51919  0.98427  0.76548  1.0000
  C   C4200     1.0  0.52371  0.99584  0.26122  1.0000
  H   H3362     1.0  0.51587  0.91244  0.31430  1.0000
  H   H3363     1.0  0.51064  0.89356  0.72521  1.0000
  H   H3364     1.0  0.52580  0.97235  0.18945  1.0000
  H   H3365     1.0  0.56334  0.96781  0.54437  1.0000
  H   H3366     1.0  0.53497  0.91623  0.73299  1.0000
  H   H3367     1.0  0.50494  0.96689  0.57242  1.0000
  H   H3368     1.0  0.55549  0.93620  0.62055  1.0000
  H   H3369     1.0  0.58625  0.94808  0.58256  1.0000
  H   H3370     1.0  0.52469  0.94752  0.83928  1.0000
  C   C4201     1.0  0.52643  0.96221  0.02572  1.0000
  C   C4202     1.0  0.55987  0.99298  0.87181  1.0000
  C   C4203     1.0  0.51276  0.99693  0.94768  1.0000
  H   H3371     1.0  0.53913  0.94729  0.71024  1.0000
  C   C4204     1.0  0.49956  0.95516  0.36311  1.0000
  H   H3372     1.0  0.51476  0.95932  0.88207  1.0000
  C   C4205     1.0  0.56075  0.96627  0.71612  1.0000
  C   C4206     1.0  0.56359  0.97639  0.69601  1.0000
  C   C4207     1.0  0.56349  0.98014  0.65624  1.0000
  C   C4208     1.0  0.56041  0.97376  0.63674  1.0000
  C   C4209     1.0  0.55734  0.96358  0.65704  1.0000
  C   C4210     1.0  0.55780  0.95985  0.69653  1.0000
  P   P141      1.0  0.55411  0.95550  0.62996  1.0000
  C   C4211     1.0  0.54539  0.95927  0.60572  1.0000
  C   C4212     1.0  0.56547  0.95646  0.59226  1.0000
  C   C4213     1.0  0.57213  0.95113  0.60300  1.0000
  C   C4214     1.0  0.58113  0.95222  0.57417  1.0000
  C   C4215     1.0  0.58360  0.95876  0.53471  1.0000
  C   C4216     1.0  0.57711  0.96429  0.52417  1.0000
  C   C4217     1.0  0.56812  0.96322  0.55290  1.0000
  C   C4218     1.0  0.53971  0.96551  0.61831  1.0000
  H   H3373     1.0  0.55311  0.99608  0.59742  1.0000
  H   H3374     1.0  0.50759  0.87724  0.77603  1.0000
  C   C4219     1.0  0.53760  0.95893  0.55426  1.0000
  C   C4220     1.0  0.54414  0.95584  0.57411  1.0000
  C   C4221     1.0  0.54831  0.94303  0.66290  1.0000
  C   C4222     1.0  0.55032  0.93503  0.65012  1.0000
  C   C4223     1.0  0.54557  0.92539  0.67540  1.0000
  C   C4224     1.0  0.53866  0.92368  0.71328  1.0000
  C   C4225     1.0  0.53643  0.93161  0.72569  1.0000
  C   C4226     1.0  0.54115  0.94125  0.70045  1.0000
  H   H3375     1.0  0.56076  0.96342  0.74713  1.0000
  H   H3376     1.0  0.56584  0.98131  0.71146  1.0000
  S   S564      1.0  0.54964  0.99942  0.67828  1.0000
  C   C4227     1.0  0.52080  0.98525  0.16624  1.0000
  C   C4228     1.0  0.50821  0.00122  0.18683  1.0000
  C   C4229     1.0  0.51312  0.92948  0.05646  1.0000
  S   S565      1.0  0.51238  0.91641  0.85478  1.0000
  H   H3377     1.0  0.51278  0.96604  0.71148  1.0000
  H   H3378     1.0  0.52073  0.86534  0.61097  1.0000
  C   C4230     1.0  0.56744  0.99657  0.19603  1.0000
  Fe  Fe281     1.0  0.51333  0.93914  0.22591  1.0000
  H   H3379     1.0  0.56079  0.99271  0.93061  1.0000
  H   H3380     1.0  0.50760  0.87995  0.63594  1.0000
  C   C4231     1.0  0.52903  0.97646  0.12465  1.0000
  Fe  Fe282     1.0  0.51102  0.93159  0.15511  1.0000
  H   H3381     1.0  0.50057  0.94897  0.60672  1.0000
  H   H3382     1.0  0.50192  0.88735  0.14241  1.0000
  C   C4232     1.0  0.50895  0.99241  0.74885  1.0000
  H   H3383     1.0  0.50727  0.94841  0.02609  1.0000
  C   C4233     1.0  0.53303  0.85074  0.65867  1.0000
  C   C4234     1.0  0.51423  0.97005  0.05485  1.0000
  C   C4235     1.0  0.50655  0.98660  0.40440  1.0000
  H   H3384     1.0  0.52745  0.84127  0.72104  1.0000
  C   C4236     1.0  0.53214  0.96534  0.56630  1.0000
  C   C4237     1.0  0.50761  0.87777  0.74544  1.0000
  H   H3385     1.0  0.51659  0.97577  0.34748  1.0000
  H   H3386     1.0  0.50661  0.98899  0.49583  1.0000
  C   C4238     1.0  0.53112  0.85753  0.62777  1.0000
  C   C4239     1.0  0.50265  0.99472  0.49391  1.0000
  H   H3387     1.0  0.52252  0.93329  0.62261  1.0000
  Fe  Fe283     1.0  0.50409  0.91708  0.24134  1.0000
  C   C4240     1.0  0.50564  0.86925  0.73510  1.0000
  H   H3388     1.0  0.56509  0.99359  0.14364  1.0000
  H   H3389     1.0  0.51783  0.95722  0.08887  1.0000
  H   H3390     1.0  0.56427  0.98904  0.21608  1.0000
  C   C4241     1.0  0.51991  0.99188  0.13170  1.0000
  C   C4242     1.0  0.50805  0.95246  0.64756  1.0000
  H   H3391     1.0  0.50870  0.97031  0.08109  1.0000
  H   H3392     1.0  0.52967  0.99840  0.47659  1.0000
  C   C4243     1.0  0.50366  0.94801  0.38299  1.0000
  C   C4244     1.0  0.50590  0.96824  0.45646  1.0000
  H   H3393     1.0  0.52419  0.99645  0.06594  1.0000
  S   S566      1.0  0.50154  0.90131  0.28350  1.0000
  H   H3394     1.0  0.51591  0.93985  0.33730  1.0000
  H   H3395     1.0  0.51827  0.98605  0.19593  1.0000
  H   H3396     1.0  0.50728  0.99038  0.95310  1.0000
  H   H3397     1.0  0.53274  0.98682  0.23872  1.0000
  H   H3398     1.0  0.51730  0.99434  0.87238  1.0000
  H   H3399     1.0  0.53298  0.99882  0.73897  1.0000
  H   H3400     1.0  0.52530  0.98056  0.70153  1.0000
  C   C4245     1.0  0.50310  0.91542  0.04986  1.0000
  C   C4246     1.0  0.51683  0.84881  0.70420  1.0000
  H   H3401     1.0  0.50324  0.91740  0.10708  1.0000
  C   C4247     1.0  0.51174  0.98261  0.85327  1.0000
  C   C4248     1.0  0.50425  0.96514  0.35006  1.0000
  H   H3402     1.0  0.51691  0.99085  0.26579  1.0000
  H   H3403     1.0  0.50615  0.99084  0.09003  1.0000
  C   C4249     1.0  0.51458  0.97233  0.68432  1.0000
  H   H3404     1.0  0.50669  0.99358  0.38405  1.0000
  C   C4250     1.0  0.50743  0.87922  0.66677  1.0000
  C   C4251     1.0  0.50981  0.97228  0.65529  1.0000
  C   C4252     1.0  0.50145  0.85497  0.61273  1.0000
  H   H3405     1.0  0.56771  0.99459  0.85748  1.0000
  C   C4253     1.0  0.56786  0.99916  0.15532  1.0000
  C   C4254     1.0  0.50612  0.92052  0.07436  1.0000
  H   H3406     1.0  0.50563  0.96114  0.47677  1.0000
  H   H3407     1.0  0.53762  0.99755  0.52967  1.0000
  C   C4255     1.0  0.51844  0.93857  0.62962  1.0000
  H   H3408     1.0  0.50089  0.98588  0.20374  1.0000
  C   C4256     1.0  0.52167  0.98061  0.67898  1.0000
  C   C4257     1.0  0.52271  0.99686  0.93752  1.0000
  H   H3409     1.0  0.54291  0.98899  0.96319  1.0000
  H   H3410     1.0  0.50431  0.86216  0.75779  1.0000
  H   H3411     1.0  0.53186  0.98264  0.06025  1.0000
  H   H3412     1.0  0.50095  0.97063  0.33557  1.0000
  C   C4258     1.0  0.50336  0.99735  0.08829  1.0000
  C   C4259     1.0  0.52205  0.85993  0.63498  1.0000
  C   C4260     1.0  0.50933  0.88773  0.67731  1.0000
  C   C4261     1.0  0.57364  0.00094  0.51718  1.0000
  H   H3413     1.0  0.57113  0.00159  0.24226  1.0000
  C   C4262     1.0  0.50769  0.00175  0.73109  1.0000
  C   C4263     1.0  0.49958  0.94633  0.04364  1.0000
  C   C4264     1.0  0.50340  0.91244  0.36222  1.0000
  Fe  Fe284     1.0  0.50281  0.91747  0.91352  1.0000
  C   C4265     1.0  0.52602  0.99968  0.73571  1.0000
  C   C4266     1.0  0.50619  0.94767  0.62031  1.0000
  H   H3414     1.0  0.54824  0.99807  0.22971  1.0000
  H   H3415     1.0  0.50549  0.96305  0.21248  1.0000
  C   C4267     1.0  0.54136  0.99994  0.24070  1.0000
  H   H3416     1.0  0.50622  0.85005  0.61711  1.0000
  C   C4268     1.0  0.50190  0.99224  0.21367  1.0000
  S   S567      1.0  0.49935  0.92850  0.26884  1.0000
  P   P142      1.0  0.51470  0.00228  0.13511  1.0000
  H   H3417     1.0  0.49940  0.85135  0.56082  1.0000
  Fe  Fe285     1.0  0.76511  0.29314  0.25819  1.0000
  S   S568      1.0  0.76974  0.30445  0.19617  1.0000
  C   C4269     1.0  0.76501  0.24001  0.19012  1.0000
  Fe  Fe286     1.0  0.78433  0.30241  0.27316  1.0000
  S   S569      1.0  0.79002  0.31364  0.21064  1.0000
  S   S570      1.0  0.79255  0.30243  0.32041  1.0000
  Fe  Fe287     1.0  0.77475  0.31563  0.22307  1.0000
  H   H3418     1.0  0.76876  0.22703  0.22161  1.0000
  Fe  Fe288     1.0  0.78452  0.30147  0.18866  1.0000
  S   S571      1.0  0.79265  0.30063  0.12707  1.0000
  S   S572      1.0  0.76899  0.30481  0.28640  1.0000
  S   S573      1.0  0.78001  0.28973  0.24999  1.0000
  S   S574      1.0  0.75353  0.27210  0.89848  1.0000
  C   C4270     1.0  0.89625  0.31423  0.53941  1.0000
  H   H3419     1.0  0.80716  0.31352  0.74332  1.0000
  H   H3420     1.0  0.89954  0.30866  0.59485  1.0000
  H   H3421     1.0  0.75946  0.32574  0.41469  1.0000
  C   C4271     1.0  0.77816  0.26817  0.20551  1.0000
  C   C4272     1.0  0.77265  0.32094  0.39860  1.0000
  H   H3422     1.0  0.75738  0.27398  0.17841  1.0000
  C   C4273     1.0  0.81038  0.31059  0.95758  1.0000
  H   H3423     1.0  0.76377  0.25500  0.87027  1.0000
  Fe  Fe289     1.0  0.78325  0.30060  0.87081  1.0000
  S   S575      1.0  0.77836  0.30944  0.91131  1.0000
  S   S576      1.0  0.79900  0.30379  0.83015  1.0000
  Fe  Fe290     1.0  0.76243  0.28713  0.89480  1.0000
  S   S577      1.0  0.75625  0.29539  0.93620  1.0000
  C   C4274     1.0  0.84793  0.33322  0.89346  1.0000
  Fe  Fe291     1.0  0.76578  0.30925  0.88716  1.0000
  S   S578      1.0  0.76003  0.32300  0.87523  1.0000
  Fe  Fe292     1.0  0.76938  0.29497  0.95700  1.0000
  S   S579      1.0  0.76542  0.29091  0.02525  1.0000
  S   S580      1.0  0.77107  0.30118  0.84332  1.0000
  S   S581      1.0  0.77518  0.28595  0.91873  1.0000
  C   C4275     1.0  0.77037  0.25897  0.01491  1.0000
  C   C4276     1.0  0.76029  0.25349  0.84883  1.0000
  H   H3424     1.0  0.76633  0.22211  0.72372  1.0000
  C   C4277     1.0  0.76008  0.26128  0.81674  1.0000
  C   C4278     1.0  0.78396  0.32264  0.99420  1.0000
  C   C4279     1.0  0.77919  0.32182  0.32839  1.0000
  H   H3425     1.0  0.81397  0.32439  0.03282  1.0000
  H   H3426     1.0  0.79568  0.29524  0.65994  1.0000
  C   C4280     1.0  0.76878  0.33428  0.85884  1.0000
  C   C4281     1.0  0.80468  0.30967  0.72470  1.0000
  C   C4282     1.0  0.75670  0.22528  0.77286  1.0000
  C   C4283     1.0  0.90360  0.32450  0.57166  1.0000
  C   C4284     1.0  0.80114  0.31442  0.69412  1.0000
  H   H3427     1.0  0.78603  0.32328  0.06601  1.0000
  H   H3428     1.0  0.84620  0.32734  0.88142  1.0000
  C   C4285     1.0  0.78075  0.31931  0.73029  1.0000
  H   H3429     1.0  0.79931  0.32941  0.76493  1.0000
  P   P143      1.0  0.80061  0.32712  0.68536  1.0000
  H   H3430     1.0  0.75357  0.22987  0.75307  1.0000
  S   S582      1.0  0.77154  0.33054  0.20198  1.0000
  H   H3431     1.0  0.78852  0.33245  0.22933  1.0000
  C   C4286     1.0  0.75575  0.24385  0.85393  1.0000
  H   H3432     1.0  0.77051  0.31356  0.99742  1.0000
  H   H3433     1.0  0.75543  0.26547  0.76413  1.0000
  C   C4287     1.0  0.75744  0.24450  0.18392  1.0000
  H   H3434     1.0  0.75225  0.31279  0.32721  1.0000
  C   C4288     1.0  0.78855  0.32770  0.71311  1.0000
  H   H3435     1.0  0.78562  0.31667  0.01448  1.0000
  C   C4289     1.0  0.79817  0.29927  0.67807  1.0000
  C   C4290     1.0  0.79784  0.30914  0.67092  1.0000
  H   H3436     1.0  0.77298  0.25969  0.98293  1.0000
  C   C4291     1.0  0.77317  0.32839  0.95766  1.0000
  C   C4292     1.0  0.76417  0.32692  0.35094  1.0000
  H   H3437     1.0  0.78471  0.32062  0.30452  1.0000
  H   H3438     1.0  0.77100  0.32716  0.28954  1.0000
  C   C4293     1.0  0.76269  0.26522  0.06801  1.0000
  H   H3439     1.0  0.76417  0.25817  0.22380  1.0000
  H   H3440     1.0  0.75325  0.32652  0.02095  1.0000
  H   H3441     1.0  0.81971  0.30195  0.97954  1.0000
  H   H3442     1.0  0.80938  0.30670  0.93662  1.0000
  H   H3443     1.0  0.75095  0.24395  0.03730  1.0000
  H   H3444     1.0  0.80752  0.29617  0.75627  1.0000
  C   C4294     1.0  0.76487  0.32467  0.39031  1.0000
  H   H3445     1.0  0.77916  0.27075  0.09455  1.0000
  H   H3446     1.0  0.76334  0.26877  0.81367  1.0000
  H   H3447     1.0  0.78577  0.31651  0.37410  1.0000
  C   C4295     1.0  0.80863  0.31285  0.83001  1.0000
  C   C4296     1.0  0.80709  0.31830  0.85668  1.0000
  C   C4297     1.0  0.81494  0.32527  0.85646  1.0000
  C   C4298     1.0  0.82437  0.32698  0.82927  1.0000
  C   C4299     1.0  0.82590  0.32169  0.80195  1.0000
  C   C4300     1.0  0.81807  0.31460  0.80255  1.0000
  H   H3448     1.0  0.79988  0.31709  0.87769  1.0000
  H   H3449     1.0  0.80126  0.32018  0.94168  1.0000
  H   H3450     1.0  0.83313  0.32292  0.78084  1.0000
  H   H3451     1.0  0.81937  0.31042  0.78180  1.0000
  H   H3452     1.0  0.75949  0.27090  0.07655  1.0000
  C   C4301     1.0  0.78628  0.27422  0.17291  1.0000
  C   C4302     1.0  0.75353  0.22372  0.81485  1.0000
  C   C4303     1.0  0.81294  0.32066  0.01151  1.0000
  H   H3453     1.0  0.75429  0.29870  0.14958  1.0000
  C   C4304     1.0  0.89647  0.32262  0.50873  1.0000
  C   C4305     1.0  0.89979  0.31517  0.57090  1.0000
  C   C4306     1.0  0.75097  0.24978  0.79421  1.0000
  H   H3454     1.0  0.75572  0.21690  0.87203  1.0000
  C   C4307     1.0  0.76599  0.26605  0.02693  1.0000
  P   P144      1.0  0.75433  0.33198  0.33935  1.0000
  C   C4308     1.0  0.80578  0.31825  0.96052  1.0000
  C   C4309     1.0  0.81623  0.30794  0.98162  1.0000
  C   C4310     1.0  0.90385  0.33290  0.54102  1.0000
  H   H3455     1.0  0.83447  0.32771  0.62668  1.0000
  C   C4311     1.0  0.80491  0.29979  0.73204  1.0000
  H   H3456     1.0  0.78166  0.31237  0.72604  1.0000
  C   C4312     1.0  0.77135  0.25098  0.04416  1.0000
  C   C4313     1.0  0.76375  0.25731  0.09754  1.0000
  H   H3457     1.0  0.76844  0.20918  0.84223  1.0000
  C   C4314     1.0  0.77980  0.31950  0.36766  1.0000
  H   H3458     1.0  0.83800  0.33145  0.28447  1.0000
  H   H3459     1.0  0.76354  0.32851  0.78298  1.0000
  C   C4315     1.0  0.75059  0.31779  0.30304  1.0000
  C   C4316     1.0  0.80360  0.33312  0.63137  1.0000
  H   H3460     1.0  0.77476  0.24550  0.03483  1.0000
  C   C4317     1.0  0.80166  0.31046  0.33032  1.0000
  C   C4318     1.0  0.80379  0.30718  0.36691  1.0000
  C   C4319     1.0  0.81079  0.31314  0.37667  1.0000
  C   C4320     1.0  0.81595  0.32255  0.34983  1.0000
  C   C4321     1.0  0.81381  0.32589  0.31324  1.0000
  C   C4322     1.0  0.80672  0.31995  0.30364  1.0000
  H   H3461     1.0  0.79998  0.29991  0.38801  1.0000
  H   H3462     1.0  0.81226  0.31039  0.40494  1.0000
  C   C4323     1.0  0.77063  0.26371  0.15836  1.0000
  H   H3463     1.0  0.80521  0.32269  0.27547  1.0000
  C   C4324     1.0  0.78521  0.29746  0.09887  1.0000
  C   C4325     1.0  0.77524  0.29312  0.11772  1.0000
  C   C4326     1.0  0.76939  0.29092  0.09463  1.0000
  C   C4327     1.0  0.77340  0.29307  0.05256  1.0000
  C   C4328     1.0  0.78345  0.29701  0.03378  1.0000
  C   C4329     1.0  0.78933  0.29915  0.05704  1.0000
  H   H3464     1.0  0.77204  0.29131  0.15020  1.0000
  H   H3465     1.0  0.76166  0.28776  0.10926  1.0000
  H   H3466     1.0  0.78665  0.29855  0.00139  1.0000
  H   H3467     1.0  0.79707  0.30223  0.04262  1.0000
  C   C4330     1.0  0.84090  0.33441  0.92554  1.0000
  C   C4331     1.0  0.77140  0.32548  0.32006  1.0000
  H   H3468     1.0  0.77376  0.21173  0.76814  1.0000
  H   H3469     1.0  0.75151  0.21781  0.25841  1.0000
  C   C4332     1.0  0.77042  0.26285  0.19829  1.0000
  C   C4333     1.0  0.75788  0.21798  0.83973  1.0000
  C   C4334     1.0  0.76179  0.31227  0.10107  1.0000
  H   H3470     1.0  0.77782  0.26772  0.23635  1.0000
  C   C4335     1.0  0.80169  0.29459  0.70868  1.0000
  C   C4336     1.0  0.78667  0.27490  0.13313  1.0000
  H   H3471     1.0  0.75539  0.26527  0.27167  1.0000
  H   H3472     1.0  0.79219  0.27856  0.17834  1.0000
  C   C4337     1.0  0.75108  0.32765  0.30092  1.0000
  H   H3473     1.0  0.89362  0.32171  0.48487  1.0000
  C   C4338     1.0  0.76814  0.21509  0.78115  1.0000
  P   P145      1.0  0.76039  0.25699  0.14985  1.0000
  C   C4339     1.0  0.81746  0.31293  0.00877  1.0000
  H   H3474     1.0  0.82181  0.31072  0.02810  1.0000
  C   C4340     1.0  0.76394  0.22093  0.75613  1.0000
  C   C4341     1.0  0.85284  0.33398  0.24624  1.0000
  H   H3475     1.0  0.76904  0.24401  0.10742  1.0000
  C   C4342     1.0  0.77535  0.32086  0.98465  1.0000
  H   H3476     1.0  0.77258  0.24397  0.17465  1.0000
  C   C4343     1.0  0.77883  0.26978  0.12572  1.0000
  H   H3477     1.0  0.80191  0.28693  0.71444  1.0000
  C   C4344     1.0  0.77170  0.31969  0.75473  1.0000
  S   S583      1.0  0.82498  0.33041  0.36087  1.0000
  C   C4345     1.0  0.76513  0.21364  0.82290  1.0000
  C   C4346     1.0  0.76806  0.25015  0.08538  1.0000
  S   S584      1.0  0.83837  0.32950  0.54177  1.0000
  H   H3478     1.0  0.76578  0.31312  0.76882  1.0000
  H   H3479     1.0  0.85225  0.32629  0.24888  1.0000
  H   H3480     1.0  0.76518  0.27224  0.00444  1.0000
  H   H3481     1.0  0.89325  0.30700  0.53897  1.0000
  H   H3482     1.0  0.79500  0.31263  0.64736  1.0000
  H   H3483     1.0  0.79290  0.27975  0.10792  1.0000
  H   H3484     1.0  0.90629  0.32523  0.59623  1.0000
  H   H3485     1.0  0.81476  0.32531  0.61474  1.0000
  H   H3486     1.0  0.75602  0.23790  0.87890  1.0000
  H   H3487     1.0  0.81369  0.32943  0.87718  1.0000
  C   C4347     1.0  0.81092  0.33076  0.60398  1.0000
  C   C4348     1.0  0.80662  0.33307  0.74415  1.0000
  C   C4349     1.0  0.80938  0.33307  0.70374  1.0000
  C   C4350     1.0  0.78985  0.32868  0.11052  1.0000
  H   H3488     1.0  0.77315  0.31911  0.42903  1.0000
  S   S585      1.0  0.84683  0.33148  0.41890  1.0000
  C   C4351     1.0  0.75400  0.30615  0.13490  1.0000
  C   C4352     1.0  0.75024  0.26275  0.15919  1.0000
  C   C4353     1.0  0.76160  0.32197  0.08284  1.0000
  C   C4354     1.0  0.79127  0.32849  0.07091  1.0000
  C   C4355     1.0  0.80709  0.32340  0.98724  1.0000
  H   H3489     1.0  0.81763  0.33316  0.29219  1.0000
  C   C4356     1.0  0.75062  0.24197  0.82786  1.0000
  H   H3490     1.0  0.78348  0.32383  0.13510  1.0000
  H   H3491     1.0  0.87271  0.33325  0.39316  1.0000
  H   H3492     1.0  0.76668  0.32692  0.94908  1.0000
  C   C4357     1.0  0.75363  0.32569  0.09837  1.0000
  H   H3493     1.0  0.78115  0.32842  0.83846  1.0000
  C   C4358     1.0  0.84215  0.33116  0.61133  1.0000
  C   C4359     1.0  0.77041  0.32838  0.76255  1.0000
  C   C4360     1.0  0.90024  0.33203  0.50939  1.0000
  C   C4361     1.0  0.75554  0.25942  0.78911  1.0000
  H   H3494     1.0  0.75278  0.25789  0.97604  1.0000
  H   H3495     1.0  0.76778  0.32660  0.05691  1.0000
  P   P146      1.0  0.80185  0.33384  0.98826  1.0000
  C   C4362     1.0  0.84809  0.33373  0.63391  1.0000
  C   C4363     1.0  0.76288  0.23040  0.21671  1.0000
  C   C4364     1.0  0.75092  0.27102  0.17227  1.0000
  C   C4365     1.0  0.75094  0.33315  0.00966  1.0000
  S   S586      1.0  0.74934  0.28362  0.27543  1.0000
  C   C4366     1.0  0.88749  0.33407  0.39390  1.0000
  H   H3496     1.0  0.83377  0.32934  0.93848  1.0000
  C   C4367     1.0  0.79048  0.33195  0.97695  1.0000
  H   H3497     1.0  0.76809  0.30960  0.08930  1.0000
  C   C4368     1.0  0.84609  0.33290  0.56921  1.0000
  H   H3498     1.0  0.84497  0.33221  0.66632  1.0000
  H   H3499     1.0  0.88969  0.33159  0.36786  1.0000
  H   H3500     1.0  0.81914  0.33353  0.54156  1.0000
  C   C4369     1.0  0.75318  0.22520  0.23740  1.0000
  C   C4370     1.0  0.87792  0.33493  0.40829  1.0000
  C   C4371     1.0  0.79949  0.33475  0.03881  1.0000
  C   C4372     1.0  0.77872  0.33492  0.84168  1.0000
  C   C4373     1.0  0.79665  0.33500  0.11866  1.0000
  H   H3501     1.0  0.79551  0.33506  0.14952  1.0000
  C   C4374     1.0  0.81347  0.33545  0.56222  1.0000
  H   H3502     1.0  0.90161  0.33564  0.40163  1.0000
  H   H3503     1.0  0.74916  0.32948  0.95739  1.0000
  S   S587      1.0  0.83395  0.33565  0.83146  1.0000
  S   S588      1.0  0.78841  0.40747  0.18958  1.0000
  Fe  Fe293     1.0  0.79242  0.39917  0.14569  1.0000
  S   S589      1.0  0.79314  0.40577  0.08035  1.0000
  Fe  Fe294     1.0  0.79951  0.40183  0.21727  1.0000
  S   S590      1.0  0.81317  0.41036  0.22596  1.0000
  Fe  Fe295     1.0  0.79738  0.39765  0.82480  1.0000
  S   S591      1.0  0.78542  0.38947  0.80905  1.0000
  S   S592      1.0  0.80854  0.41063  0.77441  1.0000
  Fe  Fe296     1.0  0.79076  0.38338  0.91109  1.0000
  C   C4375     1.0  0.75941  0.38073  0.72362  1.0000
  Fe  Fe297     1.0  0.77552  0.38821  0.87053  1.0000
  S   S593      1.0  0.76072  0.39192  0.87710  1.0000
  S   S594      1.0  0.80161  0.38392  0.85282  1.0000
  S   S595      1.0  0.78723  0.39768  0.88367  1.0000
  Fe  Fe298     1.0  0.92310  0.41060  0.27310  1.0000
  S   S596      1.0  0.92547  0.40252  0.33058  1.0000
  S   S597      1.0  0.91707  0.42400  0.26803  1.0000
  Fe  Fe299     1.0  0.93122  0.39742  0.22633  1.0000
  S   S598      1.0  0.93470  0.38838  0.28027  1.0000
  S   S599      1.0  0.93541  0.39704  0.16101  1.0000
  Fe  Fe300     1.0  0.91967  0.38902  0.31636  1.0000
  S   S600      1.0  0.90787  0.37672  0.36745  1.0000
  Fe  Fe301     1.0  0.94024  0.40273  0.29025  1.0000
  S   S601      1.0  0.95522  0.40898  0.29523  1.0000
  S   S602      1.0  0.91605  0.39725  0.26215  1.0000
  S   S603      1.0  0.93799  0.41157  0.23303  1.0000
  Fe  Fe302     1.0  0.94671  0.47291  0.24872  1.0000
  S   S604      1.0  0.94196  0.48246  0.28598  1.0000
  S   S605      1.0  0.94839  0.45777  0.27661  1.0000
  Fe  Fe303     1.0  0.94935  0.48820  0.16799  1.0000
  H   H3504     1.0  0.99047  0.46524  0.30015  1.0000
  H   H3505     1.0  0.85178  0.35797  0.02870  1.0000
  H   H3506     1.0  0.87948  0.34320  0.48644  1.0000
  H   H3507     1.0  0.99268  0.46712  0.03199  1.0000
  Fe  Fe304     1.0  0.93273  0.48587  0.24512  1.0000
  S   S606      1.0  0.91645  0.48516  0.27210  1.0000
  S   S607      1.0  0.95951  0.48465  0.20363  1.0000
  S   S608      1.0  0.93698  0.47564  0.21059  1.0000
  Fe  Fe305     1.0  0.84503  0.43253  0.35602  1.0000
  S   S609      1.0  0.85866  0.42802  0.32855  1.0000
  S   S610      1.0  0.83042  0.42984  0.34229  1.0000
  Fe  Fe306     1.0  0.85318  0.43738  0.42262  1.0000
  S   S611      1.0  0.86686  0.43276  0.39963  1.0000
  S   S612      1.0  0.85031  0.44173  0.48060  1.0000
  Fe  Fe307     1.0  0.86718  0.44123  0.33726  1.0000
  S   S613      1.0  0.88242  0.44910  0.29124  1.0000
  Fe  Fe308     1.0  0.85729  0.42024  0.39304  1.0000
  S   S614      1.0  0.86039  0.40549  0.41475  1.0000
  S   S615      1.0  0.85362  0.44652  0.36014  1.0000
  S   S616      1.0  0.84347  0.42409  0.42064  1.0000
  Fe  Fe309     1.0  0.93287  0.48123  0.93260  1.0000
  S   S617      1.0  0.92981  0.49117  0.87958  1.0000
  S   S618      1.0  0.92782  0.48061  0.99881  1.0000
  Fe  Fe310     1.0  0.94147  0.46923  0.88220  1.0000
  S   S619      1.0  0.93947  0.47817  0.82534  1.0000
  S   S620      1.0  0.94742  0.45588  0.88561  1.0000
  Fe  Fe311     1.0  0.94505  0.49107  0.84358  1.0000
  Fe  Fe312     1.0  0.84829  0.34362  0.77985  1.0000
  Fe  Fe313     1.0  0.92451  0.47742  0.86525  1.0000
  S   S621      1.0  0.90989  0.47297  0.85389  1.0000
  S   S622      1.0  0.94828  0.48201  0.89724  1.0000
  S   S623      1.0  0.92630  0.46767  0.92162  1.0000
  Fe  Fe314     1.0  0.91539  0.38775  0.98938  1.0000
  S   S624      1.0  0.92071  0.38071  0.94114  1.0000
  S   S625      1.0  0.91112  0.38097  0.05861  1.0000
  Fe  Fe315     1.0  0.91575  0.40650  0.92649  1.0000
  S   S626      1.0  0.92122  0.40128  0.87394  1.0000
  S   S627      1.0  0.91214  0.42120  0.91568  1.0000
  Fe  Fe316     1.0  0.91015  0.38693  0.91103  1.0000
  S   S628      1.0  0.89860  0.38169  0.88290  1.0000
  Fe  Fe317     1.0  0.93131  0.39563  0.90689  1.0000
  S   S629      1.0  0.94740  0.39811  0.87173  1.0000
  S   S630      1.0  0.90409  0.39274  0.96219  1.0000
  S   S631      1.0  0.92659  0.40200  0.95689  1.0000
  H   H3508     1.0  0.86187  0.35840  0.57403  1.0000
  Fe  Fe318     1.0  0.86258  0.43572  0.74148  1.0000
  S   S632      1.0  0.87241  0.44991  0.69361  1.0000
  S   S633      1.0  0.84765  0.43350  0.78770  1.0000
  Fe  Fe319     1.0  0.87774  0.42418  0.72375  1.0000
  S   S634      1.0  0.88846  0.43717  0.67537  1.0000
  S   S635      1.0  0.88202  0.40986  0.74198  1.0000
  Fe  Fe320     1.0  0.88440  0.44563  0.71881  1.0000
  S   S636      1.0  0.89808  0.45462  0.72447  1.0000
  Fe  Fe321     1.0  0.87573  0.44022  0.65426  1.0000
  S   S637      1.0  0.87929  0.44293  0.58564  1.0000
  S   S638      1.0  0.87436  0.43221  0.76863  1.0000
  S   S639      1.0  0.86519  0.42646  0.70071  1.0000
  H   H3509     1.0  0.79320  0.34447  0.81412  1.0000
  H   H3510     1.0  0.87359  0.35831  0.41310  1.0000
  C   C4376     1.0  0.81431  0.36047  0.81536  1.0000
  C   C4377     1.0  0.94855  0.41528  0.98942  1.0000
  C   C4378     1.0  0.86807  0.38766  0.69336  1.0000
  C   C4379     1.0  0.87229  0.38456  0.72363  1.0000
  C   C4380     1.0  0.87716  0.39150  0.73670  1.0000
  C   C4381     1.0  0.87767  0.40151  0.72000  1.0000
  C   C4382     1.0  0.87404  0.40465  0.68783  1.0000
  C   C4383     1.0  0.86929  0.39773  0.67439  1.0000
  H   H3511     1.0  0.87157  0.37681  0.73782  1.0000
  H   H3512     1.0  0.88018  0.38908  0.76095  1.0000
  H   H3513     1.0  0.87471  0.41239  0.67389  1.0000
  H   H3514     1.0  0.86623  0.40017  0.65042  1.0000
  C   C4384     1.0  0.88044  0.39401  0.01181  1.0000
  H   H3515     1.0  0.81284  0.39219  0.40604  1.0000
  H   H3516     1.0  0.94663  0.41378  0.90821  1.0000
  C   C4385     1.0  0.89470  0.37376  0.85656  1.0000
  H   H3517     1.0  0.82256  0.38255  0.37203  1.0000
  C   C4386     1.0  0.88361  0.36938  0.81972  1.0000
  C   C4387     1.0  0.88757  0.37582  0.83790  1.0000
  H   H3518     1.0  0.87811  0.37109  0.80585  1.0000
  H   H3519     1.0  0.88505  0.38244  0.83758  1.0000
  H   H3520     1.0  0.92010  0.34128  0.47281  1.0000
  C   C4388     1.0  0.82570  0.35284  0.89558  1.0000
  C   C4389     1.0  0.96941  0.42003  0.31413  1.0000
  C   C4390     1.0  0.82563  0.42048  0.01444  1.0000
  H   H3521     1.0  0.95267  0.48761  0.73710  1.0000
  C   C4391     1.0  0.89424  0.33645  0.41296  1.0000
  H   H3522     1.0  0.89604  0.41165  0.02575  1.0000
  H   H3523     1.0  0.75725  0.35176  0.12287  1.0000
  C   C4392     1.0  0.90677  0.46769  0.81801  1.0000
  C   C4393     1.0  0.89683  0.46449  0.82220  1.0000
  C   C4394     1.0  0.89399  0.46019  0.79488  1.0000
  C   C4395     1.0  0.90107  0.45937  0.76188  1.0000
  C   C4396     1.0  0.91098  0.46275  0.75727  1.0000
  C   C4397     1.0  0.91383  0.46669  0.78544  1.0000
  H   H3524     1.0  0.89128  0.46535  0.84677  1.0000
  H   H3525     1.0  0.88634  0.45778  0.79873  1.0000
  H   H3526     1.0  0.91650  0.46237  0.73147  1.0000
  H   H3527     1.0  0.92148  0.46915  0.78158  1.0000
  C   C4398     1.0  0.93820  0.44640  0.88755  1.0000
  C   C4399     1.0  0.93924  0.43675  0.89746  1.0000
  C   C4400     1.0  0.93135  0.42897  0.90482  1.0000
  C   C4401     1.0  0.92240  0.43085  0.90238  1.0000
  C   C4402     1.0  0.92156  0.44056  0.88995  1.0000
  C   C4403     1.0  0.92949  0.44833  0.88205  1.0000
  H   H3528     1.0  0.94609  0.43529  0.90010  1.0000
  H   H3529     1.0  0.93222  0.42156  0.91251  1.0000
  H   H3530     1.0  0.91477  0.44209  0.88680  1.0000
  H   H3531     1.0  0.92879  0.45580  0.87219  1.0000
  C   C4404     1.0  0.85864  0.44232  0.50867  1.0000
  C   C4405     1.0  0.86792  0.44055  0.49599  1.0000
  C   C4406     1.0  0.87426  0.44107  0.51919  1.0000
  C   C4407     1.0  0.87123  0.44287  0.55644  1.0000
  C   C4408     1.0  0.86203  0.44479  0.56885  1.0000
  C   C4409     1.0  0.85583  0.44463  0.54490  1.0000
  H   H3532     1.0  0.87025  0.43878  0.46826  1.0000
  H   H3533     1.0  0.88145  0.43979  0.50866  1.0000
  H   H3534     1.0  0.85974  0.44652  0.59671  1.0000
  H   H3535     1.0  0.84878  0.44617  0.55494  1.0000
  C   C4410     1.0  0.93658  0.42394  0.37552  1.0000
  P   P147      1.0  0.82003  0.37480  0.57052  1.0000
  C   C4411     1.0  0.85528  0.38664  0.41602  1.0000
  C   C4412     1.0  0.85222  0.39533  0.41507  1.0000
  C   C4413     1.0  0.84268  0.39566  0.41582  1.0000
  H   H3536     1.0  0.97063  0.38905  0.98354  1.0000
  H   H3537     1.0  0.82920  0.39349  0.12681  1.0000
  H   H3538     1.0  0.86270  0.38640  0.41510  1.0000
  H   H3539     1.0  0.84030  0.40238  0.41494  1.0000
  C   C4414     1.0  0.92452  0.42114  0.16773  1.0000
  H   H3540     1.0  0.89226  0.37670  0.04511  1.0000
  H   H3541     1.0  0.96369  0.50043  0.86676  1.0000
  H   H3542     1.0  0.82492  0.47534  0.51814  1.0000
  C   C4415     1.0  0.87472  0.35996  0.94666  1.0000
  C   C4416     1.0  0.87315  0.38871  0.21972  1.0000
  C   C4417     1.0  0.88335  0.35465  0.20739  1.0000
  H   H3543     1.0  0.79981  0.34973  0.30739  1.0000
  H   H3544     1.0  0.79767  0.38382  0.70632  1.0000
  H   H3545     1.0  0.93413  0.38409  0.82712  1.0000
  H   H3546     1.0  0.77715  0.34345  0.75225  1.0000
  C   C4418     1.0  0.93776  0.48307  0.09147  1.0000
  C   C4419     1.0  0.93186  0.48083  0.06850  1.0000
  C   C4420     1.0  0.93583  0.48273  0.02650  1.0000
  C   C4421     1.0  0.94592  0.48643  0.00785  1.0000
  C   C4422     1.0  0.89809  0.34805  0.23592  1.0000
  H   H3547     1.0  0.93452  0.48178  0.12363  1.0000
  H   H3548     1.0  0.92412  0.47773  0.08323  1.0000
  H   H3549     1.0  0.79341  0.34246  0.63658  1.0000
  H   H3550     1.0  0.97780  0.46884  0.07868  1.0000
  C   C4423     1.0  0.90697  0.47476  0.28073  1.0000
  C   C4424     1.0  0.89713  0.47523  0.29349  1.0000
  C   C4425     1.0  0.88950  0.46731  0.29843  1.0000
  C   C4426     1.0  0.89162  0.45880  0.29060  1.0000
  C   C4427     1.0  0.90144  0.45826  0.27879  1.0000
  C   C4428     1.0  0.90903  0.46611  0.27449  1.0000
  H   H3551     1.0  0.89540  0.48184  0.29879  1.0000
  H   H3552     1.0  0.88200  0.46789  0.30721  1.0000
  H   H3553     1.0  0.90321  0.45174  0.27271  1.0000
  H   H3554     1.0  0.91651  0.46552  0.26575  1.0000
  C   C4429     1.0  0.96017  0.41336  0.32962  1.0000
  C   C4430     1.0  0.95988  0.41349  0.39763  1.0000
  C   C4431     1.0  0.95541  0.41015  0.37172  1.0000
  H   H3555     1.0  0.95617  0.41081  0.43009  1.0000
  H   H3556     1.0  0.94838  0.40495  0.38442  1.0000
  C   C4432     1.0  0.92787  0.39296  0.13444  1.0000
  C   C4433     1.0  0.92016  0.38453  0.15286  1.0000
  C   C4434     1.0  0.91507  0.38098  0.12935  1.0000
  C   C4435     1.0  0.91749  0.38589  0.08741  1.0000
  C   C4436     1.0  0.92497  0.39449  0.06943  1.0000
  C   C4437     1.0  0.93019  0.39792  0.09266  1.0000
  H   H3557     1.0  0.91835  0.38057  0.18489  1.0000
  H   H3558     1.0  0.90929  0.37435  0.14369  1.0000
  H   H3559     1.0  0.92698  0.39836  0.03737  1.0000
  H   H3560     1.0  0.93619  0.40438  0.07794  1.0000
  C   C4438     1.0  0.89731  0.37090  0.35958  1.0000
  C   C4439     1.0  0.94257  0.47757  0.72395  1.0000
  H   H3561     1.0  0.75599  0.41097  0.19700  1.0000
  C   C4440     1.0  0.98126  0.45824  0.67804  1.0000
  C   C4441     1.0  0.89755  0.37016  0.32151  1.0000
  C   C4442     1.0  0.92589  0.43351  0.26894  1.0000
  C   C4443     1.0  0.93448  0.43164  0.27598  1.0000
  C   C4444     1.0  0.94141  0.43916  0.27764  1.0000
  C   C4445     1.0  0.93968  0.44851  0.27348  1.0000
  C   C4446     1.0  0.93101  0.45033  0.26717  1.0000
  C   C4447     1.0  0.92423  0.44293  0.26384  1.0000
  H   H3562     1.0  0.93581  0.42439  0.28054  1.0000
  H   H3563     1.0  0.94815  0.43772  0.28206  1.0000
  H   H3564     1.0  0.92939  0.45735  0.26595  1.0000
  H   H3565     1.0  0.91759  0.44443  0.25853  1.0000
  C   C4448     1.0  0.81931  0.41678  0.77962  1.0000
  C   C4449     1.0  0.81946  0.41862  0.81566  1.0000
  C   C4450     1.0  0.82815  0.42393  0.81758  1.0000
  C   C4451     1.0  0.83681  0.42704  0.78424  1.0000
  C   C4452     1.0  0.83664  0.42510  0.74859  1.0000
  C   C4453     1.0  0.82788  0.42026  0.74593  1.0000
  H   H3566     1.0  0.81286  0.41619  0.84160  1.0000
  H   H3567     1.0  0.82817  0.42565  0.84487  1.0000
  H   H3568     1.0  0.84327  0.42747  0.72297  1.0000
  H   H3569     1.0  0.82776  0.41911  0.71777  1.0000
  H   H3570     1.0  0.82842  0.34450  0.74596  1.0000
  C   C4454     1.0  0.81389  0.36920  0.51089  1.0000
  S   S640      1.0  0.87326  0.35831  0.69858  1.0000
  H   H3571     1.0  0.89173  0.40272  0.89760  1.0000
  C   C4455     1.0  0.83087  0.39360  0.52208  1.0000
  C   C4456     1.0  0.81771  0.41540  0.25994  1.0000
  C   C4457     1.0  0.81164  0.41768  0.29175  1.0000
  C   C4458     1.0  0.81565  0.42197  0.31666  1.0000
  C   C4459     1.0  0.82578  0.42396  0.31076  1.0000
  C   C4460     1.0  0.83183  0.42154  0.27933  1.0000
  C   C4461     1.0  0.82784  0.41744  0.25393  1.0000
  H   H3572     1.0  0.80388  0.41634  0.29667  1.0000
  H   H3573     1.0  0.81086  0.42386  0.34049  1.0000
  H   H3574     1.0  0.83962  0.42308  0.27393  1.0000
  H   H3575     1.0  0.83269  0.41590  0.22918  1.0000
  C   C4462     1.0  0.79319  0.39788  0.05086  1.0000
  C   C4463     1.0  0.79079  0.40080  0.01508  1.0000
  C   C4464     1.0  0.79142  0.39506  0.98923  1.0000
  C   C4465     1.0  0.79449  0.38633  0.99903  1.0000
  H   H3576     1.0  0.95224  0.42909  0.34928  1.0000
  C   C4466     1.0  0.79601  0.38902  0.06130  1.0000
  C   C4467     1.0  0.84529  0.35957  0.98056  1.0000
  C   C4468     1.0  0.85934  0.43862  0.88364  1.0000
  C   C4469     1.0  0.94551  0.43066  0.36462  1.0000
  C   C4470     1.0  0.79727  0.42349  0.70165  1.0000
  H   H3577     1.0  0.75981  0.37667  0.22483  1.0000
  C   C4471     1.0  0.84555  0.34674  0.26385  1.0000
  C   C4472     1.0  0.79843  0.42635  0.62060  1.0000
  C   C4473     1.0  0.80699  0.42887  0.63009  1.0000
  C   C4474     1.0  0.80628  0.42762  0.67086  1.0000
  P   P148      1.0  0.81860  0.43394  0.58968  1.0000
  C   C4475     1.0  0.81866  0.42772  0.55234  1.0000
  C   C4476     1.0  0.82046  0.44705  0.56716  1.0000
  C   C4477     1.0  0.81284  0.45175  0.57628  1.0000
  C   C4478     1.0  0.76823  0.38696  0.71867  1.0000
  C   C4479     1.0  0.98709  0.44882  0.91782  1.0000
  H   H3578     1.0  0.75296  0.34516  0.76756  1.0000
  C   C4480     1.0  0.82969  0.45267  0.54046  1.0000
  C   C4481     1.0  0.82220  0.43296  0.51046  1.0000
  H   H3579     1.0  0.96991  0.43913  0.73195  1.0000
  H   H3580     1.0  0.96390  0.47680  0.74340  1.0000
  C   C4482     1.0  0.89547  0.42315  0.79644  1.0000
  C   C4483     1.0  0.80480  0.39479  0.36371  1.0000
  C   C4484     1.0  0.82853  0.43201  0.60952  1.0000
  C   C4485     1.0  0.83130  0.43772  0.63227  1.0000
  C   C4486     1.0  0.83894  0.43623  0.64783  1.0000
  C   C4487     1.0  0.84390  0.42906  0.64065  1.0000
  C   C4488     1.0  0.84134  0.42350  0.61728  1.0000
  C   C4489     1.0  0.83371  0.42500  0.60167  1.0000
  H   H3581     1.0  0.79685  0.42230  0.73315  1.0000
  C   C4490     1.0  0.80882  0.34262  0.54727  1.0000
  H   H3582     1.0  0.76672  0.40262  0.92461  1.0000
  C   C4491     1.0  0.80493  0.34114  0.08714  1.0000
  H   H3583     1.0  0.81265  0.42955  0.67952  1.0000
  C   C4492     1.0  0.78670  0.33951  0.22183  1.0000
  C   C4493     1.0  0.83611  0.38716  0.41891  1.0000
  H   H3584     1.0  0.77144  0.40812  0.15871  1.0000
  H   H3585     1.0  0.76190  0.35961  0.78574  1.0000
  H   H3586     1.0  0.83562  0.44916  0.53258  1.0000
  H   H3587     1.0  0.82501  0.44084  0.49918  1.0000
  C   C4494     1.0  0.81522  0.41745  0.56529  1.0000
  H   H3588     1.0  0.82208  0.39532  0.78531  1.0000
  C   C4495     1.0  0.97890  0.46798  0.75103  1.0000
  H   H3589     1.0  0.81258  0.41324  0.59738  1.0000
  H   H3590     1.0  0.82756  0.44334  0.63799  1.0000
  H   H3591     1.0  0.84105  0.44066  0.66539  1.0000
  H   H3592     1.0  0.84994  0.42803  0.65208  1.0000
  H   H3593     1.0  0.84547  0.41826  0.61031  1.0000
  H   H3594     1.0  0.83203  0.42085  0.58277  1.0000
  H   H3595     1.0  0.82002  0.38430  0.02762  1.0000
  S   S641      1.0  0.76151  0.39283  0.25829  1.0000
  C   C4496     1.0  0.85494  0.43079  0.87398  1.0000
  C   C4497     1.0  0.92172  0.41396  0.69113  1.0000
  C   C4498     1.0  0.84060  0.42711  0.93314  1.0000
  C   C4499     1.0  0.87082  0.36732  0.51299  1.0000
  C   C4500     1.0  0.82799  0.38069  0.17653  1.0000
  H   H3596     1.0  0.77738  0.37064  0.77640  1.0000
  P   P149      1.0  0.82812  0.42048  0.96251  1.0000
  S   S642      1.0  0.79707  0.36677  0.22374  1.0000
  C   C4501     1.0  0.95110  0.48056  0.73238  1.0000
  C   C4502     1.0  0.81171  0.39094  0.37917  1.0000
  H   H3597     1.0  0.78961  0.39744  0.96164  1.0000
  H   H3598     1.0  0.91521  0.42752  0.83162  1.0000
  C   C4503     1.0  0.84498  0.43516  0.94217  1.0000
  H   H3599     1.0  0.86953  0.36151  0.50011  1.0000
  H   H3600     1.0  0.95267  0.44503  0.36115  1.0000
  C   C4504     1.0  0.84955  0.40285  0.92947  1.0000
  C   C4505     1.0  0.91442  0.41903  0.68677  1.0000
  Fe  Fe322     1.0  0.77758  0.39308  0.22938  1.0000
  H   H3601     1.0  0.83977  0.41831  0.01753  1.0000
  H   H3602     1.0  0.98143  0.47231  0.71917  1.0000
  H   H3603     1.0  0.79782  0.38668  0.08902  1.0000
  H   H3604     1.0  0.95915  0.46664  0.33691  1.0000
  C   C4506     1.0  0.81308  0.37518  0.53578  1.0000
  H   H3605     1.0  0.97254  0.45958  0.38527  1.0000
  C   C4507     1.0  0.86630  0.41091  0.51045  1.0000
  C   C4508     1.0  0.87087  0.41688  0.52798  1.0000
  C   C4509     1.0  0.88041  0.41684  0.52789  1.0000
  C   C4510     1.0  0.88544  0.41083  0.51006  1.0000
  C   C4511     1.0  0.88079  0.40465  0.49313  1.0000
  C   C4512     1.0  0.87115  0.40464  0.49407  1.0000
  P   P150      1.0  0.88659  0.39606  0.47346  1.0000
  C   C4513     1.0  0.88795  0.39853  0.41992  1.0000
  C   C4514     1.0  0.89844  0.39656  0.48056  1.0000
  C   C4515     1.0  0.90709  0.40069  0.44721  1.0000
  C   C4516     1.0  0.91618  0.40048  0.45268  1.0000
  C   C4517     1.0  0.91675  0.39647  0.49151  1.0000
  C   C4518     1.0  0.90822  0.39267  0.52503  1.0000
  C   C4519     1.0  0.89911  0.39272  0.51963  1.0000
  C   C4520     1.0  0.89311  0.39327  0.39779  1.0000
  C   C4521     1.0  0.89458  0.39550  0.35610  1.0000
  C   C4522     1.0  0.89091  0.40293  0.33609  1.0000
  C   C4523     1.0  0.88569  0.40812  0.35781  1.0000
  C   C4524     1.0  0.88432  0.40603  0.39936  1.0000
  C   C4525     1.0  0.87866  0.38407  0.50468  1.0000
  C   C4526     1.0  0.87417  0.38221  0.54655  1.0000
  C   C4527     1.0  0.87682  0.37657  0.48802  1.0000
  H   H3606     1.0  0.85896  0.41104  0.50984  1.0000
  H   H3607     1.0  0.86694  0.42144  0.54217  1.0000
  H   H3608     1.0  0.88389  0.42147  0.54171  1.0000
  H   H3609     1.0  0.89286  0.41098  0.50996  1.0000
  H   H3610     1.0  0.86739  0.39979  0.48182  1.0000
  H   H3611     1.0  0.90690  0.40398  0.41678  1.0000
  H   H3612     1.0  0.92279  0.40332  0.42662  1.0000
  C   C4528     1.0  0.88824  0.35617  0.55233  1.0000
  H   H3613     1.0  0.90867  0.38954  0.55518  1.0000
  H   H3614     1.0  0.89263  0.38969  0.54604  1.0000
  H   H3615     1.0  0.89617  0.38756  0.41251  1.0000
  H   H3616     1.0  0.89866  0.39152  0.33909  1.0000
  H   H3617     1.0  0.89218  0.40472  0.30371  1.0000
  H   H3618     1.0  0.88271  0.41382  0.34246  1.0000
  H   H3619     1.0  0.88043  0.41035  0.41491  1.0000
  H   H3620     1.0  0.87531  0.38785  0.56039  1.0000
  H   H3621     1.0  0.87998  0.37775  0.45595  1.0000
  C   C4529     1.0  0.85151  0.39675  0.61412  1.0000
  C   C4530     1.0  0.85075  0.38884  0.59918  1.0000
  C   C4531     1.0  0.84387  0.38002  0.62284  1.0000
  C   C4532     1.0  0.83776  0.37912  0.66143  1.0000
  C   C4533     1.0  0.83859  0.38699  0.67688  1.0000
  C   C4534     1.0  0.84540  0.39588  0.65263  1.0000
  P   P151      1.0  0.83014  0.38614  0.72501  1.0000
  H   H3622     1.0  0.80858  0.46554  0.56568  1.0000
  C   C4535     1.0  0.83568  0.39298  0.75154  1.0000
  C   C4536     1.0  0.82987  0.39638  0.78015  1.0000
  C   C4537     1.0  0.83410  0.40124  0.80229  1.0000
  C   C4538     1.0  0.84416  0.40296  0.79532  1.0000
  C   C4539     1.0  0.84994  0.39932  0.76780  1.0000
  C   C4540     1.0  0.84567  0.39419  0.74656  1.0000
  C   C4541     1.0  0.97726  0.48628  0.32262  1.0000
  C   C4542     1.0  0.83272  0.41911  0.03383  1.0000
  C   C4543     1.0  0.82035  0.39095  0.71229  1.0000
  C   C4544     1.0  0.81176  0.38473  0.71453  1.0000
  C   C4545     1.0  0.80440  0.38869  0.70316  1.0000
  C   C4546     1.0  0.80569  0.39889  0.68858  1.0000
  C   C4547     1.0  0.81440  0.40508  0.68483  1.0000
  C   C4548     1.0  0.82170  0.40114  0.69658  1.0000
  H   H3623     1.0  0.85696  0.40350  0.59632  1.0000
  H   H3624     1.0  0.85558  0.38949  0.56956  1.0000
  H   H3625     1.0  0.84342  0.37383  0.61155  1.0000
  H   H3626     1.0  0.98460  0.38946  0.92626  1.0000
  H   H3627     1.0  0.84610  0.40209  0.66368  1.0000
  C   C4549     1.0  0.95532  0.46509  0.73142  1.0000
  H   H3628     1.0  0.84748  0.40717  0.81098  1.0000
  H   H3629     1.0  0.85772  0.40050  0.76285  1.0000
  H   H3630     1.0  0.85015  0.39113  0.72636  1.0000
  C   C4550     1.0  0.82154  0.39027  0.99965  1.0000
  C   C4551     1.0  0.97000  0.47519  0.27989  1.0000
  C   C4552     1.0  0.83037  0.35832  0.78569  1.0000
  H   H3631     1.0  0.83931  0.34885  0.28048  1.0000
  H   H3632     1.0  0.79992  0.40201  0.68072  1.0000
  H   H3633     1.0  0.81544  0.41296  0.67411  1.0000
  H   H3634     1.0  0.82839  0.40603  0.69368  1.0000
  C   C4553     1.0  0.90386  0.43597  0.19662  1.0000
  C   C4554     1.0  0.89512  0.43765  0.21755  1.0000
  C   C4555     1.0  0.88672  0.43531  0.20720  1.0000
  C   C4556     1.0  0.88700  0.43108  0.17643  1.0000
  C   C4557     1.0  0.89577  0.42927  0.15554  1.0000
  C   C4558     1.0  0.90422  0.43199  0.16523  1.0000
  P   P152      1.0  0.89632  0.42267  0.11933  1.0000
  C   C4559     1.0  0.89732  0.41032  0.14247  1.0000
  C   C4560     1.0  0.88533  0.42142  0.10537  1.0000
  C   C4561     1.0  0.87651  0.41536  0.13426  1.0000
  C   C4562     1.0  0.86797  0.41417  0.12376  1.0000
  C   C4563     1.0  0.86821  0.41889  0.08415  1.0000
  C   C4564     1.0  0.87697  0.42484  0.05505  1.0000
  C   C4565     1.0  0.88550  0.42613  0.06556  1.0000
  C   C4566     1.0  0.89858  0.40744  0.18092  1.0000
  C   C4567     1.0  0.89908  0.39780  0.19863  1.0000
  C   C4568     1.0  0.89841  0.39097  0.17816  1.0000
  C   C4569     1.0  0.89710  0.39373  0.14014  1.0000
  C   C4570     1.0  0.89637  0.40329  0.12274  1.0000
  C   C4571     1.0  0.90654  0.42950  0.07384  1.0000
  C   C4572     1.0  0.91186  0.42471  0.04976  1.0000
  C   C4573     1.0  0.91906  0.43017  0.01263  1.0000
  C   C4574     1.0  0.92123  0.44044  0.99974  1.0000
  C   C4575     1.0  0.91604  0.44527  0.02361  1.0000
  C   C4576     1.0  0.90864  0.43983  0.06022  1.0000
  H   H3635     1.0  0.91038  0.43779  0.20469  1.0000
  H   H3636     1.0  0.89488  0.44078  0.24172  1.0000
  H   H3637     1.0  0.87998  0.43673  0.22351  1.0000
  H   H3638     1.0  0.88038  0.42925  0.16937  1.0000
  H   H3639     1.0  0.91103  0.43079  0.14899  1.0000
  H   H3640     1.0  0.87625  0.41166  0.16504  1.0000
  H   H3641     1.0  0.86115  0.40963  0.14644  1.0000
  H   H3642     1.0  0.86159  0.41799  0.07607  1.0000
  H   H3643     1.0  0.87719  0.42851  0.02428  1.0000
  H   H3644     1.0  0.89217  0.43078  0.04234  1.0000
  H   H3645     1.0  0.89916  0.41251  0.19770  1.0000
  H   H3646     1.0  0.90004  0.39561  0.22825  1.0000
  H   H3647     1.0  0.89893  0.38353  0.19180  1.0000
  H   H3648     1.0  0.89679  0.38849  0.12391  1.0000
  H   H3649     1.0  0.89516  0.40522  0.09370  1.0000
  H   H3650     1.0  0.91044  0.41680  0.05892  1.0000
  H   H3651     1.0  0.92283  0.42644  0.99335  1.0000
  H   H3652     1.0  0.90447  0.44371  0.07757  1.0000
  S   S643      1.0  0.97453  0.42380  0.41687  1.0000
  C   C4577     1.0  0.97243  0.40485  0.96474  1.0000
  H   H3653     1.0  0.98439  0.43925  0.62935  1.0000
  C   C4578     1.0  0.85232  0.34870  0.92328  1.0000
  C   C4579     1.0  0.95042  0.39231  0.98005  1.0000
  C   C4580     1.0  0.89402  0.35879  0.83766  1.0000
  C   C4581     1.0  0.88928  0.36484  0.31685  1.0000
  H   H3654     1.0  0.84233  0.39893  0.93282  1.0000
  H   H3655     1.0  0.87716  0.38181  0.27202  1.0000
  C   C4582     1.0  0.83920  0.37846  0.41960  1.0000
  H   H3656     1.0  0.86800  0.42896  0.95080  1.0000
  H   H3657     1.0  0.82865  0.38734  0.42082  1.0000
  C   C4583     1.0  0.90622  0.40615  0.66779  1.0000
  H   H3658     1.0  0.94873  0.39771  0.78677  1.0000
  C   C4584     1.0  0.81542  0.41250  0.53685  1.0000
  C   C4585     1.0  0.90669  0.41510  0.67538  1.0000
  Fe  Fe323     1.0  0.78881  0.37568  0.84216  1.0000
  H   H3659     1.0  0.81878  0.34699  0.83351  1.0000
  H   H3660     1.0  0.94409  0.40861  0.98968  1.0000
  Fe  Fe324     1.0  0.83744  0.35483  0.42178  1.0000
  C   C4586     1.0  0.76488  0.40632  0.15099  1.0000
  C   C4587     1.0  0.88188  0.35666  0.96203  1.0000
  H   H3661     1.0  0.87742  0.36637  0.25718  1.0000
  H   H3662     1.0  0.83179  0.40293  0.61226  1.0000
  H   H3663     1.0  0.80566  0.44762  0.59687  1.0000
  H   H3664     1.0  0.88768  0.43071  0.83284  1.0000
  H   H3665     1.0  0.93033  0.42050  0.07094  1.0000
  C   C4588     1.0  0.88591  0.37113  0.06686  1.0000
  C   C4589     1.0  0.76289  0.38322  0.08672  1.0000
  C   C4590     1.0  0.75034  0.34006  0.03041  1.0000
  C   C4591     1.0  0.94730  0.45217  0.13647  1.0000
  C   C4592     1.0  0.89006  0.43016  0.41276  1.0000
  C   C4593     1.0  0.89244  0.43043  0.37230  1.0000
  C   C4594     1.0  0.90220  0.43224  0.34895  1.0000
  C   C4595     1.0  0.90962  0.43407  0.36560  1.0000
  C   C4596     1.0  0.90731  0.43413  0.40583  1.0000
  C   C4597     1.0  0.89744  0.43213  0.42929  1.0000
  P   P153      1.0  0.91687  0.43817  0.42503  1.0000
  C   C4598     1.0  0.91920  0.45139  0.41118  1.0000
  C   C4599     1.0  0.91271  0.43223  0.47959  1.0000
  C   C4600     1.0  0.90607  0.43575  0.50510  1.0000
  C   C4601     1.0  0.90222  0.43074  0.54692  1.0000
  C   C4602     1.0  0.90501  0.42222  0.56369  1.0000
  C   C4603     1.0  0.91166  0.41870  0.53868  1.0000
  C   C4604     1.0  0.91548  0.42365  0.49676  1.0000
  C   C4605     1.0  0.92152  0.45628  0.43739  1.0000
  C   C4606     1.0  0.92343  0.46655  0.42579  1.0000
  C   C4607     1.0  0.92307  0.47197  0.38802  1.0000
  C   C4608     1.0  0.92112  0.46716  0.36136  1.0000
  C   C4609     1.0  0.91935  0.45694  0.37253  1.0000
  C   C4610     1.0  0.92808  0.43518  0.40148  1.0000
  C   C4611     1.0  0.93710  0.44192  0.38992  1.0000
  C   C4612     1.0  0.92787  0.42619  0.39380  1.0000
  H   H3666     1.0  0.88249  0.42864  0.43118  1.0000
  H   H3667     1.0  0.88674  0.42926  0.35890  1.0000
  H   H3668     1.0  0.90401  0.43232  0.31771  1.0000
  H   H3669     1.0  0.91715  0.43570  0.34673  1.0000
  H   H3670     1.0  0.89534  0.43233  0.45997  1.0000
  H   H3671     1.0  0.90365  0.44221  0.49250  1.0000
  H   H3672     1.0  0.89693  0.43337  0.56634  1.0000
  H   H3673     1.0  0.90195  0.41832  0.59606  1.0000
  H   H3674     1.0  0.91380  0.41207  0.55173  1.0000
  H   H3675     1.0  0.92049  0.42070  0.47794  1.0000
  H   H3676     1.0  0.92199  0.45222  0.46644  1.0000
  H   H3677     1.0  0.92524  0.47032  0.44590  1.0000
  H   H3678     1.0  0.92440  0.47991  0.37901  1.0000
  H   H3679     1.0  0.92103  0.47134  0.33175  1.0000
  H   H3680     1.0  0.91813  0.45344  0.35073  1.0000
  H   H3681     1.0  0.93755  0.44903  0.39422  1.0000
  H   H3682     1.0  0.92099  0.42103  0.40115  1.0000
  C   C4613     1.0  0.83636  0.38102  0.30101  1.0000
  C   C4614     1.0  0.84008  0.38990  0.30632  1.0000
  C   C4615     1.0  0.84911  0.39157  0.31276  1.0000
  C   C4616     1.0  0.85463  0.38454  0.31263  1.0000
  C   C4617     1.0  0.85126  0.37595  0.30492  1.0000
  C   C4618     1.0  0.84218  0.37421  0.29893  1.0000
  H   H3683     1.0  0.82633  0.36924  0.23141  1.0000
  H   H3684     1.0  0.82790  0.37572  0.15897  1.0000
  H   H3685     1.0  0.83593  0.39547  0.30645  1.0000
  H   H3686     1.0  0.85170  0.39820  0.31899  1.0000
  H   H3687     1.0  0.86146  0.38568  0.31905  1.0000
  H   H3688     1.0  0.85560  0.37053  0.30469  1.0000
  H   H3689     1.0  0.92381  0.39627  0.49553  1.0000
  C   C4619     1.0  0.89797  0.36523  0.85586  1.0000
  C   C4620     1.0  0.87096  0.38758  0.18553  1.0000
  H   H3690     1.0  0.98411  0.45675  0.70303  1.0000
  C   C4621     1.0  0.95744  0.47436  0.73621  1.0000
  H   H3691     1.0  0.96711  0.47094  0.26332  1.0000
  C   C4622     1.0  0.86816  0.37299  0.57134  1.0000
  C   C4623     1.0  0.97808  0.48317  0.25936  1.0000
  H   H3692     1.0  0.93250  0.49533  0.42067  1.0000
  H   H3693     1.0  0.76699  0.36838  0.16848  1.0000
  C   C4624     1.0  0.84883  0.37829  0.41755  1.0000
  H   H3694     1.0  0.94463  0.41658  0.81287  1.0000
  C   C4625     1.0  0.96553  0.47274  0.32179  1.0000
  C   C4626     1.0  0.83693  0.40628  0.54721  1.0000
  C   C4627     1.0  0.96737  0.45485  0.80891  1.0000
  H   H3695     1.0  0.90212  0.48098  0.37153  1.0000
  C   C4628     1.0  0.82157  0.39597  0.93016  1.0000
  C   C4629     1.0  0.81651  0.38468  0.32271  1.0000
  C   C4630     1.0  0.81447  0.46193  0.55868  1.0000
  C   C4631     1.0  0.94813  0.42431  0.79699  1.0000
  C   C4632     1.0  0.95622  0.40872  0.86580  1.0000
  C   C4633     1.0  0.82579  0.40784  0.96301  1.0000
  H   H3696     1.0  0.78587  0.35951  0.97966  1.0000
  C   C4634     1.0  0.97489  0.39607  0.96134  1.0000
  C   C4635     1.0  0.76382  0.36583  0.29862  1.0000
  C   C4636     1.0  0.98178  0.48863  0.28082  1.0000
  C   C4637     1.0  0.81737  0.38567  0.35935  1.0000
  C   C4638     1.0  0.89288  0.35655  0.18052  1.0000
  C   C4639     1.0  0.84556  0.42514  0.89820  1.0000
  C   C4640     1.0  0.97904  0.47121  0.04620  1.0000
  P   P154      1.0  0.75399  0.33847  0.07538  1.0000
  H   H3697     1.0  0.95453  0.39723  0.94958  1.0000
  H   H3698     1.0  0.96169  0.42158  0.76609  1.0000
  C   C4641     1.0  0.83883  0.37295  0.53262  1.0000
  H   H3699     1.0  0.76862  0.35145  0.99744  1.0000
  C   C4642     1.0  0.87555  0.38104  0.24518  1.0000
  C   C4643     1.0  0.77351  0.41386  0.94382  1.0000
  P   P155      1.0  0.82440  0.37860  0.29544  1.0000
  H   H3700     1.0  0.86899  0.39346  0.16604  1.0000
  C   C4644     1.0  0.98104  0.46478  0.81725  1.0000
  C   C4645     1.0  0.79671  0.38329  0.03531  1.0000
  H   H3701     1.0  0.84109  0.43724  0.96750  1.0000
  H   H3702     1.0  0.86642  0.37753  0.93876  1.0000
  H   H3703     1.0  0.83614  0.41757  0.08952  1.0000
  C   C4646     1.0  0.83129  0.46283  0.52285  1.0000
  H   H3704     1.0  0.76733  0.33915  0.12255  1.0000
  H   H3705     1.0  0.86661  0.35226  0.87800  1.0000
  C   C4647     1.0  0.82429  0.40001  0.99854  1.0000
  C   C4648     1.0  0.82614  0.39084  0.59456  1.0000
  H   H3706     1.0  0.88972  0.36401  0.28762  1.0000
  H   H3707     1.0  0.92682  0.44465  0.97092  1.0000
  H   H3708     1.0  0.89648  0.42880  0.76800  1.0000
  C   C4649     1.0  0.97161  0.45915  0.68442  1.0000
  H   H3709     1.0  0.82009  0.39441  0.90430  1.0000
  H   H3710     1.0  0.87166  0.41360  0.85721  1.0000
  H   H3711     1.0  0.86653  0.44311  0.86416  1.0000
  H   H3712     1.0  0.78861  0.40764  0.00697  1.0000
  H   H3713     1.0  0.79821  0.39636  0.31629  1.0000
  C   C4650     1.0  0.94576  0.43967  0.37140  1.0000
  H   H3714     1.0  0.87291  0.39547  0.22680  1.0000
  S   S644      1.0  0.80431  0.39467  0.16923  1.0000
  C   C4651     1.0  0.89150  0.33989  0.44620  1.0000
  C   C4652     1.0  0.86107  0.40941  0.95871  1.0000
  C   C4653     1.0  0.82696  0.37701  0.21785  1.0000
  H   H3715     1.0  0.90421  0.37339  0.29597  1.0000
  H   H3716     1.0  0.91764  0.45325  0.01326  1.0000
  C   C4654     1.0  0.95455  0.42623  0.60862  1.0000
  H   H3717     1.0  0.94773  0.43218  0.70961  1.0000
  H   H3718     1.0  0.93582  0.42924  0.82545  1.0000
  H   H3719     1.0  0.81746  0.38076  0.96713  1.0000
  C   C4655     1.0  0.94977  0.44435  0.16132  1.0000
  C   C4656     1.0  0.83660  0.40288  0.51485  1.0000
  C   C4657     1.0  0.95392  0.41516  0.88756  1.0000
  C   C4658     1.0  0.98209  0.47732  0.96257  1.0000
  C   C4659     1.0  0.82012  0.38826  0.96558  1.0000
  H   H3720     1.0  0.79895  0.37648  0.04339  1.0000
  H   H3721     1.0  0.82514  0.41157  0.90159  1.0000
  H   H3722     1.0  0.87451  0.39628  0.96260  1.0000
  H   H3723     1.0  0.93646  0.41714  0.36844  1.0000
  C   C4660     1.0  0.83069  0.41862  0.07460  1.0000
  C   C4661     1.0  0.81054  0.36229  0.30243  1.0000
  C   C4662     1.0  0.78553  0.34403  0.82780  1.0000
  H   H3724     1.0  0.80369  0.33835  0.36306  1.0000
  C   C4663     1.0  0.82441  0.40571  0.92881  1.0000
  H   H3725     1.0  0.85866  0.42929  0.84676  1.0000
  C   C4664     1.0  0.85433  0.44086  0.91760  1.0000
  H   H3726     1.0  0.80650  0.38668  0.55035  1.0000
  H   H3727     1.0  0.86485  0.37158  0.60372  1.0000
  C   C4665     1.0  0.86650  0.36554  0.55460  1.0000
  S   S645      1.0  0.78831  0.38802  0.26098  1.0000
  H   H3728     1.0  0.85760  0.44716  0.92421  1.0000
  H   H3729     1.0  0.84218  0.41944  0.88877  1.0000
  H   H3730     1.0  0.80781  0.41360  0.97013  1.0000
  H   H3731     1.0  0.90083  0.41882  0.67404  1.0000
  H   H3732     1.0  0.82485  0.40133  0.02602  1.0000
  S   S646      1.0  0.79560  0.37905  0.96674  1.0000
  H   H3733     1.0  0.87138  0.44571  0.95543  1.0000
  C   C4666     1.0  0.82155  0.41940  0.09643  1.0000
  H   H3734     1.0  0.98143  0.48519  0.22680  1.0000
  C   C4667     1.0  0.88321  0.40992  0.96096  1.0000
  C   C4668     1.0  0.98364  0.46068  0.60677  1.0000
  C   C4669     1.0  0.80238  0.37606  0.48131  1.0000
  H   H3735     1.0  0.97119  0.46270  0.58737  1.0000
  H   H3736     1.0  0.93389  0.46618  0.71181  1.0000
  H   H3737     1.0  0.75648  0.37140  0.87946  1.0000
  S   S647      1.0  0.77822  0.37385  0.90308  1.0000
  H   H3738     1.0  0.83086  0.43975  0.90078  1.0000
  H   H3739     1.0  0.81988  0.41888  0.12825  1.0000
  H   H3740     1.0  0.88684  0.34148  0.54997  1.0000
  C   C4670     1.0  0.97402  0.46157  0.61269  1.0000
  H   H3741     1.0  0.80732  0.42117  0.09451  1.0000
  H   H3742     1.0  0.88206  0.46468  0.54847  1.0000
  P   P156      1.0  0.93087  0.41803  0.71238  1.0000
  S   S648      1.0  0.82787  0.33967  0.45480  1.0000
  C   C4671     1.0  0.75392  0.36108  0.31216  1.0000
  C   C4672     1.0  0.75702  0.37077  0.74740  1.0000
  C   C4673     1.0  0.81448  0.42075  0.07738  1.0000
  C   C4674     1.0  0.81649  0.42129  0.03659  1.0000
  C   C4675     1.0  0.82007  0.42617  0.93868  1.0000
  C   C4676     1.0  0.89433  0.44550  0.90311  1.0000
  C   C4677     1.0  0.86206  0.33943  0.57287  1.0000
  C   C4678     1.0  0.88130  0.34928  0.24858  1.0000
  C   C4679     1.0  0.94048  0.46844  0.71849  1.0000
  H   H3743     1.0  0.94509  0.45514  0.71787  1.0000
  C   C4680     1.0  0.81049  0.42084  0.94756  1.0000
  C   C4681     1.0  0.88647  0.39830  0.02995  1.0000
  C   C4682     1.0  0.76743  0.40481  0.95031  1.0000
  C   C4683     1.0  0.82346  0.43551  0.90886  1.0000
  H   H3744     1.0  0.81079  0.42212  0.02296  1.0000
  H   H3745     1.0  0.82236  0.38622  0.62570  1.0000
  H   H3746     1.0  0.93781  0.43793  0.05634  1.0000
  C   C4684     1.0  0.94683  0.46221  0.72215  1.0000
  H   H3747     1.0  0.93753  0.48230  0.72215  1.0000
  C   C4685     1.0  0.96801  0.46078  0.65137  1.0000
  C   C4686     1.0  0.81736  0.43937  0.88805  1.0000
  C   C4687     1.0  0.80701  0.38178  0.53239  1.0000
  H   H3748     1.0  0.82008  0.44649  0.86454  1.0000
  H   H3749     1.0  0.77013  0.35834  0.85299  1.0000
  H   H3750     1.0  0.96055  0.46131  0.65537  1.0000
  H   H3751     1.0  0.76994  0.39467  0.70092  1.0000
  C   C4688     1.0  0.80441  0.42470  0.92669  1.0000
  H   H3752     1.0  0.96415  0.43967  0.98635  1.0000
  H   H3753     1.0  0.76602  0.37377  0.28984  1.0000
  H   H3754     1.0  0.75804  0.34236  0.87540  1.0000
  C   C4689     1.0  0.82917  0.36295  0.99726  1.0000
  C   C4690     1.0  0.80786  0.43395  0.89684  1.0000
  C   C4691     1.0  0.89096  0.40833  0.01334  1.0000
  H   H3755     1.0  0.81298  0.40457  0.54694  1.0000
  H   H3756     1.0  0.79710  0.42042  0.93331  1.0000
  C   C4692     1.0  0.96920  0.47822  0.34361  1.0000
  H   H3757     1.0  0.98002  0.49087  0.33814  1.0000
  C   C4693     1.0  0.97052  0.46019  0.76722  1.0000
  H   H3758     1.0  0.80320  0.43690  0.88025  1.0000
  H   H3759     1.0  0.78148  0.38816  0.73416  1.0000
  S   S649      1.0  0.83092  0.36788  0.42341  1.0000
  C   C4694     1.0  0.84567  0.36758  0.52214  1.0000
  C   C4695     1.0  0.87936  0.46399  0.43053  1.0000
  P   P157      1.0  0.96367  0.45719  0.73527  1.0000
  C   C4696     1.0  0.94779  0.44143  0.78530  1.0000
  H   H3760     1.0  0.94397  0.44682  0.79319  1.0000
  H   H3761     1.0  0.98774  0.49054  0.81450  1.0000
  C   C4697     1.0  0.89044  0.34916  0.53362  1.0000
  H   H3762     1.0  0.95107  0.47875  0.46871  1.0000
  H   H3763     1.0  0.77679  0.36299  0.11453  1.0000
  C   C4698     1.0  0.90617  0.49668  0.35153  1.0000
  C   C4699     1.0  0.95737  0.44434  0.75802  1.0000
  C   C4700     1.0  0.94316  0.43145  0.80419  1.0000
  H   H3764     1.0  0.76878  0.38308  0.02499  1.0000
  C   C4701     1.0  0.93947  0.37962  0.05807  1.0000
  H   H3765     1.0  0.75834  0.38129  0.15091  1.0000
  H   H3766     1.0  0.78285  0.42038  0.64396  1.0000
  H   H3767     1.0  0.79704  0.38732  0.50265  1.0000
  C   C4702     1.0  0.83746  0.36047  0.04759  1.0000
  C   C4703     1.0  0.95806  0.46375  0.15296  1.0000
  H   H3768     1.0  0.97463  0.46613  0.44658  1.0000
  C   C4704     1.0  0.80639  0.34097  0.04741  1.0000
  H   H3769     1.0  0.74940  0.34163  0.26617  1.0000
  H   H3770     1.0  0.77369  0.34603  0.30451  1.0000
  C   C4705     1.0  0.77256  0.35185  0.84970  1.0000
  C   C4706     1.0  0.94707  0.38742  0.05301  1.0000
  C   C4707     1.0  0.84308  0.35734  0.53756  1.0000
  P   P158      1.0  0.96304  0.47529  0.39742  1.0000
  C   C4708     1.0  0.94856  0.48185  0.44349  1.0000
  H   H3771     1.0  0.84054  0.37073  0.73831  1.0000
  C   C4709     1.0  0.98698  0.49309  0.78463  1.0000
  C   C4710     1.0  0.87126  0.37883  0.17657  1.0000
  H   H3772     1.0  0.82961  0.40391  0.82412  1.0000
  C   C4711     1.0  0.81806  0.36578  0.31618  1.0000
  C   C4712     1.0  0.95773  0.42713  0.77060  1.0000
  C   C4713     1.0  0.96235  0.43711  0.75122  1.0000
  H   H3773     1.0  0.96088  0.44887  0.82263  1.0000
  C   C4714     1.0  0.81983  0.35946  0.34902  1.0000
  C   C4715     1.0  0.89054  0.42423  0.83335  1.0000
  C   C4716     1.0  0.95899  0.46204  0.41904  1.0000
  C   C4717     1.0  0.96525  0.45621  0.40688  1.0000
  Fe  Fe325     1.0  0.95416  0.49471  0.23789  1.0000
  C   C4718     1.0  0.95293  0.48110  0.40508  1.0000
  C   C4719     1.0  0.94960  0.45745  0.44706  1.0000
  C   C4720     1.0  0.94660  0.44717  0.46298  1.0000
  C   C4721     1.0  0.95291  0.44143  0.45078  1.0000
  C   C4722     1.0  0.96220  0.44596  0.42258  1.0000
  C   C4723     1.0  0.97576  0.47384  0.44374  1.0000
  H   H3774     1.0  0.94458  0.46174  0.45651  1.0000
  H   H3775     1.0  0.95062  0.43347  0.46269  1.0000
  H   H3776     1.0  0.96706  0.44150  0.41282  1.0000
  C   C4724     1.0  0.82368  0.46747  0.53195  1.0000
  C   C4725     1.0  0.94279  0.38454  0.98524  1.0000
  C   C4726     1.0  0.93421  0.43335  0.08766  1.0000
  H   H3777     1.0  0.88823  0.45635  0.92471  1.0000
  C   C4727     1.0  0.88300  0.42995  0.91732  1.0000
  C   C4728     1.0  0.80159  0.34511  0.57429  1.0000
  S   S650      1.0  0.86129  0.33713  0.76522  1.0000
  C   C4729     1.0  0.97772  0.49170  0.78019  1.0000
  H   H3778     1.0  0.81087  0.34625  0.51473  1.0000
  H   H3779     1.0  0.94990  0.46799  0.11257  1.0000
  H   H3780     1.0  0.93936  0.44363  0.48454  1.0000
  C   C4730     1.0  0.76359  0.36716  0.76635  1.0000
  H   H3781     1.0  0.97129  0.48808  0.80665  1.0000
  H   H3782     1.0  0.83250  0.37224  0.67950  1.0000
  P   P159      1.0  0.88098  0.41742  0.91692  1.0000
  H   H3783     1.0  0.83222  0.35226  0.87414  1.0000
  H   H3784     1.0  0.89857  0.43343  0.88536  1.0000
  C   C4731     1.0  0.97122  0.48001  0.42143  1.0000
  H   H3785     1.0  0.90715  0.35576  0.38611  1.0000
  C   C4732     1.0  0.78249  0.35249  0.83212  1.0000
  H   H3786     1.0  0.98616  0.47298  0.47620  1.0000
  C   C4733     1.0  0.92449  0.39113  0.79976  1.0000
  H   H3787     1.0  0.81302  0.34550  0.02372  1.0000
  C   C4734     1.0  0.96914  0.42015  0.38210  1.0000
  H   H3788     1.0  0.90166  0.45020  0.88978  1.0000
  H   H3789     1.0  0.98094  0.42852  0.32733  1.0000
  C   C4735     1.0  0.98418  0.47018  0.77590  1.0000
  H   H3790     1.0  0.99077  0.47605  0.76300  1.0000
  H   H3791     1.0  0.77855  0.36404  0.28509  1.0000
  H   H3792     1.0  0.92351  0.36345  0.33610  1.0000
  H   H3793     1.0  0.99444  0.40541  0.87450  1.0000
  C   C4736     1.0  0.98233  0.47771  0.46079  1.0000
  C   C4737     1.0  0.76806  0.35009  0.30719  1.0000
  C   C4738     1.0  0.88927  0.41413  0.97930  1.0000
  C   C4739     1.0  0.77641  0.34970  0.19865  1.0000
  C   C4740     1.0  0.97669  0.49535  0.74187  1.0000
  C   C4741     1.0  0.99067  0.46688  0.23876  1.0000
  C   C4742     1.0  0.82927  0.36808  0.55864  1.0000
  C   C4743     1.0  0.78631  0.35421  0.04087  1.0000
  C   C4744     1.0  0.89572  0.46142  0.41885  1.0000
  C   C4745     1.0  0.88672  0.44896  0.92296  1.0000
  H   H3794     1.0  0.88840  0.36699  0.42223  1.0000
  H   H3795     1.0  0.84113  0.38083  0.51944  1.0000
  H   H3796     1.0  0.77782  0.34355  0.91979  1.0000
  H   H3797     1.0  0.78447  0.34779  0.10448  1.0000
  H   H3798     1.0  0.85922  0.33858  0.51790  1.0000
  H   H3799     1.0  0.85516  0.40505  0.86532  1.0000
  C   C4746     1.0  0.87893  0.39976  0.97707  1.0000
  C   C4747     1.0  0.94521  0.42194  0.63714  1.0000
  H   H3800     1.0  0.75894  0.36564  0.60888  1.0000
  C   C4748     1.0  0.98431  0.48774  0.45621  1.0000
  C   C4749     1.0  0.97314  0.49004  0.41757  1.0000
  C   C4750     1.0  0.87724  0.44297  0.94003  1.0000
  C   C4751     1.0  0.89250  0.43605  0.90022  1.0000
  H   H3801     1.0  0.89299  0.42184  0.96678  1.0000
  C   C4752     1.0  0.97258  0.45718  0.83376  1.0000
  H   H3802     1.0  0.89094  0.37149  0.54668  1.0000
  C   C4753     1.0  0.87537  0.43349  0.93726  1.0000
  H   H3803     1.0  0.96942  0.49449  0.73958  1.0000
  C   C4754     1.0  0.82762  0.39336  0.22272  1.0000
  H   H3804     1.0  0.99191  0.48760  0.67234  1.0000
  H   H3805     1.0  0.90238  0.41369  0.76757  1.0000
  P   P160      1.0  0.93863  0.45006  0.11041  1.0000
  C   C4755     1.0  0.94979  0.48545  0.37252  1.0000
  H   H3806     1.0  0.83758  0.36004  0.07791  1.0000
  H   H3807     1.0  0.96486  0.45736  0.19647  1.0000
  C   C4756     1.0  0.92988  0.42347  0.09570  1.0000
  H   H3808     1.0  0.88796  0.39378  0.05586  1.0000
  H   H3809     1.0  0.84145  0.41350  0.54111  1.0000
  H   H3810     1.0  0.87718  0.38619  0.02389  1.0000
  H   H3811     1.0  0.92158  0.40974  0.14207  1.0000
  C   C4757     1.0  0.81460  0.34963  0.36597  1.0000
  C   C4758     1.0  0.92142  0.40516  0.68173  1.0000
  C   C4759     1.0  0.83714  0.36162  0.96939  1.0000
  H   H3812     1.0  0.92054  0.45013  0.09085  1.0000
  H   H3813     1.0  0.99021  0.42092  0.88018  1.0000
  C   C4760     1.0  0.84547  0.35918  0.01968  1.0000
  H   H3814     1.0  0.79303  0.34672  0.93542  1.0000
  H   H3815     1.0  0.98519  0.46642  0.83638  1.0000
  C   C4761     1.0  0.92498  0.41738  0.13572  1.0000
  C   C4762     1.0  0.92740  0.45904  0.15977  1.0000
  C   C4763     1.0  0.91159  0.46174  0.15744  1.0000
  H   H3816     1.0  0.84600  0.40196  0.99237  1.0000
  H   H3817     1.0  0.85136  0.37174  0.41707  1.0000
  C   C4764     1.0  0.75351  0.36145  0.63809  1.0000
  H   H3818     1.0  0.95325  0.48528  0.34226  1.0000
  S   S651      1.0  0.98361  0.44552  0.44859  1.0000
  H   H3819     1.0  0.92073  0.41645  0.19872  1.0000
  C   C4765     1.0  0.95621  0.44626  0.18236  1.0000
  C   C4766     1.0  0.85165  0.40455  0.96298  1.0000
  H   H3820     1.0  0.89945  0.45230  0.38156  1.0000
  C   C4767     1.0  0.89272  0.40851  0.86973  1.0000
  H   H3821     1.0  0.86359  0.35070  0.14415  1.0000
  C   C4768     1.0  0.97293  0.41903  0.83391  1.0000
  Fe  Fe326     1.0  0.85977  0.36360  0.71706  1.0000
  C   C4769     1.0  0.97651  0.39951  0.09024  1.0000
  H   H3822     1.0  0.94111  0.38353  0.95890  1.0000
  C   C4770     1.0  0.93376  0.43719  0.11984  1.0000
  C   C4771     1.0  0.80165  0.38218  0.50538  1.0000
  C   C4772     1.0  0.92818  0.45487  0.12848  1.0000
  H   H3823     1.0  0.95659  0.42451  0.58053  1.0000
  Fe  Fe327     1.0  0.86290  0.34500  0.69939  1.0000
  H   H3824     1.0  0.98964  0.49080  0.46822  1.0000
  S   S652      1.0  0.78120  0.38522  0.18387  1.0000
  H   H3825     1.0  0.91437  0.42579  0.69385  1.0000
  C   C4773     1.0  0.94262  0.42405  0.67380  1.0000
  H   H3826     1.0  0.91653  0.40001  0.76958  1.0000
  H   H3827     1.0  0.94011  0.41689  0.63068  1.0000
  H   H3828     1.0  0.90624  0.45668  0.11465  1.0000
  C   C4774     1.0  0.80348  0.39328  0.32865  1.0000
  H   H3829     1.0  0.91806  0.38521  0.81787  1.0000
  H   H3830     1.0  0.90038  0.40097  0.83226  1.0000
  C   C4775     1.0  0.92366  0.39955  0.77225  1.0000
  C   C4776     1.0  0.83154  0.40033  0.58705  1.0000
  C   C4777     1.0  0.97382  0.42346  0.33997  1.0000
  H   H3831     1.0  0.84836  0.35321  0.52878  1.0000
  C   C4778     1.0  0.91217  0.45738  0.12707  1.0000
  H   H3832     1.0  0.91694  0.44473  0.79093  1.0000
  H   H3833     1.0  0.84097  0.40730  0.48409  1.0000
  C   C4779     1.0  0.81236  0.36906  0.62311  1.0000
  C   C4780     1.0  0.81708  0.37016  0.78903  1.0000
  C   C4781     1.0  0.82637  0.37377  0.75948  1.0000
  H   H3834     1.0  0.94669  0.43679  0.16515  1.0000
  C   C4782     1.0  0.88896  0.41682  0.87028  1.0000
  C   C4783     1.0  0.94101  0.40653  0.75400  1.0000
  H   H3835     1.0  0.97324  0.42253  0.28177  1.0000
  H   H3836     1.0  0.96423  0.43955  0.65928  1.0000
  C   C4784     1.0  0.86619  0.41120  0.88697  1.0000
  C   C4785     1.0  0.85678  0.40628  0.89144  1.0000
  C   C4786     1.0  0.94176  0.39817  0.78210  1.0000
  H   H3837     1.0  0.95936  0.42815  0.90077  1.0000
  C   C4787     1.0  0.96112  0.42335  0.88314  1.0000
  H   H3838     1.0  0.91875  0.46591  0.19725  1.0000
  H   H3839     1.0  0.96869  0.43575  0.59475  1.0000
  C   C4788     1.0  0.93194  0.40729  0.74884  1.0000
  C   C4789     1.0  0.95885  0.43475  0.65290  1.0000
  C   C4790     1.0  0.89886  0.41469  0.79613  1.0000
  C   C4791     1.0  0.92690  0.42656  0.73788  1.0000
  C   C4792     1.0  0.82645  0.38329  0.24150  1.0000
  H   H3840     1.0  0.92695  0.40110  0.68489  1.0000
  H   H3841     1.0  0.92107  0.49746  0.05372  1.0000
  C   C4793     1.0  0.96578  0.41069  0.83905  1.0000
  H   H3842     1.0  0.77727  0.37015  0.04300  1.0000
  C   C4794     1.0  0.91919  0.46254  0.17377  1.0000
  H   H3843     1.0  0.92832  0.43387  0.18491  1.0000
  H   H3844     1.0  0.83074  0.39108  0.49652  1.0000
  C   C4795     1.0  0.96138  0.43259  0.61657  1.0000
  C   C4796     1.0  0.92886  0.43101  0.15984  1.0000
  H   H3845     1.0  0.92480  0.45029  0.71599  1.0000
  C   C4797     1.0  0.92430  0.44286  0.73400  1.0000
  C   C4798     1.0  0.82595  0.38735  0.56200  1.0000
  S   S653      1.0  0.86048  0.37909  0.68177  1.0000
  H   H3846     1.0  0.97010  0.45291  0.86577  1.0000
  C   C4799     1.0  0.92034  0.45381  0.11324  1.0000
  H   H3847     1.0  0.91325  0.39425  0.66489  1.0000
  S   S654      1.0  0.85701  0.35732  0.78415  1.0000
  C   C4800     1.0  0.89764  0.40747  0.83270  1.0000
  H   H3848     1.0  0.94750  0.41236  0.73676  1.0000
  H   H3849     1.0  0.95782  0.44019  0.20263  1.0000
  C   C4801     1.0  0.80932  0.38825  0.30813  1.0000
  H   H3850     1.0  0.80057  0.39908  0.37841  1.0000
  H   H3851     1.0  0.86267  0.41041  0.98519  1.0000
  H   H3852     1.0  0.93301  0.45954  0.17391  1.0000
  C   C4802     1.0  0.92236  0.42344  0.78015  1.0000
  H   H3853     1.0  0.90522  0.46440  0.16868  1.0000
  C   C4803     1.0  0.93353  0.39047  0.80490  1.0000
  H   H3854     1.0  0.80834  0.38736  0.28046  1.0000
  H   H3855     1.0  0.92137  0.41593  0.79864  1.0000
  C   C4804     1.0  0.92792  0.43635  0.71496  1.0000
  C   C4805     1.0  0.91366  0.40125  0.67036  1.0000
  H   H3856     1.0  0.89999  0.40291  0.66080  1.0000
  C   C4806     1.0  0.91884  0.43001  0.79909  1.0000
  C   C4807     1.0  0.76571  0.34279  0.86243  1.0000
  C   C4808     1.0  0.86847  0.41264  0.92078  1.0000
  C   C4809     1.0  0.91981  0.43971  0.77610  1.0000
  C   C4810     1.0  0.94951  0.43055  0.68132  1.0000
  H   H3857     1.0  0.93126  0.43889  0.68223  1.0000
  C   C4811     1.0  0.88863  0.36654  0.39259  1.0000
  Fe  Fe328     1.0  0.79270  0.38129  0.21153  1.0000
  H   H3858     1.0  0.81197  0.37479  0.79188  1.0000
  C   C4812     1.0  0.87615  0.36191  0.13710  1.0000
  H   H3859     1.0  0.83959  0.36745  0.29365  1.0000
  C   C4813     1.0  0.82674  0.35776  0.57394  1.0000
  C   C4814     1.0  0.82876  0.39069  0.15839  1.0000
  C   C4815     1.0  0.81895  0.41778  0.49528  1.0000
  H   H3860     1.0  0.96766  0.40575  0.82216  1.0000
  H   H3861     1.0  0.93117  0.37238  0.02836  1.0000
  H   H3862     1.0  0.96574  0.47622  0.05169  1.0000
  C   C4816     1.0  0.82869  0.39704  0.18142  1.0000
  C   C4817     1.0  0.97372  0.47834  0.98930  1.0000
  C   C4818     1.0  0.83364  0.35244  0.56344  1.0000
  H   H3863     1.0  0.79833  0.37642  0.45997  1.0000
  H   H3864     1.0  0.96836  0.48145  0.97765  1.0000
  C   C4819     1.0  0.98726  0.45908  0.63946  1.0000
  H   H3865     1.0  0.95771  0.46372  0.93950  1.0000
  H   H3866     1.0  0.93325  0.46136  0.04046  1.0000
  C   C4820     1.0  0.97064  0.42537  0.85626  1.0000
  C   C4821     1.0  0.88678  0.36076  0.81958  1.0000
  S   S655      1.0  0.84957  0.35082  0.71445  1.0000
  H   H3867     1.0  0.82401  0.36432  0.64375  1.0000
  H   H3868     1.0  0.81067  0.37684  0.72537  1.0000
  C   C4822     1.0  0.95453  0.45453  0.04071  1.0000
  C   C4823     1.0  0.90730  0.47853  0.48838  1.0000
  C   C4824     1.0  0.80855  0.36964  0.48385  1.0000
  C   C4825     1.0  0.96024  0.45594  0.17866  1.0000
  H   H3869     1.0  0.93836  0.42372  0.97548  1.0000
  C   C4826     1.0  0.76728  0.37153  0.13723  1.0000
  H   H3870     1.0  0.95826  0.45108  0.06079  1.0000
  C   C4827     1.0  0.98837  0.40523  0.89990  1.0000
  C   C4828     1.0  0.84308  0.34209  0.94066  1.0000
  H   H3871     1.0  0.91646  0.46398  0.55312  1.0000
  H   H3872     1.0  0.90341  0.36346  0.87001  1.0000
  C   C4829     1.0  0.93726  0.37823  0.02426  1.0000
  C   C4830     1.0  0.86489  0.35475  0.96470  1.0000
  C   C4831     1.0  0.95169  0.46187  0.13169  1.0000
  H   H3873     1.0  0.93505  0.37486  0.08838  1.0000
  H   H3874     1.0  0.96110  0.47126  0.15025  1.0000
  H   H3875     1.0  0.94101  0.46579  0.96775  1.0000
  C   C4832     1.0  0.87579  0.37227  0.23644  1.0000
  C   C4833     1.0  0.94508  0.45574  0.05665  1.0000
  C   C4834     1.0  0.94039  0.46007  0.02977  1.0000
  H   H3876     1.0  0.80228  0.35482  0.97122  1.0000
  H   H3877     1.0  0.96645  0.45670  0.98662  1.0000
  H   H3878     1.0  0.82511  0.43208  0.44983  1.0000
  S   S656      1.0  0.97947  0.43550  0.85396  1.0000
  C   C4835     1.0  0.88058  0.36048  0.34980  1.0000
  C   C4836     1.0  0.91234  0.34784  0.43318  1.0000
  H   H3879     1.0  0.82736  0.39832  0.24039  1.0000
  C   C4837     1.0  0.76318  0.40130  0.02344  1.0000
  C   C4838     1.0  0.81644  0.36471  0.65252  1.0000
  C   C4839     1.0  0.87379  0.37113  0.20178  1.0000
  C   C4840     1.0  0.83312  0.36790  0.75905  1.0000
  C   C4841     1.0  0.76239  0.37887  0.12718  1.0000
  C   C4842     1.0  0.97221  0.47534  0.03107  1.0000
  C   C4843     1.0  0.94490  0.46279  0.98788  1.0000
  C   C4844     1.0  0.79687  0.36552  0.67680  1.0000
  H   H3880     1.0  0.81026  0.34588  0.09384  1.0000
  H   H3881     1.0  0.79911  0.37262  0.61379  1.0000
  H   H3882     1.0  0.98315  0.39732  0.09247  1.0000
  H   H3883     1.0  0.85293  0.37138  0.50118  1.0000
  C   C4845     1.0  0.88023  0.36156  0.38753  1.0000
  H   H3884     1.0  0.86943  0.37804  0.15027  1.0000
  H   H3885     1.0  0.80863  0.36718  0.27875  1.0000
  H   H3886     1.0  0.82905  0.40476  0.16790  1.0000
  H   H3887     1.0  0.82521  0.36208  0.36166  1.0000
  C   C4846     1.0  0.82229  0.42800  0.48216  1.0000
  H   H3888     1.0  0.90754  0.35483  0.17392  1.0000
  H   H3889     1.0  0.98027  0.42044  0.81338  1.0000
  C   C4847     1.0  0.97041  0.40143  0.12292  1.0000
  C   C4848     1.0  0.81082  0.36092  0.69366  1.0000
  C   C4849     1.0  0.80249  0.36937  0.63558  1.0000
  C   C4850     1.0  0.89381  0.45538  0.39625  1.0000
  C   C4851     1.0  0.75167  0.38611  0.24845  1.0000
  C   C4852     1.0  0.77442  0.41669  0.97698  1.0000
  H   H3890     1.0  0.95703  0.40563  0.14559  1.0000
  H   H3891     1.0  0.79674  0.35849  0.73786  1.0000
  C   C4853     1.0  0.95758  0.41543  0.99607  1.0000
  C   C4854     1.0  0.95427  0.46158  0.97217  1.0000
  C   C4855     1.0  0.95914  0.45756  0.99865  1.0000
  C   C4856     1.0  0.88046  0.47510  0.49615  1.0000
  H   H3892     1.0  0.97001  0.42449  0.00144  1.0000
  C   C4857     1.0  0.78203  0.35782  0.20313  1.0000
  C   C4858     1.0  0.82931  0.36234  0.03641  1.0000
  C   C4859     1.0  0.77302  0.37249  0.06668  1.0000
  Fe  Fe329     1.0  0.87017  0.35134  0.76595  1.0000
  H   H3893     1.0  0.90288  0.46291  0.42195  1.0000
  H   H3894     1.0  0.89657  0.35218  0.83782  1.0000
  S   S657      1.0  0.79124  0.36382  0.81333  1.0000
  H   H3895     1.0  0.98270  0.46082  0.93560  1.0000
  C   C4860     1.0  0.95258  0.39385  0.01390  1.0000
  C   C4861     1.0  0.88853  0.46581  0.43606  1.0000
  H   H3896     1.0  0.97885  0.39883  0.02994  1.0000
  Fe  Fe330     1.0  0.99536  0.45718  0.39735  1.0000
  C   C4862     1.0  0.80542  0.35242  0.31902  1.0000
  C   C4863     1.0  0.89272  0.36612  0.53198  1.0000
  C   C4864     1.0  0.96308  0.42425  0.99582  1.0000
  H   H3897     1.0  0.82876  0.36862  0.87083  1.0000
  S   S658      1.0  0.87053  0.35343  0.34267  1.0000
  H   H3898     1.0  0.79842  0.34675  0.23740  1.0000
  C   C4865     1.0  0.90019  0.35324  0.19478  1.0000
  H   H3899     1.0  0.78015  0.36482  0.19622  1.0000
  C   C4866     1.0  0.98601  0.41399  0.90320  1.0000
  C   C4867     1.0  0.86293  0.47533  0.55149  1.0000
  H   H3900     1.0  0.88122  0.36692  0.02091  1.0000
  H   H3901     1.0  0.83350  0.34453  0.67454  1.0000
  H   H3902     1.0  0.83842  0.46706  0.50185  1.0000
  C   C4868     1.0  0.76930  0.41044  0.01663  1.0000
  P   P161      1.0  0.75677  0.39298  0.07452  1.0000
  C   C4869     1.0  0.77241  0.37341  0.76118  1.0000
  H   H3903     1.0  0.87698  0.36639  0.91999  1.0000
  H   H3904     1.0  0.91873  0.48150  0.51387  1.0000
  C   C4870     1.0  0.85807  0.37149  0.86667  1.0000
  C   C4871     1.0  0.94520  0.42388  0.98163  1.0000
  Fe  Fe331     1.0  0.85511  0.34744  0.38828  1.0000
  H   H3905     1.0  0.77185  0.40054  0.10512  1.0000
  C   C4872     1.0  0.87436  0.48091  0.48297  1.0000
  C   C4873     1.0  0.91328  0.47588  0.51190  1.0000
  H   H3906     1.0  0.83566  0.35392  0.78488  1.0000
  C   C4874     1.0  0.91203  0.46601  0.53391  1.0000
  H   H3907     1.0  0.88327  0.44892  0.37341  1.0000
  H   H3908     1.0  0.90678  0.34008  0.54219  1.0000
  H   H3909     1.0  0.77025  0.41277  0.04167  1.0000
  C   C4875     1.0  0.99199  0.43902  0.62080  1.0000
  H   H3910     1.0  0.83162  0.34449  0.57456  1.0000
  H   H3911     1.0  0.88900  0.37380  0.11832  1.0000
  H   H3912     1.0  0.77753  0.41864  0.91307  1.0000
  C   C4876     1.0  0.90488  0.45879  0.53200  1.0000
  S   S659      1.0  0.84307  0.35145  0.36426  1.0000
  H   H3913     1.0  0.85415  0.36540  0.86076  1.0000
  H   H3914     1.0  0.88946  0.36070  0.94749  1.0000
  H   H3915     1.0  0.96982  0.49498  0.40017  1.0000
  H   H3916     1.0  0.77917  0.42368  0.97208  1.0000
  H   H3917     1.0  0.90366  0.45120  0.55020  1.0000
  H   H3918     1.0  0.94842  0.38850  0.07978  1.0000
  C   C4877     1.0  0.98282  0.39627  0.92901  1.0000
  H   H3919     1.0  0.77018  0.35049  0.18838  1.0000
  H   H3920     1.0  0.90827  0.48623  0.47239  1.0000
  H   H3921     1.0  0.75767  0.39152  0.99417  1.0000
  C   C4878     1.0  0.78180  0.35511  0.01089  1.0000
  H   H3922     1.0  0.80942  0.36516  0.46404  1.0000
  C   C4879     1.0  0.82090  0.35449  0.81313  1.0000
  C   C4880     1.0  0.86004  0.37019  0.90355  1.0000
  C   C4881     1.0  0.74982  0.37392  0.88265  1.0000
  S   S660      1.0  0.88186  0.35212  0.79816  1.0000
  C   C4882     1.0  0.76229  0.39854  0.98987  1.0000
  H   H3923     1.0  0.80708  0.35762  0.83776  1.0000
  C   C4883     1.0  0.81050  0.34488  0.95138  1.0000
  H   H3924     1.0  0.81405  0.35773  0.71631  1.0000
  H   H3925     1.0  0.81940  0.35380  0.59328  1.0000
  H   H3926     1.0  0.81882  0.36435  0.51127  1.0000
  C   C4884     1.0  0.77873  0.34054  0.20796  1.0000
  S   S661      1.0  0.99599  0.44776  0.73919  1.0000
  C   C4885     1.0  0.76508  0.40201  0.12067  1.0000
  C   C4886     1.0  0.76817  0.37989  0.05650  1.0000
  C   C4887     1.0  0.87166  0.35826  0.08137  1.0000
  C   C4888     1.0  0.96541  0.40318  0.05179  1.0000
  C   C4889     1.0  0.85937  0.34737  0.89139  1.0000
  C   C4890     1.0  0.78104  0.34850  0.08104  1.0000
  C   C4891     1.0  0.99430  0.46915  0.26813  1.0000
  S   S662      1.0  0.95543  0.49017  0.10041  1.0000
  C   C4892     1.0  0.89939  0.36909  0.49274  1.0000
  Fe  Fe332     1.0  0.99532  0.44291  0.47711  1.0000
  C   C4893     1.0  0.99541  0.47220  0.19760  1.0000
  C   C4894     1.0  0.86564  0.48103  0.51057  1.0000
  H   H3927     1.0  0.95960  0.49182  0.01597  1.0000
  C   C4895     1.0  0.89896  0.46140  0.50813  1.0000
  C   C4896     1.0  0.95975  0.43286  0.98756  1.0000
  C   C4897     1.0  0.80878  0.35418  0.95025  1.0000
  C   C4898     1.0  0.80752  0.34605  0.35054  1.0000
  Fe  Fe333     1.0  0.98791  0.43505  0.41476  1.0000
  H   H3928     1.0  0.89328  0.45574  0.50784  1.0000
  C   C4899     1.0  0.80105  0.36137  0.70584  1.0000
  H   H3929     1.0  0.95570  0.49166  0.62086  1.0000
  C   C4900     1.0  0.76656  0.34493  0.06167  1.0000
  C   C4901     1.0  0.77125  0.34373  0.09132  1.0000
  H   H3930     1.0  0.79799  0.35068  0.56263  1.0000
  C   C4902     1.0  0.87932  0.34806  0.99519  1.0000
  C   C4903     1.0  0.95938  0.40517  0.08466  1.0000
  C   C4904     1.0  0.75654  0.39935  0.11133  1.0000
  C   C4905     1.0  0.95185  0.48867  0.03083  1.0000
  C   C4906     1.0  0.86244  0.35088  0.22024  1.0000
  C   C4907     1.0  0.88466  0.45353  0.39130  1.0000
  P   P162      1.0  0.96202  0.40437  0.00639  1.0000
  S   S663      1.0  0.85002  0.35192  0.44364  1.0000
  H   H3931     1.0  0.81368  0.36982  0.91956  1.0000
  C   C4908     1.0  0.81529  0.36271  0.92117  1.0000
  H   H3932     1.0  0.81923  0.41399  0.47303  1.0000
  H   H3933     1.0  0.85478  0.36131  0.23973  1.0000
  H   H3934     1.0  0.78927  0.36583  0.68641  1.0000
  C   C4909     1.0  0.98911  0.47335  0.97739  1.0000
  H   H3935     1.0  0.86096  0.48549  0.50017  1.0000
  C   C4910     1.0  0.78998  0.35679  0.21709  1.0000
  S   S664      1.0  0.99055  0.44165  0.54455  1.0000
  H   H3936     1.0  0.86785  0.33855  0.20830  1.0000
  H   H3937     1.0  0.94834  0.43943  0.97279  1.0000
  H   H3938     1.0  0.90285  0.37680  0.47661  1.0000
  C   C4911     1.0  0.88864  0.34605  0.26278  1.0000
  C   C4912     1.0  0.99791  0.46133  0.92975  1.0000
  C   C4913     1.0  0.99341  0.49083  0.64000  1.0000
  C   C4914     1.0  0.77473  0.38330  0.73739  1.0000
  C   C4915     1.0  0.78941  0.42231  0.65148  1.0000
  C   C4916     1.0  0.81904  0.34429  0.92375  1.0000
  C   C4917     1.0  0.85433  0.35374  0.24082  1.0000
  C   C4918     1.0  0.90002  0.47131  0.48664  1.0000
  H   H3939     1.0  0.86765  0.33591  0.03796  1.0000
  P   P163      1.0  0.85565  0.35838  0.94318  1.0000
  H   H3940     1.0  0.90696  0.36456  0.44398  1.0000
  H   H3941     1.0  0.95266  0.40730  0.08326  1.0000
  C   C4919     1.0  0.82376  0.36204  0.89380  1.0000
  C   C4920     1.0  0.97805  0.41382  0.93534  1.0000
  C   C4921     1.0  0.86494  0.37833  0.91036  1.0000
  C   C4922     1.0  0.86829  0.38751  0.87993  1.0000
  C   C4923     1.0  0.90169  0.36208  0.47411  1.0000
  C   C4924     1.0  0.96185  0.40426  0.12009  1.0000
  C   C4925     1.0  0.77194  0.35056  0.02122  1.0000
  H   H3942     1.0  0.93823  0.36004  0.35364  1.0000
  H   H3943     1.0  0.78187  0.41763  0.71610  1.0000
  C   C4926     1.0  0.93102  0.35654  0.37564  1.0000
  H   H3944     1.0  0.99464  0.45818  0.63539  1.0000
  C   C4927     1.0  0.79230  0.34761  0.22641  1.0000
  H   H3945     1.0  0.89333  0.49481  0.46317  1.0000
  P   P164      1.0  0.89155  0.47473  0.45999  1.0000
  C   C4928     1.0  0.88408  0.36940  0.10850  1.0000
  C   C4929     1.0  0.89728  0.35205  0.49446  1.0000
  H   H3946     1.0  0.83759  0.34274  0.96598  1.0000
  H   H3947     1.0  0.90381  0.34564  0.24704  1.0000
  C   C4930     1.0  0.95083  0.43270  0.98022  1.0000
  H   H3948     1.0  0.97228  0.40070  0.15053  1.0000
  C   C4931     1.0  0.78817  0.33951  0.95006  1.0000
  H   H3949     1.0  0.99276  0.43708  0.68132  1.0000
  C   C4932     1.0  0.97403  0.40036  0.05478  1.0000
  C   C4933     1.0  0.87972  0.36557  0.05326  1.0000
  C   C4934     1.0  0.94778  0.48709  0.07266  1.0000
  P   P165      1.0  0.87396  0.35970  0.19102  1.0000
  H   H3950     1.0  0.81614  0.34472  0.39076  1.0000
  C   C4935     1.0  0.77273  0.36843  0.10687  1.0000
  H   H3951     1.0  0.87366  0.46728  0.44314  1.0000
  C   C4936     1.0  0.75318  0.36449  0.67198  1.0000
  C   C4937     1.0  0.75281  0.37849  0.23221  1.0000
  C   C4938     1.0  0.86987  0.35641  0.12312  1.0000
  H   H3952     1.0  0.94472  0.50041  0.65557  1.0000
  H   H3953     1.0  0.87034  0.45640  0.40423  1.0000
  H   H3954     1.0  0.79874  0.42752  0.58928  1.0000
  H   H3955     1.0  0.81126  0.33736  0.79002  1.0000
  C   C4939     1.0  0.77087  0.36034  0.29599  1.0000
  H   H3956     1.0  0.87256  0.39364  0.88439  1.0000
  C   C4940     1.0  0.98495  0.50032  0.70759  1.0000
  H   H3957     1.0  0.90979  0.48448  0.18352  1.0000
  H   H3958     1.0  0.75440  0.38372  0.70926  1.0000
  C   C4941     1.0  0.91457  0.49040  0.15665  1.0000
  H   H3959     1.0  0.85985  0.38166  0.80796  1.0000
  C   C4942     1.0  0.94239  0.49049  0.37831  1.0000
  H   H3960     1.0  0.86686  0.35394  0.07080  1.0000
  C   C4943     1.0  0.89703  0.48664  0.42142  1.0000
  C   C4944     1.0  0.87744  0.45784  0.40828  1.0000
  C   C4945     1.0  0.86123  0.38074  0.83667  1.0000
  C   C4946     1.0  0.95212  0.50113  0.65657  1.0000
  C   C4947     1.0  0.87765  0.46937  0.53731  1.0000
  H   H3961     1.0  0.99288  0.49172  0.36197  1.0000
  C   C4948     1.0  0.82594  0.34155  0.69364  1.0000
  C   C4949     1.0  0.89683  0.49524  0.43202  1.0000
  H   H3962     1.0  0.88699  0.34219  0.29490  1.0000
  C   C4950     1.0  0.82309  0.34158  0.73374  1.0000
  C   C4951     1.0  0.96785  0.49708  0.63853  1.0000
  H   H3963     1.0  0.86917  0.39580  0.81927  1.0000
  H   H3964     1.0  0.87627  0.48524  0.45123  1.0000
  C   C4952     1.0  0.90177  0.48743  0.38089  1.0000
  H   H3965     1.0  0.82057  0.33726  0.92328  1.0000
  H   H3966     1.0  0.98000  0.44579  0.91634  1.0000
  C   C4953     1.0  0.86642  0.38872  0.84311  1.0000
  C   C4954     1.0  0.77951  0.33773  0.94082  1.0000
  H   H3967     1.0  0.83701  0.36220  0.93900  1.0000
  C   C4955     1.0  0.92275  0.35841  0.36565  1.0000
  S   S665      1.0  0.94455  0.49906  0.19905  1.0000
  C   C4956     1.0  0.86894  0.46951  0.56481  1.0000
  H   H3968     1.0  0.98804  0.49482  0.26496  1.0000
  H   H3969     1.0  0.99244  0.47057  0.17499  1.0000
  H   H3970     1.0  0.86683  0.46501  0.59644  1.0000
  H   H3971     1.0  0.82289  0.36446  0.98847  1.0000
  H   H3972     1.0  0.97625  0.42070  0.93631  1.0000
  H   H3973     1.0  0.87407  0.34780  0.27018  1.0000
  H   H3974     1.0  0.98310  0.47970  0.93028  1.0000
  H   H3975     1.0  0.85616  0.47538  0.57287  1.0000
  S   S666      1.0  0.99267  0.47169  0.36772  1.0000
  C   C4957     1.0  0.78884  0.42081  0.69204  1.0000
  C   C4958     1.0  0.98866  0.45732  0.92870  1.0000
  H   H3976     1.0  0.88303  0.35389  0.58272  1.0000
  H   H3977     1.0  0.93799  0.48766  0.47865  1.0000
  C   C4959     1.0  0.98748  0.47024  0.01953  1.0000
  H   H3978     1.0  0.98821  0.46098  0.57712  1.0000
  S   S667      1.0  0.86622  0.34034  0.64220  1.0000
  C   C4960     1.0  0.84480  0.33688  0.26638  1.0000
  H   H3979     1.0  0.90989  0.48434  0.11462  1.0000
  P   P166      1.0  0.90029  0.34293  0.47066  1.0000
  H   H3980     1.0  0.89480  0.36062  0.14862  1.0000
  H   H3981     1.0  0.98407  0.46114  0.24811  1.0000
  C   C4961     1.0  0.99696  0.43984  0.58048  1.0000
  C   C4962     1.0  0.75812  0.34525  0.32155  1.0000
  C   C4963     1.0  0.78710  0.33647  0.72039  1.0000
  H   H3982     1.0  0.97251  0.49321  0.62317  1.0000
  C   C4964     1.0  0.97966  0.49388  0.43484  1.0000
  C   C4965     1.0  0.92999  0.35027  0.41422  1.0000
  H   H3983     1.0  0.94910  0.48781  0.97560  1.0000
  H   H3984     1.0  0.86978  0.34252  0.55777  1.0000
  C   C4966     1.0  0.93807  0.49123  0.41658  1.0000
  C   C4967     1.0  0.94115  0.48689  0.44920  1.0000
  C   C4968     1.0  0.74992  0.38358  0.88228  1.0000
  C   C4969     1.0  0.95830  0.49619  0.63706  1.0000
  C   C4970     1.0  0.91345  0.35405  0.39417  1.0000
  H   H3985     1.0  0.93642  0.34888  0.42202  1.0000
  Fe  Fe334     1.0  0.99439  0.44214  0.80531  1.0000
  H   H3986     1.0  0.82312  0.36336  0.05806  1.0000
  H   H3987     1.0  0.88493  0.34545  0.00657  1.0000
  C   C4971     1.0  0.74951  0.34930  0.12882  1.0000
  C   C4972     1.0  0.92069  0.34596  0.44298  1.0000
  C   C4973     1.0  0.88182  0.34064  0.46077  1.0000
  C   C4974     1.0  0.91462  0.49034  0.11793  1.0000
  C   C4975     1.0  0.86241  0.34602  0.99759  1.0000
  Fe  Fe335     1.0  0.83422  0.33586  0.39812  1.0000
  C   C4976     1.0  0.86164  0.34093  0.22337  1.0000
  H   H3988     1.0  0.92067  0.49818  0.19079  1.0000
  C   C4977     1.0  0.86959  0.34272  0.01291  1.0000
  H   H3989     1.0  0.94023  0.49406  0.35263  1.0000
  C   C4978     1.0  0.85814  0.33777  0.61488  1.0000
  C   C4979     1.0  0.85716  0.33968  0.87653  1.0000
  H   H3990     1.0  0.85494  0.34164  0.01080  1.0000
  C   C4980     1.0  0.99675  0.43784  0.65035  1.0000
  C   C4981     1.0  0.75617  0.40797  0.17242  1.0000
  H   H3991     1.0  0.98134  0.50171  0.43046  1.0000
  H   H3992     1.0  0.79308  0.34294  0.70798  1.0000
  H   H3993     1.0  0.79385  0.35806  0.03309  1.0000
  H   H3994     1.0  0.90980  0.49723  0.32029  1.0000
  C   C4982     1.0  0.99524  0.49783  0.75049  1.0000
  Fe  Fe336     1.0  0.84097  0.33646  0.47348  1.0000
  H   H3995     1.0  0.99358  0.43787  0.89824  1.0000
  C   C4983     1.0  0.99476  0.44434  0.90746  1.0000
  C   C4984     1.0  0.85608  0.33719  0.55010  1.0000
  H   H3996     1.0  0.75840  0.37104  0.66836  1.0000
  C   C4985     1.0  0.99074  0.49958  0.62399  1.0000
  C   C4986     1.0  0.77809  0.33680  0.74521  1.0000
  C   C4987     1.0  0.81342  0.33748  0.75875  1.0000
  C   C4988     1.0  0.99745  0.49859  0.55609  1.0000
  C   C4989     1.0  0.92072  0.49811  0.16078  1.0000
  H   H3997     1.0  0.86264  0.33873  0.85176  1.0000
  S   S668      1.0  0.99901  0.44714  0.36143  1.0000
  H   H3998     1.0  0.86764  0.33884  0.45253  1.0000
  C   C4990     1.0  0.79900  0.34041  0.61625  1.0000
  C   C4991     1.0  0.87507  0.33812  0.44188  1.0000
  C   C4992     1.0  0.92098  0.49787  0.08328  1.0000
  H   H3999     1.0  0.82153  0.33713  0.64790  1.0000
  C   C4993     1.0  0.81910  0.33732  0.67862  1.0000
  C   C4994     1.0  0.75107  0.35084  0.32341  1.0000
  C   C4995     1.0  0.99815  0.48612  0.61424  1.0000
  C   C4996     1.0  0.99424  0.50134  0.71215  1.0000
  S   S669      1.0  0.99701  0.52124  0.81959  1.0000
  H   H4000     1.0  0.99376  0.51966  0.68863  1.0000
  H   H4001     1.0  0.91564  0.54602  0.00471  1.0000
  C   C4997     1.0  0.97165  0.50887  0.28001  1.0000
  H   H4002     1.0  0.91061  0.53451  0.07527  1.0000
  H   H4003     1.0  0.99073  0.50995  0.56814  1.0000
  C   C4998     1.0  0.99579  0.53379  0.64662  1.0000
  C   C4999     1.0  0.92136  0.52627  0.06124  1.0000
  H   H4004     1.0  0.98287  0.52060  0.58781  1.0000
  H   H4005     1.0  0.98662  0.51281  0.24125  1.0000
  H   H4006     1.0  0.96152  0.54199  0.04072  1.0000
  S   S670      1.0  0.96710  0.50501  0.24355  1.0000
  S   S671      1.0  0.98423  0.52094  0.36820  1.0000
  C   C5000     1.0  0.94537  0.50734  0.92588  1.0000
  C   C5001     1.0  0.93921  0.51182  0.99837  1.0000
  C   C5002     1.0  0.92706  0.53926  0.98172  1.0000
  C   C5003     1.0  0.95011  0.53061  0.04134  1.0000
  C   C5004     1.0  0.96501  0.50787  0.67903  1.0000
  C   C5005     1.0  0.96791  0.50885  0.80332  1.0000
  C   C5006     1.0  0.98601  0.51632  0.81217  1.0000
  H   H4007     1.0  0.92928  0.54429  0.95091  1.0000
  C   C5007     1.0  0.98996  0.53436  0.58958  1.0000
  H   H4008     1.0  0.97944  0.50710  0.87474  1.0000
  C   C5008     1.0  0.95024  0.51395  0.07661  1.0000
  H   H4009     1.0  0.95064  0.51058  0.69372  1.0000
  C   C5009     1.0  0.96553  0.50883  0.31730  1.0000
  C   C5010     1.0  0.98669  0.52412  0.60406  1.0000
  H   H4010     1.0  0.93787  0.53118  0.96726  1.0000
  C   C5011     1.0  0.93562  0.50748  0.94231  1.0000
  C   C5012     1.0  0.96948  0.51247  0.34390  1.0000
  C   C5013     1.0  0.93189  0.53179  0.99109  1.0000
  H   H4011     1.0  0.92501  0.51002  0.98994  1.0000
  H   H4012     1.0  0.94772  0.50559  0.89796  1.0000
  C   C5014     1.0  0.97840  0.50948  0.84540  1.0000
  C   C5015     1.0  0.98453  0.51941  0.77449  1.0000
  H   H4013     1.0  0.94704  0.53581  0.02384  1.0000
  H   H4014     1.0  0.99025  0.52481  0.74894  1.0000
  H   H4015     1.0  0.96885  0.53033  0.08069  1.0000
  C   C5016     1.0  0.94899  0.51154  0.98189  1.0000
  C   C5017     1.0  0.98574  0.51600  0.29716  1.0000
  C   C5018     1.0  0.95205  0.50940  0.94560  1.0000
  C   C5019     1.0  0.96250  0.52760  0.07323  1.0000
  C   C5020     1.0  0.93256  0.50977  0.97819  1.0000
  C   C5021     1.0  0.97549  0.51578  0.77022  1.0000
  H   H4016     1.0  0.95430  0.51299  0.99672  1.0000
  C   C5022     1.0  0.94596  0.52045  0.05448  1.0000
  C   C5023     1.0  0.95834  0.53416  0.05080  1.0000
  C   C5024     1.0  0.98829  0.51855  0.63916  1.0000
  C   C5025     1.0  0.92697  0.50571  0.12633  1.0000
  H   H4017     1.0  0.90938  0.51234  0.33938  1.0000
  H   H4018     1.0  0.97441  0.51835  0.74108  1.0000
  C   C5026     1.0  0.99455  0.53919  0.61075  1.0000
  H   H4019     1.0  0.98902  0.53855  0.56166  1.0000
  H   H4020     1.0  0.99350  0.51878  0.28926  1.0000
  C   C5027     1.0  0.99269  0.52353  0.66078  1.0000
  H   H4021     1.0  0.95960  0.50921  0.93295  1.0000
  H   H4022     1.0  0.99745  0.52878  0.90976  1.0000
  C   C5028     1.0  0.97130  0.50303  0.65917  1.0000
  C   C5029     1.0  0.95845  0.51749  0.08604  1.0000
  C   C5030     1.0  0.96944  0.50569  0.84095  1.0000
  C   C5031     1.0  0.91655  0.53375  0.05176  1.0000
  C   C5032     1.0  0.92904  0.52520  0.03090  1.0000
  C   C5033     1.0  0.91938  0.54023  0.01202  1.0000
  P   P167      1.0  0.93534  0.51560  0.04285  1.0000
  C   C5034     1.0  0.95545  0.50688  0.67791  1.0000
  C   C5035     1.0  0.97963  0.51607  0.33413  1.0000
  H   H4023     1.0  0.91906  0.52134  0.09221  1.0000
  C   C5036     1.0  0.90593  0.50519  0.36229  1.0000
  H   H4024     1.0  0.93158  0.51166  0.13047  1.0000
  C   C5037     1.0  0.92728  0.50560  0.08715  1.0000
  H   H4025     1.0  0.95774  0.50635  0.32493  1.0000
  H   H4026     1.0  0.94717  0.50611  0.08672  1.0000
  H   H4027     1.0  0.96166  0.51235  0.10330  1.0000
  C   C5038     1.0  0.98179  0.51259  0.27010  1.0000
  H   H4028     1.0  0.90110  0.51109  0.41086  1.0000
  H   H4029     1.0  0.93041  0.50577  0.92726  1.0000
  S   S672      1.0  0.95671  0.50428  0.79627  1.0000
  H   H4030     1.0  0.96750  0.51244  0.69539  1.0000
  C   C5039     1.0  0.90126  0.50448  0.40253  1.0000
  H   H4031     1.0  0.96461  0.51257  0.37214  1.0000
  C   C5040     1.0  0.99274  0.50334  0.58175  1.0000
  P   P168      1.0  0.98388  0.50525  0.65765  1.0000
  H   H4032     1.0  0.99727  0.54711  0.59916  1.0000
