data_image0
_chemical_formula_structural       FeS2FeS2FeSFeS3H2C2HFeCSC4HCH2FeS2H5C4H2CH2SC2H2C2FeHC6H4C6H4C6H4FeH2CH2CH2C2HC5H2FeCPSCSFeHCHSHC3H2C2HFeSHC3H2CHCHC3HCSCHC2H2CHCHCPC2S2CSH2C2HCH3CH2C3H3FeHC6PC4HC3H2C8H6CH2C2H4CHCH2CH2CHCHC3PCH2CHCH2C5HCH2C3HC2H3CHSC2HCH2CH2CH2C3HC2SH4C3HC6SH2SC3HC2HSHCHCHCHCHCH2C2HCFeCSH2SH2FeSCFeS2FeSFeHS2H2PC2S2C3SC2HC3H4C4SH2FeCHSC6HFeH3C5H2SC2SCH4CH4C4H3C5HCSC4HCH4C6PC18H23FeH2CHCHC2SCHC4H4SH2CH2CHC5HC2HCH2CHFeCSCHCHFeHC4H2C2HCH2SC3SH2CH2CH4CH2C3HSCSC2HPCHCHC3HC5HCHC3HCHPHC2PC4H2CHCFeHC5HC2HC4FeCH4CHCH2CH2C4SH2FeS2FeS2FeSFeS3CH4C2SCSHC2HCHCS2HCHCHCSCHC3HC5H2C9H4C6H4C6H2C7PC3HC8H7CHPH4CH3FeCHCHC2H2C3FeH3C2HCPC2HC6H2C2H2CH3C2HCH2CSH3CSFeCHCPC3SCHCHC8FeH2C3HCHCHCSH4CHCH2PC8HCH7FeHCPCHCHC2SC7HC2HCH7C5HPHC5H2CHSHC2HCH3CH5CHSHCHC3HFeHCHCHCHCHCFeHCH2CHCHC6HCH2SC2HCH3SCH2C3H3C2H2C2HCHCHCHCHC5H3CFeC2H2CHFeC2HCFeCHFeSHFeS2FePFeCS2CH2SCSC2H2SHC6H2C4HCHC2HCHC6HCH3CH2C3H2FeCHCHFeH3C2HSC2HS2C3HC4H2C2H2CHCFeCHCH2CHCHCSHC2HCHC3PC19HCH18CHC2FeSHCHSH4CHC2HCSH2CH3CH3CH2S4CH2C7PC18H6SHCH3CHCH2S2HC2HCH3C4H2CSH2C2H2C2HC3H3FeCHC3H3FeCHC2HC2HFeHSHSFeHFe2S2C2FeH2CH3C7H4CHSH2FeCH3C2SCHFeCSH3CSC2HFeS2CH3C2HC2HC5H3C7HCH3CH2C2H2C5H2C4H2SHC3HC2H3C3H6CHFeH3CSC2SFeH2CPCSHCH2SC2HCHC9SC2HCH6C7PC15H18C2HC2HC6PC8HC9H2CHFeHC2H4C2HCHC2H2C2HC3HCHC2SCSH4CSC2HC3H4PC3H2C5HCHC2H2CHSCSPHCH3CHC3H2FeSHFeS2FeSFeS3C2HCHCHCHC2H3CFeCHC5H5C3HSFeC9H6CHSHC3HPH3C2H2FeCPC4HC2HC6PC18H22SCH2C2H5SC2HC3HC4H2C4PC14HC3PH14CHC2HC4H2CH3SC2H4CSC3HSC2HSH2CHC3H2C3H2C5S2H3CH2CHCSC3HC5HCHCSCPC2FeC2HC2H7CHC2H4C2H2C4HC2HC2H2FeSCSC2Fe2S3C4PC2HSC6H4C3HFeH5CHCSCFeHSHCH4SCFeS2HSCH5C7H4C6H4C2FeH2C2SC6PC18H17C2HCHC3HCHCH4C3SHC8HC4HFeSC3SH4C2H2CSC3H3C2HC2HCHSHCSCHFeCH5C2SC6HCHC2HCHC6H2CP2H3CHCH3CH4C2HPH2S2H2CHFeC2H2SCHCHCHFeS2FeS2FeSFeS3C2H3C2HCH2C3HFeC2HSHCHCH2C3H2CSC4S2C4H3C5H2CH2CHCSH2CH2C2H2CH2C2HC2HC2H3CHCHCHCHC2HCH4CH4C6HC2H3C8PC8H2C6H11SH3FeH3CHCHCHFeC6SC3HC5PH2C6PC2SH5PH2C4SHCHC2HPC10HCHC3HC2H2C3H2CH2CHCHC2HCHFeH2CH2C2HC2H3C4HC3H3C2HC2H2CHCPHCH3FeS2FeS2FeS2HC4FeSCSCHFeSCHC2HC2HCH7PHC3HC2H4C5H2CHCHSHC4PHC6H4C2HCH2PH2C3HC3H2CHC3HC2H6C2H7C2HC2HC2HCHC4HC6HSCHSH5CHC4FeCH6CH4C2H2CHC3SC2HCH5C6PC15H2CH5CHCH3CH3CSH3CHC4H4CSC3HC2H2CHSCFeHC6PC10FeC5H2CH3C3H2CHCHCH5CSHCHC3HFeHSCHCH2C5FeHS2H2SCPFeS2FeS2FeSFeHS2CFeS2FeSHFeSFeHS2CHC9H4C2HC4H4C10H5CHC2HC2HC3HC2H2C3HC11SC2FeHSH9C2PC8HCHC3H6CHCH4C4PC15HCH16SH2CH2CHCHC5HCHC3HCHCH4CH2CH4C3HC3HCH2CH4C4H3C2H2SHC2HC2H2C3HC2HC3H2C2PCHC11H4CHC4H2CH3C2H7CHCSCHC3HC3HFeS2FeS2FeS2H4CFeSCSH4FeC2HCFeH2C2SC2SCHC3H2C4H5C6H2CHC4HC8H4PC6PC7HC5HC3H9CH4C2H4C5PC2PSHC3HC2FeC4HCHCHCHC2H6CHC2HCHCFeCSC2H4C2H2CFeSHC2H4C8HC4H2C2H4C2H6CHC2FeHCHC4HC2HCPC2SH3C3H2C2H3CHC2HC2HPHC2H2CHC2H2C6PHC2H2CHPHCHC2HSHCH2CH2CHCHCHCHCSHCSCH2SHC2HCSC3H2C4H3FeHSC3SCHFeS2FeS2FeSFe2S2HFeS2FeS2FeSFeCS2C11H4C3H2CH4PC3HC6H5CH2C2H2C2HC2SCH4C2FeCH3C4H3CHC2H2C5HC2H2C2FeC3HCHCFeH2CH2CH2C2H3C4H2CH2C4HCHC5HSC3HC2HCHC3H2CH2CH3CHCSCPC5HSC4H3C3PHCH6C6HC2HCSH2PC6H3CH2CHSH2C2HCHC2HCH2CHC6HCHC2H2CHC3HC2SH6C2H3CHCPH5CHFeC3PH3SHCH2C2H6
_chemical_formula_sum              "Fe128 S256 H1536 C1920 P64"
_cell_length_a       43.7847
_cell_length_b       42.5505
_cell_length_c       45.2519
_cell_angle_alpha    89.8087
_cell_angle_beta     89.8261
_cell_angle_gamma    90.1309

_space_group_name_H-M_alt    "P 1"
_space_group_IT_number       1

loop_
  _space_group_symop_operation_xyz
  'x, y, z'

loop_
  _atom_site_type_symbol
  _atom_site_label
  _atom_site_symmetry_multiplicity
  _atom_site_fract_x
  _atom_site_fract_y
  _atom_site_fract_z
  _atom_site_occupancy
  Fe  Fe1       1.0  0.18328  0.36189  0.25519  1.0000
  S   S1        1.0  0.15556  0.33171  0.22512  1.0000
  S   S2        1.0  0.17943  0.35407  0.30427  1.0000
  Fe  Fe2       1.0  0.21436  0.39639  0.20401  1.0000
  S   S3        1.0  0.18839  0.36867  0.17002  1.0000
  S   S4        1.0  0.24968  0.43112  0.18712  1.0000
  Fe  Fe3       1.0  0.14775  0.37618  0.19950  1.0000
  S   S5        1.0  0.09994  0.39343  0.19004  1.0000
  Fe  Fe4       1.0  0.19911  0.32686  0.19908  1.0000
  S   S6        1.0  0.21273  0.27824  0.18301  1.0000
  S   S7        1.0  0.17305  0.40692  0.23147  1.0000
  S   S8        1.0  0.22752  0.35414  0.23108  1.0000
  H   H1        1.0  0.03466  0.44786  0.11897  1.0000
  H   H2        1.0  0.09608  0.00221  0.31828  1.0000
  C   C1        1.0  0.09157  0.04531  0.17692  1.0000
  C   C2        1.0  0.26613  0.03082  0.09976  1.0000
  H   H3        1.0  0.12395  0.29381  0.27069  1.0000
  Fe  Fe5       1.0  0.02657  0.46477  0.05240  1.0000
  C   C3        1.0  0.17488  0.24466  0.44717  1.0000
  S   S9        1.0  0.04375  0.41609  0.06303  1.0000
  C   C4        1.0  0.27491  0.01085  0.15796  1.0000
  C   C5        1.0  0.28376  0.98765  0.99235  1.0000
  C   C6        1.0  0.32252  0.22435  0.29816  1.0000
  C   C7        1.0  0.03192  0.15392  0.20872  1.0000
  H   H4        1.0  0.20381  0.34185  0.01305  1.0000
  C   C8        1.0  0.14283  0.24292  0.44701  1.0000
  H   H5        1.0  0.15522  0.01669  0.06128  1.0000
  H   H6        1.0  0.04093  0.31667  0.22987  1.0000
  Fe  Fe6       1.0  0.04155  0.27888  0.37909  1.0000
  S   S10       1.0  0.07852  0.24278  0.38440  1.0000
  S   S11       1.0  0.04615  0.32246  0.35097  1.0000
  H   H7        1.0  0.05640  0.43783  0.16873  1.0000
  H   H8        1.0  0.04621  0.02848  0.18617  1.0000
  H   H9        1.0  0.18698  0.24981  0.42695  1.0000
  H   H10       1.0  0.13050  0.24648  0.42664  1.0000
  H   H11       1.0  0.30352  0.07723  0.30454  1.0000
  C   C9        1.0  0.10487  0.27777  0.27319  1.0000
  C   C10       1.0  0.06436  0.04413  0.19310  1.0000
  C   C11       1.0  0.14267  0.03613  0.98803  1.0000
  C   C12       1.0  0.05581  0.23630  0.28027  1.0000
  H   H12       1.0  0.03890  0.06295  0.22972  1.0000
  H   H13       1.0  0.18549  0.38258  0.97865  1.0000
  C   C13       1.0  0.30823  0.99555  0.04867  1.0000
  H   H14       1.0  0.23041  0.02868  0.23941  1.0000
  H   H15       1.0  0.21038  0.45599  0.07322  1.0000
  S   S12       1.0  0.21830  0.48137  0.99004  1.0000
  C   C14       1.0  0.02560  0.18330  0.22104  1.0000
  C   C15       1.0  0.10799  0.43940  0.26375  1.0000
  H   H16       1.0  0.29935  0.19474  0.26692  1.0000
  H   H17       1.0  0.27343  0.07763  0.11663  1.0000
  C   C16       1.0  0.29937  0.20105  0.42021  1.0000
  C   C17       1.0  0.22622  0.24357  0.02298  1.0000
  Fe  Fe7       1.0  0.03523  0.04045  0.08197  1.0000
  H   H18       1.0  0.27908  0.19111  0.43047  1.0000
  C   C18       1.0  0.24777  0.26161  0.19464  1.0000
  C   C19       1.0  0.25338  0.22957  0.18962  1.0000
  C   C20       1.0  0.28140  0.21591  0.19787  1.0000
  C   C21       1.0  0.30414  0.23434  0.21094  1.0000
  C   C22       1.0  0.29843  0.26629  0.21615  1.0000
  C   C23       1.0  0.27038  0.27986  0.20809  1.0000
  H   H19       1.0  0.23605  0.21530  0.17919  1.0000
  H   H20       1.0  0.28557  0.19130  0.19368  1.0000
  H   H21       1.0  0.31581  0.28065  0.22640  1.0000
  H   H22       1.0  0.26656  0.30456  0.21183  1.0000
  C   C24       1.0  0.14232  0.34480  0.31673  1.0000
  C   C25       1.0  0.11666  0.35360  0.30033  1.0000
  C   C26       1.0  0.08718  0.34684  0.31106  1.0000
  C   C27       1.0  0.08326  0.33051  0.33780  1.0000
  C   C28       1.0  0.10892  0.32133  0.35396  1.0000
  C   C29       1.0  0.13834  0.32878  0.34362  1.0000
  H   H23       1.0  0.11955  0.36587  0.27954  1.0000
  H   H24       1.0  0.06741  0.35396  0.29846  1.0000
  H   H25       1.0  0.10608  0.30907  0.37477  1.0000
  H   H26       1.0  0.15797  0.32200  0.35650  1.0000
  C   C30       1.0  0.06119  0.41176  0.09783  1.0000
  C   C31       1.0  0.08364  0.38866  0.10185  1.0000
  C   C32       1.0  0.09688  0.38383  0.12979  1.0000
  C   C33       1.0  0.08674  0.40122  0.15405  1.0000
  C   C34       1.0  0.06432  0.42434  0.15000  1.0000
  C   C35       1.0  0.05202  0.43006  0.12186  1.0000
  H   H27       1.0  0.09061  0.37440  0.08332  1.0000
  H   H28       1.0  0.11416  0.36604  0.13285  1.0000
  H   H29       1.0  0.24953  0.19851  0.29187  1.0000
  H   H30       1.0  0.25839  0.17501  0.35742  1.0000
  Fe  Fe8       1.0  0.04168  0.20821  0.37199  1.0000
  H   H31       1.0  0.23499  0.22373  0.01063  1.0000
  H   H32       1.0  0.25558  0.40941  0.12132  1.0000
  C   C36       1.0  0.24537  0.26888  0.02961  1.0000
  H   H33       1.0  0.30983  0.17020  0.34040  1.0000
  H   H34       1.0  0.08021  0.43352  0.01169  1.0000
  C   C37       1.0  0.06650  0.17841  0.17370  1.0000
  H   H35       1.0  0.32839  0.02785  0.23510  1.0000
  H   H36       1.0  0.21239  0.30173  0.33061  1.0000
  C   C38       1.0  0.23656  0.32059  0.11618  1.0000
  C   C39       1.0  0.10199  0.30536  0.10162  1.0000
  H   H37       1.0  0.08811  0.28581  0.22950  1.0000
  C   C40       1.0  0.30291  0.12409  0.32250  1.0000
  C   C41       1.0  0.07654  0.42220  0.99056  1.0000
  C   C42       1.0  0.23716  0.17652  0.36949  1.0000
  C   C43       1.0  0.13195  0.44676  0.28285  1.0000
  C   C44       1.0  0.22936  0.15234  0.38916  1.0000
  H   H38       1.0  0.13776  0.29121  0.16698  1.0000
  H   H39       1.0  0.23076  0.27354  0.28885  1.0000
  Fe  Fe9       1.0  0.00817  0.01873  0.02320  1.0000
  C   C45       1.0  0.03909  0.21062  0.20924  1.0000
  P   P1        1.0  0.03069  0.24854  0.22514  1.0000
  S   S13       1.0  0.02537  0.27680  0.42644  1.0000
  C   C46       1.0  0.02320  0.27400  0.16857  1.0000
  S   S14       1.0  0.00791  0.99781  0.06914  1.0000
  Fe  Fe10      1.0  0.06028  0.23814  0.43077  1.0000
  H   H40       1.0  0.14157  0.45458  0.09478  1.0000
  C   C47       1.0  0.14246  0.45033  0.14220  1.0000
  H   H41       1.0  0.12304  0.99915  0.22686  1.0000
  S   S15       1.0  0.03257  0.06290  0.03722  1.0000
  H   H42       1.0  0.08314  0.45264  0.22491  1.0000
  C   C48       1.0  0.13572  0.46550  0.11560  1.0000
  C   C49       1.0  0.31990  0.24183  0.32412  1.0000
  C   C50       1.0  0.16816  0.23924  0.25890  1.0000
  H   H43       1.0  0.29298  0.24634  0.44037  1.0000
  H   H44       1.0  0.13367  0.01469  0.27872  1.0000
  C   C51       1.0  0.14584  0.40447  0.03993  1.0000
  C   C52       1.0  0.22032  0.29943  0.35306  1.0000
  H   H45       1.0  0.16189  0.18123  0.41481  1.0000
  Fe  Fe11      1.0  0.07579  0.03717  0.02644  1.0000
  S   S16       1.0  0.32644  0.13230  0.18618  1.0000
  H   H46       1.0  0.05655  0.12870  0.17505  1.0000
  C   C53       1.0  0.20224  0.15400  0.40546  1.0000
  C   C54       1.0  0.22941  0.48022  0.22198  1.0000
  C   C55       1.0  0.15622  0.40464  0.01067  1.0000
  H   H47       1.0  0.01711  0.25051  0.16154  1.0000
  H   H48       1.0  0.18191  0.30763  0.13762  1.0000
  C   C56       1.0  0.10142  0.45910  0.23983  1.0000
  H   H49       1.0  0.15345  0.42755  0.14208  1.0000
  C   C57       1.0  0.31241  0.00161  0.99565  1.0000
  H   H50       1.0  0.26899  0.26865  0.02237  1.0000
  C   C58       1.0  0.02960  0.32924  0.15659  1.0000
  C   C59       1.0  0.10110  0.26142  0.29973  1.0000
  C   C60       1.0  0.03635  0.33548  0.18614  1.0000
  H   H51       1.0  0.24496  0.24611  0.40403  1.0000
  C   C61       1.0  0.17750  0.21834  0.30794  1.0000
  S   S17       1.0  0.11467  0.06145  0.00241  1.0000
  C   C62       1.0  0.08416  0.27344  0.25008  1.0000
  H   H52       1.0  0.11714  0.26492  0.31763  1.0000
  C   C63       1.0  0.17719  0.35863  0.05028  1.0000
  C   C64       1.0  0.03133  0.27990  0.19806  1.0000
  H   H53       1.0  0.21712  0.44916  0.12764  1.0000
  H   H54       1.0  0.24449  0.13245  0.39200  1.0000
  C   C65       1.0  0.26458  0.99858  0.10655  1.0000
  H   H55       1.0  0.19636  0.13553  0.42103  1.0000
  C   C66       1.0  0.21781  0.20252  0.36601  1.0000
  H   H56       1.0  0.28338  0.37141  0.15241  1.0000
  C   C67       1.0  0.16024  0.21883  0.28196  1.0000
  P   P2        1.0  0.22830  0.23505  0.34234  1.0000
  C   C68       1.0  0.31928  0.14689  0.33810  1.0000
  C   C69       1.0  0.19323  0.25927  0.26186  1.0000
  S   S18       1.0  0.00629  0.24469  0.36319  1.0000
  S   S19       1.0  0.04632  0.16873  0.33910  1.0000
  C   C70       1.0  0.29164  0.24421  0.33845  1.0000
  S   S20       1.0  0.08100  0.01890  0.07257  1.0000
  H   H57       1.0  0.17110  0.20199  0.32521  1.0000
  H   H58       1.0  0.07531  0.11634  0.09070  1.0000
  C   C71       1.0  0.21075  0.25856  0.28755  1.0000
  C   C72       1.0  0.23855  0.26841  0.39428  1.0000
  H   H59       1.0  0.07943  0.30509  0.09184  1.0000
  C   C73       1.0  0.23979  0.29546  0.41172  1.0000
  H   H60       1.0  0.12396  0.32131  0.06182  1.0000
  H   H61       1.0  0.17040  0.07359  0.97009  1.0000
  H   H62       1.0  0.27144  0.31439  0.14912  1.0000
  C   C74       1.0  0.18277  0.17970  0.40191  1.0000
  H   H63       1.0  0.14809  0.42228  0.99526  1.0000
  H   H64       1.0  0.14058  0.20350  0.27975  1.0000
  C   C75       1.0  0.31817  0.18254  0.40227  1.0000
  C   C76       1.0  0.22162  0.32645  0.37055  1.0000
  C   C77       1.0  0.22878  0.27016  0.36477  1.0000
  H   H65       1.0  0.15482  0.23974  0.23877  1.0000
  H   H66       1.0  0.21447  0.39145  0.08800  1.0000
  H   H67       1.0  0.13750  0.43092  0.30090  1.0000
  Fe  Fe12      1.0  0.32329  0.09918  0.22486  1.0000
  H   H68       1.0  0.14853  0.38209  0.08245  1.0000
  C   C78       1.0  0.21318  0.13915  0.17052  1.0000
  C   C79       1.0  0.22308  0.13502  0.19958  1.0000
  C   C80       1.0  0.20976  0.11181  0.21733  1.0000
  C   C81       1.0  0.18667  0.09259  0.20602  1.0000
  C   C82       1.0  0.17681  0.09622  0.17667  1.0000
  C   C83       1.0  0.19021  0.11982  0.15904  1.0000
  P   P3        1.0  0.14855  0.06963  0.16145  1.0000
  C   C84       1.0  0.16452  0.03070  0.15677  1.0000
  C   C85       1.0  0.11481  0.06656  0.18460  1.0000
  C   C86       1.0  0.10572  0.29686  0.13126  1.0000
  C   C87       1.0  0.27947  0.03228  0.23696  1.0000
  H   H69       1.0  0.28086  0.12970  0.31309  1.0000
  C   C88       1.0  0.12728  0.31479  0.08475  1.0000
  C   C89       1.0  0.11006  0.08694  0.20859  1.0000
  C   C90       1.0  0.15167  0.01007  0.13603  1.0000
  H   H70       1.0  0.26315  0.03895  0.07723  1.0000
  H   H71       1.0  0.19938  0.27519  0.24411  1.0000
  C   C91       1.0  0.14929  0.47397  0.27808  1.0000
  C   C92       1.0  0.18932  0.02029  0.17389  1.0000
  C   C93       1.0  0.13640  0.08319  0.12543  1.0000
  C   C94       1.0  0.15522  0.07853  0.10062  1.0000
  C   C95       1.0  0.14537  0.08778  0.07253  1.0000
  C   C96       1.0  0.11675  0.10177  0.06904  1.0000
  C   C97       1.0  0.09794  0.10650  0.09356  1.0000
  C   C98       1.0  0.10775  0.09747  0.12167  1.0000
  H   H72       1.0  0.22360  0.15717  0.15679  1.0000
  H   H73       1.0  0.24133  0.14955  0.20827  1.0000
  H   H74       1.0  0.21795  0.10823  0.23968  1.0000
  H   H75       1.0  0.17693  0.07445  0.22005  1.0000
  H   H76       1.0  0.18322  0.12337  0.13638  1.0000
  H   H77       1.0  0.09378  0.03053  0.15763  1.0000
  C   C99       1.0  0.23129  0.32447  0.39988  1.0000
  H   H78       1.0  0.12673  0.10466  0.21426  1.0000
  H   H79       1.0  0.13253  0.01716  0.12247  1.0000
  C   C100      1.0  0.20296  0.23826  0.31096  1.0000
  C   C101      1.0  0.26903  0.21050  0.30132  1.0000
  H   H80       1.0  0.20029  0.03535  0.18976  1.0000
  H   H81       1.0  0.17729  0.06735  0.10293  1.0000
  H   H82       1.0  0.15948  0.08348  0.05322  1.0000
  H   H83       1.0  0.10886  0.10835  0.04720  1.0000
  C   C102      1.0  0.25168  0.01582  0.23861  1.0000
  H   H84       1.0  0.09243  0.10098  0.14015  1.0000
  C   C103      1.0  0.02252  0.29857  0.14790  1.0000
  H   H85       1.0  0.07190  0.22845  0.17740  1.0000
  H   H86       1.0  0.24927  0.31392  0.05046  1.0000
  C   C104      1.0  0.08300  0.08523  0.22512  1.0000
  H   H87       1.0  0.31229  0.15806  0.39919  1.0000
  H   H88       1.0  0.23202  0.34539  0.41344  1.0000
  C   C105      1.0  0.18442  0.26937  0.04833  1.0000
  H   H89       1.0  0.10104  0.45755  0.96628  1.0000
  C   C106      1.0  0.29724  0.20826  0.28708  1.0000
  H   H90       1.0  0.09493  0.41798  0.26701  1.0000
  C   C107      1.0  0.26618  0.36313  0.13708  1.0000
  C   C108      1.0  0.27199  0.05283  0.12199  1.0000
  C   C109      1.0  0.19576  0.24386  0.03228  1.0000
  P   P4        1.0  0.18922  0.32817  0.07561  1.0000
  C   C110      1.0  0.27641  0.04283  0.15111  1.0000
  H   H91       1.0  0.28997  0.25845  0.35814  1.0000
  H   H92       1.0  0.17535  0.22385  0.37999  1.0000
  C   C111      1.0  0.22690  0.37428  0.10085  1.0000
  H   H93       1.0  0.21474  0.34888  0.36127  1.0000
  C   C112      1.0  0.25945  0.33110  0.13525  1.0000
  H   H94       1.0  0.13974  0.45175  0.18934  1.0000
  H   H95       1.0  0.23146  0.29565  0.11542  1.0000
  C   C113      1.0  0.25022  0.38463  0.11961  1.0000
  C   C114      1.0  0.30687  0.01549  0.23610  1.0000
  C   C115      1.0  0.25108  0.46951  0.20160  1.0000
  C   C116      1.0  0.13438  0.46412  0.16911  1.0000
  C   C117      1.0  0.07694  0.24027  0.30300  1.0000
  H   H96       1.0  0.12931  0.42178  0.04717  1.0000
  C   C118      1.0  0.06035  0.39391  0.98926  1.0000
  H   H97       1.0  0.32516  0.00920  0.97631  1.0000
  H   H98       1.0  0.29676  0.47734  0.00428  1.0000
  C   C119      1.0  0.23413  0.29443  0.04565  1.0000
  C   C120      1.0  0.31570  0.09447  0.31767  1.0000
  C   C121      1.0  0.13469  0.29768  0.14398  1.0000
  H   H99       1.0  0.21155  0.46462  0.22967  1.0000
  C   C122      1.0  0.15658  0.38180  0.05978  1.0000
  C   C123      1.0  0.15991  0.30712  0.12717  1.0000
  H   H100      1.0  0.08623  0.28993  0.14451  1.0000
  H   H101      1.0  0.16817  0.47932  0.29265  1.0000
  H   H102      1.0  0.24710  0.29379  0.43454  1.0000
  C   C124      1.0  0.21964  0.34213  0.09926  1.0000
  H   H103      1.0  0.05147  0.38331  0.00934  1.0000
  S   S21       1.0  0.27911  0.07368  0.23535  1.0000
  C   C125      1.0  0.16818  0.04845  0.97305  1.0000
  C   C126      1.0  0.06025  0.20787  0.18601  1.0000
  H   H104      1.0  0.20994  0.01884  0.07398  1.0000
  C   C127      1.0  0.26583  0.22909  0.32673  1.0000
  H   H105      1.0  0.16583  0.47015  0.02682  1.0000
  H   H106      1.0  0.08245  0.17640  0.15545  1.0000
  C   C128      1.0  0.09150  0.99535  0.29568  1.0000
  H   H107      1.0  0.03710  0.21989  0.28349  1.0000
  H   H108      1.0  0.02955  0.34830  0.14058  1.0000
  C   C129      1.0  0.19049  0.20385  0.38223  1.0000
  H   H109      1.0  0.16078  0.26903  0.05528  1.0000
  H   H110      1.0  0.18092  0.22422  0.02709  1.0000
  C   C130      1.0  0.15652  0.31595  0.09749  1.0000
  C   C131      1.0  0.17730  0.38219  0.00127  1.0000
  C   C132      1.0  0.20363  0.29473  0.05541  1.0000
  H   H111      1.0  0.12036  0.99404  0.00323  1.0000
  C   C133      1.0  0.19976  0.99641  0.06875  1.0000
  C   C134      1.0  0.18771  0.35917  0.02093  1.0000
  S   S22       1.0  0.02716  0.19985  0.41878  1.0000
  H   H112      1.0  0.07445  0.22697  0.32323  1.0000
  H   H113      1.0  0.30610  0.46577  0.24836  1.0000
  H   H114      1.0  0.07946  0.10100  0.24358  1.0000
  H   H115      1.0  0.04135  0.35936  0.19299  1.0000
  C   C135      1.0  0.01106  0.15177  0.32927  1.0000
  C   C136      1.0  0.13994  0.00370  0.99181  1.0000
  C   C137      1.0  0.06014  0.06385  0.21736  1.0000
  H   H116      1.0  0.31824  0.99811  0.07034  1.0000
  C   C138      1.0  0.26871  0.98885  0.13591  1.0000
  C   C139      1.0  0.32483  0.00522  0.02379  1.0000
  C   C140      1.0  0.05876  0.25353  0.25390  1.0000
  C   C141      1.0  0.30710  0.23231  0.42575  1.0000
  C   C142      1.0  0.05209  0.15148  0.18485  1.0000
  C   C143      1.0  0.01034  0.12604  0.31002  1.0000
  S   S23       1.0  0.02915  0.06793  0.12445  1.0000
  H   H117      1.0  0.28108  0.05982  0.16838  1.0000
  H   H118      1.0  0.03135  0.11759  0.30027  1.0000
  S   S24       1.0  0.05160  0.99451  0.00927  1.0000
  C   C144      1.0  0.33334  0.24525  0.41299  1.0000
  C   C145      1.0  0.10664  0.99392  0.24423  1.0000
  C   C146      1.0  0.21213  0.47209  0.11836  1.0000
  H   H119      1.0  0.29055  0.48203  0.17560  1.0000
  C   C147      1.0  0.20030  0.98963  0.17088  1.0000
  C   C148      1.0  0.03658  0.31108  0.20692  1.0000
  H   H120      1.0  0.27839  0.00305  0.18044  1.0000
  S   S25       1.0  0.02455  0.48163  0.00512  1.0000
  H   H121      1.0  0.14628  0.31396  0.45822  1.0000
  C   C149      1.0  0.11263  0.00253  0.27341  1.0000
  H   H122      1.0  0.02102  0.13303  0.21766  1.0000
  C   C150      1.0  0.16867  0.99533  0.06165  1.0000
  H   H123      1.0  0.01646  0.29390  0.12514  1.0000
  C   C151      1.0  0.18800  0.99576  0.96574  1.0000
  H   H124      1.0  0.26861  0.47116  0.05146  1.0000
  C   C152      1.0  0.20826  0.47595  0.08790  1.0000
  H   H125      1.0  0.33130  0.43800  0.20736  1.0000
  C   C153      1.0  0.32988  0.47068  0.24330  1.0000
  H   H126      1.0  0.01017  0.18458  0.23978  1.0000
  H   H127      1.0  0.00434  0.11918  0.38768  1.0000
  C   C154      1.0  0.11871  0.48645  0.23485  1.0000
  C   C155      1.0  0.08802  0.43592  0.96472  1.0000
  H   H128      1.0  0.20517  0.38398  0.81849  1.0000
  C   C156      1.0  0.01668  0.23880  0.72137  1.0000
  Fe  Fe13      1.0  0.27424  0.03174  0.87238  1.0000
  C   C157      1.0  0.14110  0.31985  0.53330  1.0000
  S   S26       1.0  0.26439  0.07766  0.84925  1.0000
  H   H129      1.0  0.01238  0.33798  0.51763  1.0000
  H   H130      1.0  0.03609  0.42662  0.89077  1.0000
  S   S27       1.0  0.24339  0.42080  0.85674  1.0000
  H   H131      1.0  0.20640  0.43991  0.94101  1.0000
  H   H132      1.0  0.08784  0.25762  0.54833  1.0000
  Fe  Fe14      1.0  0.32278  0.27206  0.53064  1.0000
  S   S28       1.0  0.30023  0.22467  0.52772  1.0000
  C   C158      1.0  0.21209  0.43122  0.83420  1.0000
  Fe  Fe15      1.0  0.26630  0.30250  0.55940  1.0000
  S   S29       1.0  0.23925  0.25773  0.55858  1.0000
  S   S30       1.0  0.24730  0.34836  0.57664  1.0000
  Fe  Fe16      1.0  0.28299  0.23502  0.57361  1.0000
  S   S31       1.0  0.28220  0.20386  0.61406  1.0000
  Fe  Fe17      1.0  0.25859  0.25172  0.51299  1.0000
  H   H133      1.0  0.00826  0.40932  0.69470  1.0000
  S   S32       1.0  0.30848  0.28043  0.57779  1.0000
  S   S33       1.0  0.28262  0.29843  0.51250  1.0000
  H   H134      1.0  0.16907  0.38749  0.64516  1.0000
  H   H135      1.0  0.19899  0.07294  0.84525  1.0000
  P   P5        1.0  0.10063  0.43743  0.90442  1.0000
  C   C159      1.0  0.32028  0.16892  0.64898  1.0000
  C   C160      1.0  0.03647  0.19138  0.57263  1.0000
  S   S34       1.0  0.02587  0.34012  0.75480  1.0000
  S   S35       1.0  0.07044  0.37007  0.68497  1.0000
  C   C161      1.0  0.19401  0.32138  0.51689  1.0000
  C   C162      1.0  0.09757  0.42060  0.84489  1.0000
  C   C163      1.0  0.27361  0.01950  0.71021  1.0000
  S   S36       1.0  0.11222  0.36853  0.74603  1.0000
  C   C164      1.0  0.14755  0.39458  0.89350  1.0000
  C   C165      1.0  0.02274  0.30119  0.74164  1.0000
  H   H136      1.0  0.08433  0.20121  0.56595  1.0000
  C   C166      1.0  0.03787  0.25937  0.70820  1.0000
  C   C167      1.0  0.04063  0.29056  0.71805  1.0000
  C   C168      1.0  0.28843  0.12918  0.82227  1.0000
  H   H137      1.0  0.05220  0.25122  0.69030  1.0000
  H   H138      1.0  0.05702  0.30614  0.70771  1.0000
  H   H139      1.0  0.15831  0.99346  0.68309  1.0000
  H   H140      1.0  0.10864  0.03799  0.82971  1.0000
  C   C169      1.0  0.03866  0.02110  0.90934  1.0000
  C   C170      1.0  0.21426  0.45045  0.69613  1.0000
  C   C171      1.0  0.19133  0.23999  0.47335  1.0000
  C   C172      1.0  0.15690  0.06824  0.65641  1.0000
  S   S37       1.0  0.13164  0.45773  0.77458  1.0000
  H   H141      1.0  0.04878  0.04001  0.75072  1.0000
  H   H142      1.0  0.06048  0.39916  0.62350  1.0000
  Fe  Fe18      1.0  0.06266  0.37009  0.73379  1.0000
  C   C173      1.0  0.16260  0.44700  0.79727  1.0000
  H   H143      1.0  0.30477  0.17464  0.66681  1.0000
  S   S38       1.0  0.27522  0.44579  0.93558  1.0000
  C   C174      1.0  0.22130  0.34452  0.60618  1.0000
  C   C175      1.0  0.20406  0.37054  0.61533  1.0000
  C   C176      1.0  0.18256  0.36751  0.63837  1.0000
  C   C177      1.0  0.17854  0.33848  0.65243  1.0000
  C   C178      1.0  0.19611  0.31267  0.64353  1.0000
  C   C179      1.0  0.21727  0.31560  0.62036  1.0000
  H   H144      1.0  0.20708  0.39294  0.60432  1.0000
  Fe  Fe19      1.0  0.07240  0.42277  0.68898  1.0000
  H   H145      1.0  0.19326  0.29024  0.65451  1.0000
  H   H146      1.0  0.23059  0.29549  0.61362  1.0000
  H   H147      1.0  0.06421  0.48461  0.71423  1.0000
  C   C180      1.0  0.14328  0.23249  0.49956  1.0000
  C   C181      1.0  0.17541  0.23433  0.49970  1.0000
  C   C182      1.0  0.04254  0.00453  0.71744  1.0000
  C   C183      1.0  0.08121  0.42535  0.87119  1.0000
  C   C184      1.0  0.13033  0.40898  0.59185  1.0000
  H   H148      1.0  0.13111  0.22749  0.51984  1.0000
  H   H149      1.0  0.18787  0.23063  0.51999  1.0000
  S   S39       1.0  0.28284  0.02747  0.92113  1.0000
  C   C185      1.0  0.32154  0.08375  0.82234  1.0000
  C   C186      1.0  0.02260  0.28861  0.52038  1.0000
  S   S40       1.0  0.12326  0.42416  0.69571  1.0000
  C   C187      1.0  0.13330  0.37974  0.57810  1.0000
  H   H150      1.0  0.33539  0.36952  0.71229  1.0000
  H   H151      1.0  0.25202  0.46037  0.66696  1.0000
  H   H152      1.0  0.18925  0.10459  0.66737  1.0000
  H   H153      1.0  0.20733  0.42938  0.68443  1.0000
  C   C188      1.0  0.29163  0.34666  0.71352  1.0000
  H   H154      1.0  0.13115  0.38098  0.88104  1.0000
  H   H155      1.0  0.32042  0.03266  0.70130  1.0000
  H   H156      1.0  0.24933  0.32098  0.70881  1.0000
  H   H157      1.0  0.26733  0.14049  0.82866  1.0000
  C   C189      1.0  0.11511  0.29199  0.61962  1.0000
  C   C190      1.0  0.05575  0.32978  0.53874  1.0000
  C   C191      1.0  0.01689  0.48334  0.78934  1.0000
  C   C192      1.0  0.18462  0.31860  0.48756  1.0000
  H   H158      1.0  0.09549  0.20566  0.61951  1.0000
  H   H159      1.0  0.17161  0.22619  0.59701  1.0000
  H   H160      1.0  0.10175  0.43857  0.61895  1.0000
  C   C193      1.0  0.20181  0.46228  0.83256  1.0000
  C   C194      1.0  0.33054  0.41251  0.78577  1.0000
  C   C195      1.0  0.31022  0.14608  0.80602  1.0000
  C   C196      1.0  0.19754  0.40810  0.81720  1.0000
  C   C197      1.0  0.17703  0.47010  0.81433  1.0000
  H   H161      1.0  0.22159  0.39068  0.91589  1.0000
  C   C198      1.0  0.16506  0.01785  0.68014  1.0000
  S   S41       1.0  0.04609  0.45589  0.65926  1.0000
  C   C199      1.0  0.17721  0.38298  0.89677  1.0000
  C   C200      1.0  0.17241  0.32190  0.53967  1.0000
  C   C201      1.0  0.17884  0.06061  0.85300  1.0000
  C   C202      1.0  0.19019  0.03016  0.69553  1.0000
  H   H162      1.0  0.10795  0.31517  0.49785  1.0000
  C   C203      1.0  0.01279  0.27573  0.62308  1.0000
  H   H163      1.0  0.01698  0.07375  0.96175  1.0000
  H   H164      1.0  0.03163  0.26363  0.61252  1.0000
  H   H165      1.0  0.01590  0.31642  0.59488  1.0000
  H   H166      1.0  0.04863  0.03089  0.84632  1.0000
  C   C204      1.0  0.17345  0.16498  0.63266  1.0000
  C   C205      1.0  0.20285  0.17765  0.63473  1.0000
  C   C206      1.0  0.21404  0.18734  0.66209  1.0000
  C   C207      1.0  0.19605  0.18403  0.68750  1.0000
  C   C208      1.0  0.16670  0.17070  0.68579  1.0000
  C   C209      1.0  0.15531  0.16171  0.65803  1.0000
  P   P6        1.0  0.14384  0.16566  0.71892  1.0000
  C   C210      1.0  0.11350  0.13797  0.71127  1.0000
  C   C211      1.0  0.16689  0.14957  0.74850  1.0000
  C   C212      1.0  0.19441  0.13388  0.74233  1.0000
  C   C213      1.0  0.21256  0.12248  0.76533  1.0000
  C   C214      1.0  0.20297  0.12551  0.79463  1.0000
  C   C215      1.0  0.17518  0.14011  0.80096  1.0000
  C   C216      1.0  0.15723  0.15219  0.77804  1.0000
  C   C217      1.0  0.08532  0.14857  0.70034  1.0000
  C   C218      1.0  0.06235  0.12711  0.69306  1.0000
  C   C219      1.0  0.06747  0.09488  0.69621  1.0000
  C   C220      1.0  0.09536  0.08407  0.70718  1.0000
  C   C221      1.0  0.11835  0.10551  0.71466  1.0000
  C   C222      1.0  0.12805  0.20306  0.73041  1.0000
  C   C223      1.0  0.10173  0.20397  0.74828  1.0000
  C   C224      1.0  0.08962  0.23275  0.75742  1.0000
  C   C225      1.0  0.10371  0.26087  0.74896  1.0000
  C   C226      1.0  0.12978  0.26026  0.73114  1.0000
  C   C227      1.0  0.14196  0.23154  0.72191  1.0000
  H   H167      1.0  0.16481  0.15768  0.61134  1.0000
  H   H168      1.0  0.21709  0.18012  0.61515  1.0000
  H   H169      1.0  0.23686  0.19728  0.66350  1.0000
  H   H170      1.0  0.20521  0.19165  0.70853  1.0000
  H   H171      1.0  0.13263  0.15186  0.65585  1.0000
  H   H172      1.0  0.20219  0.13061  0.71987  1.0000
  H   H173      1.0  0.23434  0.11166  0.76051  1.0000
  H   H174      1.0  0.21721  0.11666  0.81240  1.0000
  H   H175      1.0  0.16773  0.14234  0.82373  1.0000
  H   H176      1.0  0.13591  0.16358  0.78352  1.0000
  H   H177      1.0  0.08093  0.17342  0.69753  1.0000
  H   H178      1.0  0.04043  0.13552  0.68524  1.0000
  H   H179      1.0  0.04972  0.07829  0.69032  1.0000
  H   H180      1.0  0.09906  0.05900  0.70994  1.0000
  H   H181      1.0  0.13987  0.09662  0.72289  1.0000
  H   H182      1.0  0.09029  0.18250  0.75503  1.0000
  H   H183      1.0  0.06895  0.23331  0.77067  1.0000
  H   H184      1.0  0.09416  0.28317  0.75590  1.0000
  H   H185      1.0  0.14051  0.28217  0.72439  1.0000
  H   H186      1.0  0.16220  0.23196  0.70823  1.0000
  H   H187      1.0  0.14856  0.42614  0.59001  1.0000
  H   H188      1.0  0.09541  0.40598  0.79951  1.0000
  H   H189      1.0  0.10030  0.31076  0.62680  1.0000
  Fe  Fe20      1.0  0.11134  0.42125  0.74399  1.0000
  H   H190      1.0  0.15392  0.37500  0.56574  1.0000
  H   H191      1.0  0.26610  0.29309  0.66358  1.0000
  C   C228      1.0  0.13938  0.42344  0.90624  1.0000
  H   H192      1.0  0.18386  0.36136  0.88597  1.0000
  C   C229      1.0  0.31479  0.18058  0.62046  1.0000
  H   H193      1.0  0.06057  0.35463  0.54093  1.0000
  C   C230      1.0  0.07254  0.20035  0.61219  1.0000
  C   C231      1.0  0.00707  0.04734  0.72660  1.0000
  S   S42       1.0  0.23167  0.23992  0.47188  1.0000
  C   C232      1.0  0.28133  0.30967  0.67426  1.0000
  H   H194      1.0  0.15462  0.46112  0.93485  1.0000
  C   C233      1.0  0.27720  0.06154  0.75737  1.0000
  C   C234      1.0  0.30249  0.05714  0.73900  1.0000
  C   C235      1.0  0.12735  0.02717  0.87294  1.0000
  C   C236      1.0  0.03414  0.03135  0.73331  1.0000
  H   H195      1.0  0.02472  0.01155  0.80042  1.0000
  H   H196      1.0  0.31712  0.30307  0.64248  1.0000
  H   H197      1.0  0.32610  0.05980  0.82882  1.0000
  H   H198      1.0  0.31568  0.36538  0.62047  1.0000
  S   S43       1.0  0.08670  0.23320  0.47362  1.0000
  H   H199      1.0  0.30581  0.17031  0.80010  1.0000
  H   H200      1.0  0.11810  0.27267  0.66354  1.0000
  C   C237      1.0  0.05096  0.40536  0.81992  1.0000
  H   H201      1.0  0.04035  0.24160  0.52374  1.0000
  H   H202      1.0  0.00920  0.47682  0.76746  1.0000
  C   C238      1.0  0.19864  0.06168  0.69091  1.0000
  H   H203      1.0  0.16195  0.39798  0.78565  1.0000
  C   C239      1.0  0.30074  0.03602  0.71550  1.0000
  C   C240      1.0  0.12519  0.29005  0.59018  1.0000
  C   C241      1.0  0.04932  0.42176  0.87111  1.0000
  C   C242      1.0  0.10071  0.47976  0.90344  1.0000
  C   C243      1.0  0.10409  0.41596  0.60818  1.0000
  H   H204      1.0  0.27864  0.07780  0.77563  1.0000
  C   C244      1.0  0.02849  0.32046  0.52524  1.0000
  C   C245      1.0  0.32986  0.33753  0.67549  1.0000
  H   H205      1.0  0.21328  0.48045  0.84489  1.0000
  C   C246      1.0  0.07098  0.27528  0.54302  1.0000
  H   H206      1.0  0.03944  0.39701  0.80024  1.0000
  H   H207      1.0  0.12197  0.42478  0.84388  1.0000
  C   C247      1.0  0.04934  0.19526  0.63288  1.0000
  H   H208      1.0  0.00813  0.12484  0.60684  1.0000
  Fe  Fe21      1.0  0.25837  0.45736  0.88986  1.0000
  C   C248      1.0  0.15352  0.05714  0.83457  1.0000
  S   S44       1.0  0.15205  0.33322  0.68134  1.0000
  C   C249      1.0  0.12515  0.27023  0.64066  1.0000
  H   H209      1.0  0.21813  0.07174  0.70212  1.0000
  C   C250      1.0  0.05412  0.00755  0.83844  1.0000
  H   H210      1.0  0.06580  0.34711  0.60027  1.0000
  Fe  Fe22      1.0  0.12024  0.37133  0.69698  1.0000
  H   H211      1.0  0.14401  0.08291  0.64135  1.0000
  C   C251      1.0  0.29421  0.43203  0.74942  1.0000
  C   C252      1.0  0.27055  0.41603  0.76380  1.0000
  C   C253      1.0  0.27692  0.39750  0.78853  1.0000
  C   C254      1.0  0.30674  0.39549  0.79932  1.0000
  H   H212      1.0  0.24729  0.48555  0.79005  1.0000
  H   H213      1.0  0.28697  0.46372  0.82201  1.0000
  C   C255      1.0  0.12777  0.04063  0.84452  1.0000
  C   C256      1.0  0.01963  0.03771  0.92859  1.0000
  H   H214      1.0  0.00977  0.40833  0.84576  1.0000
  C   C257      1.0  0.07701  0.30718  0.54817  1.0000
  H   H215      1.0  0.32347  0.07002  0.74315  1.0000
  H   H216      1.0  0.15298  0.02102  0.91336  1.0000
  S   S45       1.0  0.01357  0.19990  0.70820  1.0000
  C   C258      1.0  0.06765  0.39254  0.93626  1.0000
  C   C259      1.0  0.12692  0.23654  0.47317  1.0000
  C   C260      1.0  0.29392  0.09805  0.83064  1.0000
  S   S46       1.0  0.23891  0.99348  0.87200  1.0000
  H   H217      1.0  0.33269  0.41919  0.90311  1.0000
  H   H218      1.0  0.13855  0.48267  0.87255  1.0000
  C   C261      1.0  0.14830  0.03693  0.66094  1.0000
  H   H219      1.0  0.12869  0.02728  0.64951  1.0000
  H   H220      1.0  0.31087  0.38091  0.81855  1.0000
  C   C262      1.0  0.08198  0.05176  0.92586  1.0000
  H   H221      1.0  0.03265  0.18888  0.54918  1.0000
  H   H222      1.0  0.28930  0.44641  0.73024  1.0000
  H   H223      1.0  0.24726  0.41803  0.75592  1.0000
  H   H224      1.0  0.25864  0.38508  0.79978  1.0000
  C   C263      1.0  0.33162  0.36065  0.57605  1.0000
  H   H225      1.0  0.20145  0.31722  0.47002  1.0000
  H   H226      1.0  0.14544  0.00421  0.73411  1.0000
  C   C264      1.0  0.08252  0.41019  0.81953  1.0000
  C   C265      1.0  0.17297  0.41597  0.79866  1.0000
  C   C266      1.0  0.04392  0.26609  0.52915  1.0000
  H   H227      1.0  0.17942  0.44579  0.72958  1.0000
  S   S47       1.0  0.06061  0.42259  0.73707  1.0000
  C   C267      1.0  0.13180  0.31740  0.50366  1.0000
  S   S48       1.0  0.31240  0.00019  0.85918  1.0000
  C   C268      1.0  0.04819  0.48431  0.79529  1.0000
  C   C269      1.0  0.06617  0.19806  0.58207  1.0000
  H   H228      1.0  0.28440  0.35850  0.73347  1.0000
  P   P7        1.0  0.21196  0.00525  0.72008  1.0000
  C   C270      1.0  0.08081  0.39365  0.61083  1.0000
  H   H229      1.0  0.19811  0.05047  0.89565  1.0000
  C   C271      1.0  0.18218  0.08053  0.67125  1.0000
  H   H230      1.0  0.04391  0.35680  0.96129  1.0000
  C   C272      1.0  0.08386  0.36425  0.59746  1.0000
  C   C273      1.0  0.08313  0.42147  0.93728  1.0000
  C   C274      1.0  0.19846  0.39941  0.91375  1.0000
  H   H231      1.0  0.10622  0.05679  0.92620  1.0000
  C   C275      1.0  0.03429  0.41157  0.84562  1.0000
  C   C276      1.0  0.02365  0.99360  0.69483  1.0000
  C   C277      1.0  0.19007  0.42741  0.92752  1.0000
  C   C278      1.0  0.25003  0.04521  0.75215  1.0000
  C   C279      1.0  0.19036  0.99764  0.75359  1.0000
  H   H232      1.0  0.18020  0.32341  0.56232  1.0000
  C   C280      1.0  0.14493  0.26550  0.58208  1.0000
  H   H233      1.0  0.15406  0.06682  0.81241  1.0000
  C   C281      1.0  0.16069  0.43945  0.92380  1.0000
  C   C282      1.0  0.01966  0.18834  0.62352  1.0000
  C   C283      1.0  0.01263  0.18733  0.59327  1.0000
  H   H234      1.0  0.00472  0.23928  0.65535  1.0000
  C   C284      1.0  0.31025  0.31551  0.66227  1.0000
  H   H235      1.0  0.23058  0.04942  0.76645  1.0000
  P   P8        1.0  0.09515  0.00399  0.88558  1.0000
  H   H236      1.0  0.06511  0.38000  0.91563  1.0000
  C   C285      1.0  0.15823  0.99830  0.75368  1.0000
  C   C286      1.0  0.06277  0.06858  0.94481  1.0000
  P   P9        1.0  0.11346  0.31904  0.56315  1.0000
  C   C287      1.0  0.14561  0.24662  0.63261  1.0000
  C   C288      1.0  0.15534  0.24413  0.60328  1.0000
  C   C289      1.0  0.17836  0.04785  0.88145  1.0000
  C   C290      1.0  0.15278  0.03115  0.89138  1.0000
  H   H237      1.0  0.15439  0.23074  0.64923  1.0000
  H   H238      1.0  0.05421  0.19675  0.65629  1.0000
  C   C291      1.0  0.11004  0.35708  0.58073  1.0000
  H   H239      1.0  0.15296  0.26318  0.55955  1.0000
  C   C292      1.0  0.06999  0.02814  0.90763  1.0000
  Fe  Fe23      1.0  0.31941  0.99307  0.90794  1.0000
  H   H240      1.0  0.21810  0.32274  0.52207  1.0000
  C   C293      1.0  0.24798  0.02406  0.72848  1.0000
  C   C294      1.0  0.15353  0.31676  0.48095  1.0000
  C   C295      1.0  0.27193  0.32536  0.69977  1.0000
  C   C296      1.0  0.23938  0.46796  0.68629  1.0000
  C   C297      1.0  0.19084  0.02827  0.96184  1.0000
  H   H241      1.0  0.11710  0.98955  0.77871  1.0000
  C   C298      1.0  0.03167  0.06145  0.94630  1.0000
  C   C299      1.0  0.19839  0.45979  0.72143  1.0000
  H   H242      1.0  0.07223  0.08647  0.95914  1.0000
  C   C300      1.0  0.32567  0.99992  0.78292  1.0000
  C   C301      1.0  0.32407  0.43026  0.76026  1.0000
  C   C302      1.0  0.32052  0.35280  0.70144  1.0000
  C   C303      1.0  0.14186  0.99000  0.77913  1.0000
  Fe  Fe24      1.0  0.31281  0.48088  0.92741  1.0000
  C   C304      1.0  0.33502  0.17314  0.59754  1.0000
  H   H243      1.0  0.21046  0.03778  0.95027  1.0000
  H   H244      1.0  0.02902  0.00231  0.89639  1.0000
  H   H245      1.0  0.06462  0.47871  0.77813  1.0000
  H   H246      1.0  0.27266  0.00356  0.69168  1.0000
  C   C305      1.0  0.29263  0.48293  0.80718  1.0000
  H   H247      1.0  0.33329  0.43293  0.85017  1.0000
  C   C306      1.0  0.33474  0.35835  0.60670  1.0000
  H   H248      1.0  0.31034  0.36884  0.56657  1.0000
  H   H249      1.0  0.22184  0.98856  0.65773  1.0000
  C   C307      1.0  0.04060  0.99675  0.81238  1.0000
  H   H250      1.0  0.31182  0.01525  0.79649  1.0000
  H   H251      1.0  0.33101  0.18207  0.57550  1.0000
  C   C308      1.0  0.05596  0.37905  0.96213  1.0000
  C   C309      1.0  0.33754  0.13191  0.79724  1.0000
  C   C310      1.0  0.07541  0.98879  0.85356  1.0000
  C   C311      1.0  0.20568  0.98910  0.77963  1.0000
  S   S49       1.0  0.07787  0.98702  0.72528  1.0000
  H   H252      1.0  0.06234  0.48546  0.93338  1.0000
  H   H253      1.0  0.23037  0.98754  0.78023  1.0000
  Fe  Fe25      1.0  0.18673  0.85967  0.26469  1.0000
  S   S50       1.0  0.16167  0.84807  0.22296  1.0000
  S   S51       1.0  0.17562  0.83977  0.30977  1.0000
  Fe  Fe26      1.0  0.23487  0.89842  0.23202  1.0000
  S   S52       1.0  0.21416  0.88938  0.18744  1.0000
  S   S53       1.0  0.27930  0.92468  0.23733  1.0000
  Fe  Fe27      1.0  0.16954  0.89848  0.21061  1.0000
  S   S54       1.0  0.13224  0.93152  0.19610  1.0000
  Fe  Fe28      1.0  0.20843  0.83964  0.20387  1.0000
  S   S55       1.0  0.21560  0.79503  0.17766  1.0000
  S   S56       1.0  0.19087  0.91103  0.25422  1.0000
  S   S57       1.0  0.23287  0.84791  0.24647  1.0000
  C   C312      1.0  0.16280  0.98366  0.98116  1.0000
  H   H254      1.0  0.21881  0.98144  0.18466  1.0000
  H   H255      1.0  0.01637  0.54457  0.25818  1.0000
  H   H256      1.0  0.28583  0.59807  0.00091  1.0000
  H   H257      1.0  0.25159  0.67676  0.38692  1.0000
  C   C313      1.0  0.05127  0.78998  0.17722  1.0000
  C   C314      1.0  0.18835  0.71486  0.36487  1.0000
  S   S58       1.0  0.07155  0.92966  0.06906  1.0000
  C   C315      1.0  0.32303  0.90382  0.46128  1.0000
  S   S59       1.0  0.08767  0.54462  0.99340  1.0000
  H   H258      1.0  0.04075  0.87244  0.32980  1.0000
  C   C316      1.0  0.15961  0.48754  0.01047  1.0000
  C   C317      1.0  0.28562  0.51450  0.06988  1.0000
  H   H259      1.0  0.30008  0.86750  0.18696  1.0000
  C   C318      1.0  0.11585  0.57717  0.20862  1.0000
  H   H260      1.0  0.10770  0.67857  0.35444  1.0000
  C   C319      1.0  0.18436  0.59250  0.27703  1.0000
  S   S60       1.0  0.06293  0.73700  0.38768  1.0000
  S   S61       1.0  0.03721  0.80166  0.32991  1.0000
  H   H261      1.0  0.31708  0.71506  0.27822  1.0000
  C   C320      1.0  0.02588  0.77023  0.18083  1.0000
  H   H262      1.0  0.06593  0.97187  0.11840  1.0000
  C   C321      1.0  0.24442  0.61525  0.33050  1.0000
  H   H263      1.0  0.05194  0.80684  0.15921  1.0000
  C   C322      1.0  0.17890  0.57534  0.19852  1.0000
  S   S62       1.0  0.33018  0.71151  0.21133  1.0000
  C   C323      1.0  0.12279  0.52474  0.99109  1.0000
  H   H264      1.0  0.04323  0.87209  0.15008  1.0000
  C   C324      1.0  0.26298  0.88305  0.11677  1.0000
  C   C325      1.0  0.16316  0.97969  0.13276  1.0000
  C   C326      1.0  0.15372  0.64936  0.28722  1.0000
  H   H265      1.0  0.03274  0.59563  0.33647  1.0000
  C   C327      1.0  0.27872  0.96604  0.23763  1.0000
  C   C328      1.0  0.28713  0.89458  0.33704  1.0000
  C   C329      1.0  0.02077  0.61898  0.20490  1.0000
  C   C330      1.0  0.02962  0.67368  0.19256  1.0000
  C   C331      1.0  0.11906  0.49306  0.16958  1.0000
  H   H266      1.0  0.20342  0.57457  0.19496  1.0000
  H   H267      1.0  0.21116  0.49458  0.16079  1.0000
  C   C332      1.0  0.23066  0.56430  0.99914  1.0000
  C   C333      1.0  0.04638  0.66225  0.27933  1.0000
  C   C334      1.0  0.29552  0.63893  0.44645  1.0000
  C   C335      1.0  0.24676  0.77133  0.18818  1.0000
  C   C336      1.0  0.24708  0.73926  0.18082  1.0000
  C   C337      1.0  0.27212  0.72021  0.18858  1.0000
  C   C338      1.0  0.29714  0.73340  0.20322  1.0000
  C   C339      1.0  0.29670  0.76539  0.21059  1.0000
  C   C340      1.0  0.27155  0.78423  0.20330  1.0000
  H   H268      1.0  0.22800  0.72921  0.16900  1.0000
  H   H269      1.0  0.27241  0.69560  0.18271  1.0000
  H   H270      1.0  0.32423  0.67833  0.11398  1.0000
  H   H271      1.0  0.27180  0.80896  0.20861  1.0000
  C   C341      1.0  0.13697  0.82994  0.31542  1.0000
  C   C342      1.0  0.11512  0.83603  0.29367  1.0000
  C   C343      1.0  0.08460  0.82706  0.29815  1.0000
  C   C344      1.0  0.07571  0.81213  0.32449  1.0000
  C   C345      1.0  0.09747  0.80637  0.34637  1.0000
  C   C346      1.0  0.12801  0.81531  0.34185  1.0000
  H   H272      1.0  0.12165  0.84789  0.27350  1.0000
  H   H273      1.0  0.06796  0.83187  0.28119  1.0000
  H   H274      1.0  0.09072  0.79564  0.36706  1.0000
  H   H275      1.0  0.14454  0.81125  0.35908  1.0000
  C   C347      1.0  0.08825  0.92941  0.10444  1.0000
  C   C348      1.0  0.10840  0.90532  0.11275  1.0000
  C   C349      1.0  0.12230  0.90560  0.14082  1.0000
  C   C350      1.0  0.11573  0.92983  0.16068  1.0000
  C   C351      1.0  0.09534  0.95359  0.15236  1.0000
  C   C352      1.0  0.08169  0.95342  0.12442  1.0000
  H   H276      1.0  0.11359  0.88671  0.09731  1.0000
  H   H277      1.0  0.13807  0.88721  0.14702  1.0000
  C   C353      1.0  0.30482  0.63664  0.33253  1.0000
  C   C354      1.0  0.09708  0.57495  0.07455  1.0000
  C   C355      1.0  0.08843  0.58648  0.10219  1.0000
  C   C356      1.0  0.11069  0.59303  0.12340  1.0000
  C   C357      1.0  0.14160  0.58827  0.11688  1.0000
  C   C358      1.0  0.15047  0.57741  0.08885  1.0000
  C   C359      1.0  0.12789  0.56975  0.06811  1.0000
  P   P10       1.0  0.19027  0.57038  0.08070  1.0000
  C   C360      1.0  0.21424  0.59890  0.09879  1.0000
  C   C361      1.0  0.19873  0.53170  0.09503  1.0000
  C   C362      1.0  0.20200  0.52743  0.12563  1.0000
  H   H278      1.0  0.24923  0.55121  0.98933  1.0000
  C   C363      1.0  0.03317  0.90676  0.29543  1.0000
  C   C364      1.0  0.24350  0.59034  0.10844  1.0000
  C   C365      1.0  0.26251  0.61248  0.12179  1.0000
  C   C366      1.0  0.25256  0.64340  0.12552  1.0000
  C   C367      1.0  0.22370  0.65231  0.11541  1.0000
  C   C368      1.0  0.20464  0.63020  0.10184  1.0000
  C   C369      1.0  0.19881  0.57555  0.04185  1.0000
  C   C370      1.0  0.22392  0.56027  0.02909  1.0000
  H   H279      1.0  0.07985  0.56977  0.05808  1.0000
  H   H280      1.0  0.06441  0.58989  0.10723  1.0000
  H   H281      1.0  0.10388  0.60140  0.14500  1.0000
  H   H282      1.0  0.15851  0.59292  0.13373  1.0000
  H   H283      1.0  0.13393  0.55986  0.04685  1.0000
  H   H284      1.0  0.19950  0.54704  0.14060  1.0000
  H   H285      1.0  0.00728  0.77209  0.16529  1.0000
  C   C371      1.0  0.18719  0.96935  0.15036  1.0000
  H   H286      1.0  0.25178  0.56661  0.10558  1.0000
  P   P11       1.0  0.27967  0.85097  0.38251  1.0000
  H   H287      1.0  0.26737  0.66050  0.13599  1.0000
  H   H288      1.0  0.21625  0.67645  0.11785  1.0000
  H   H289      1.0  0.18259  0.63756  0.09358  1.0000
  H   H290      1.0  0.23814  0.54485  0.04204  1.0000
  C   C372      1.0  0.14837  0.69616  0.33223  1.0000
  H   H291      1.0  0.26385  0.56905  0.32534  1.0000
  H   H292      1.0  0.14620  0.57043  0.29903  1.0000
  H   H293      1.0  0.20072  0.91286  0.32979  1.0000
  Fe  Fe29      1.0  0.05376  0.97774  0.05657  1.0000
  C   C373      1.0  0.14397  0.53363  0.96930  1.0000
  H   H294      1.0  0.12164  0.62739  0.21158  1.0000
  C   C374      1.0  0.13037  0.54809  0.20440  1.0000
  H   H295      1.0  0.24083  0.69941  0.43601  1.0000
  C   C375      1.0  0.29198  0.87265  0.10844  1.0000
  C   C376      1.0  0.05867  0.97005  0.25961  1.0000
  H   H296      1.0  0.16145  0.91725  0.04792  1.0000
  H   H297      1.0  0.03418  0.73192  0.31397  1.0000
  C   C377      1.0  0.29680  0.90476  0.41421  1.0000
  C   C378      1.0  0.03044  0.68757  0.29141  1.0000
  C   C379      1.0  0.17220  0.93926  0.05397  1.0000
  Fe  Fe30      1.0  0.01143  0.52846  0.07756  1.0000
  H   H298      1.0  0.16092  0.95863  0.98483  1.0000
  H   H299      1.0  0.33337  0.88389  0.08477  1.0000
  H   H300      1.0  0.21226  0.79741  0.45601  1.0000
  C   C380      1.0  0.25274  0.91266  0.10771  1.0000
  C   C381      1.0  0.18880  0.60089  0.99458  1.0000
  H   H301      1.0  0.10165  0.53101  0.14264  1.0000
  C   C382      1.0  0.05033  0.74566  0.22290  1.0000
  P   P12       1.0  0.25761  0.97011  0.07772  1.0000
  C   C383      1.0  0.29565  0.74276  0.38218  1.0000
  C   C384      1.0  0.31081  0.89189  0.09114  1.0000
  H   H302      1.0  0.32736  0.51092  0.12091  1.0000
  C   C385      1.0  0.13044  0.50120  0.01137  1.0000
  C   C386      1.0  0.18103  0.49688  0.98902  1.0000
  C   C387      1.0  0.07530  0.76588  0.21965  1.0000
  C   C388      1.0  0.07583  0.78804  0.19681  1.0000
  C   C389      1.0  0.26611  0.87945  0.35585  1.0000
  C   C390      1.0  0.01151  0.92498  0.28030  1.0000
  H   H303      1.0  0.19033  0.78266  0.36466  1.0000
  H   H304      1.0  0.07526  0.97176  0.21467  1.0000
  C   C391      1.0  0.30747  0.82736  0.36271  1.0000
  C   C392      1.0  0.21309  0.58453  0.98182  1.0000
  H   H305      1.0  0.23827  0.93926  0.29658  1.0000
  H   H306      1.0  0.03389  0.64271  0.27000  1.0000
  C   C393      1.0  0.01181  0.60775  0.33098  1.0000
  H   H307      1.0  0.21813  0.87573  0.36784  1.0000
  H   H308      1.0  0.24472  0.96750  0.01378  1.0000
  H   H309      1.0  0.31553  0.93560  0.06819  1.0000
  C   C394      1.0  0.19775  0.62095  0.26849  1.0000
  C   C395      1.0  0.17285  0.51941  0.96798  1.0000
  H   H310      1.0  0.21076  0.72506  0.36796  1.0000
  C   C396      1.0  0.25128  0.98275  0.23884  1.0000
  H   H311      1.0  0.09414  0.76443  0.23502  1.0000
  H   H312      1.0  0.09536  0.80357  0.19423  1.0000
  C   C397      1.0  0.30396  0.59834  0.98461  1.0000
  S   S63       1.0  0.03260  0.65274  0.36846  1.0000
  H   H313      1.0  0.17361  0.52527  0.19564  1.0000
  H   H314      1.0  0.30980  0.94613  0.43854  1.0000
  H   H315      1.0  0.30979  0.64143  0.02711  1.0000
  C   C398      1.0  0.06836  0.51837  0.20749  1.0000
  S   S64       1.0  0.25525  0.57061  0.23600  1.0000
  Fe  Fe31      1.0  0.30000  0.59592  0.22803  1.0000
  C   C399      1.0  0.02395  0.88646  0.31814  1.0000
  H   H316      1.0  0.23029  0.92040  0.11455  1.0000
  C   C400      1.0  0.26471  0.63803  0.45477  1.0000
  P   P13       1.0  0.10902  0.51168  0.20410  1.0000
  C   C401      1.0  0.25408  0.53169  0.22277  1.0000
  C   C402      1.0  0.23083  0.51130  0.23239  1.0000
  C   C403      1.0  0.04640  0.71230  0.30447  1.0000
  S   S65       1.0  0.00904  0.55088  0.03289  1.0000
  C   C404      1.0  0.31833  0.88296  0.17959  1.0000
  H   H317      1.0  0.29991  0.84972  0.11555  1.0000
  C   C405      1.0  0.14095  0.69508  0.38538  1.0000
  H   H318      1.0  0.22977  0.97026  0.23990  1.0000
  C   C406      1.0  0.07829  0.66172  0.28006  1.0000
  C   C407      1.0  0.24843  0.82569  0.39428  1.0000
  C   C408      1.0  0.22964  0.81163  0.37294  1.0000
  C   C409      1.0  0.20504  0.79263  0.38141  1.0000
  C   C410      1.0  0.19886  0.78737  0.41132  1.0000
  C   C411      1.0  0.21726  0.80128  0.43278  1.0000
  C   C412      1.0  0.24176  0.82057  0.42439  1.0000
  C   C413      1.0  0.30052  0.92138  0.08178  1.0000
  Fe  Fe32      1.0  0.02496  0.70143  0.38630  1.0000
  H   H319      1.0  0.21411  0.51942  0.24821  1.0000
  H   H320      1.0  0.24844  0.86808  0.13027  1.0000
  C   C414      1.0  0.29885  0.49508  0.02131  1.0000
  C   C415      1.0  0.02497  0.74829  0.20411  1.0000
  C   C416      1.0  0.31845  0.63805  0.04919  1.0000
  H   H321      1.0  0.12663  0.68968  0.40426  1.0000
  C   C417      1.0  0.30986  0.85504  0.43700  1.0000
  H   H322      1.0  0.15626  0.51482  0.25114  1.0000
  C   C418      1.0  0.20132  0.50561  0.07631  1.0000
  H   H323      1.0  0.30019  0.77696  0.41703  1.0000
  C   C419      1.0  0.29866  0.60457  0.32945  1.0000
  S   S66       1.0  0.00753  0.55395  0.12112  1.0000
  H   H324      1.0  0.28508  0.60560  0.12911  1.0000
  H   H325      1.0  0.23311  0.81632  0.34968  1.0000
  H   H326      1.0  0.01503  0.82908  0.27637  1.0000
  H   H327      1.0  0.17946  0.77306  0.41795  1.0000
  C   C420      1.0  0.28299  0.49160  0.04795  1.0000
  H   H328      1.0  0.25486  0.83158  0.44166  1.0000
  C   C421      1.0  0.30043  0.81636  0.33423  1.0000
  H   H329      1.0  0.19623  0.57061  0.27279  1.0000
  H   H330      1.0  0.31131  0.88952  0.33851  1.0000
  P   P14       1.0  0.13552  0.68627  0.29569  1.0000
  C   C422      1.0  0.14603  0.71595  0.26911  1.0000
  C   C423      1.0  0.07822  0.71152  0.30592  1.0000
  C   C424      1.0  0.25047  0.64740  0.33310  1.0000
  C   C425      1.0  0.14868  0.74749  0.27771  1.0000
  C   C426      1.0  0.15524  0.77061  0.25668  1.0000
  C   C427      1.0  0.15880  0.76254  0.22697  1.0000
  C   C428      1.0  0.15585  0.73128  0.21819  1.0000
  C   C429      1.0  0.14910  0.70805  0.23913  1.0000
  H   H331      1.0  0.09008  0.64231  0.26983  1.0000
  C   C430      1.0  0.26991  0.73948  0.42949  1.0000
  H   H332      1.0  0.09011  0.73083  0.31647  1.0000
  H   H333      1.0  0.14539  0.75444  0.30053  1.0000
  H   H334      1.0  0.15770  0.79481  0.26351  1.0000
  H   H335      1.0  0.16373  0.78050  0.21067  1.0000
  H   H336      1.0  0.15872  0.72526  0.19509  1.0000
  H   H337      1.0  0.14613  0.68402  0.23190  1.0000
  H   H338      1.0  0.27455  0.98405  0.97052  1.0000
  Fe  Fe33      1.0  0.04324  0.75043  0.43175  1.0000
  H   H339      1.0  0.07189  0.53590  0.25224  1.0000
  C   C431      1.0  0.28074  0.65839  0.33390  1.0000
  P   P15       1.0  0.28833  0.70007  0.33610  1.0000
  C   C432      1.0  0.28203  0.71447  0.37325  1.0000
  H   H340      1.0  0.24701  0.64216  0.43859  1.0000
  C   C433      1.0  0.27705  0.91622  0.31594  1.0000
  H   H341      1.0  0.02676  0.83384  0.22298  1.0000
  C   C434      1.0  0.32164  0.79872  0.31818  1.0000
  C   C435      1.0  0.16438  0.60413  0.20295  1.0000
  S   S67       1.0  0.31258  0.62044  0.18575  1.0000
  C   C436      1.0  0.04798  0.51036  0.18478  1.0000
  C   C437      1.0  0.26352  0.72032  0.31047  1.0000
  C   C438      1.0  0.25654  0.70661  0.28308  1.0000
  C   C439      1.0  0.24008  0.72346  0.26192  1.0000
  C   C440      1.0  0.23043  0.75403  0.26788  1.0000
  C   C441      1.0  0.23616  0.76742  0.29544  1.0000
  C   C442      1.0  0.25272  0.75067  0.31668  1.0000
  H   H342      1.0  0.27350  0.51155  0.09063  1.0000
  C   C443      1.0  0.31719  0.52154  0.01645  1.0000
  C   C444      1.0  0.26249  0.69860  0.39300  1.0000
  H   H343      1.0  0.19219  0.71406  0.31755  1.0000
  C   C445      1.0  0.27399  0.49009  0.19162  1.0000
  H   H344      1.0  0.21668  0.91904  0.05830  1.0000
  H   H345      1.0  0.13057  0.96571  0.04995  1.0000
  H   H346      1.0  0.26503  0.68346  0.27751  1.0000
  H   H347      1.0  0.23573  0.71325  0.24045  1.0000
  H   H348      1.0  0.21899  0.76759  0.25090  1.0000
  H   H349      1.0  0.22824  0.79107  0.29995  1.0000
  H   H350      1.0  0.25761  0.76177  0.33756  1.0000
  C   C446      1.0  0.22491  0.90814  0.33214  1.0000
  C   C447      1.0  0.12155  0.49485  0.11591  1.0000
  C   C448      1.0  0.06122  0.88825  0.19159  1.0000
  C   C449      1.0  0.05645  0.90758  0.21609  1.0000
  C   C450      1.0  0.02909  0.92444  0.21906  1.0000
  H   H351      1.0  0.23155  0.66370  0.33420  1.0000
  P   P16       1.0  0.02356  0.95018  0.25034  1.0000
  H   H352      1.0  0.00569  0.68775  0.29110  1.0000
  C   C451      1.0  0.33495  0.93384  0.16134  1.0000
  C   C452      1.0  0.15478  0.96666  0.05492  1.0000
  C   C453      1.0  0.28954  0.75521  0.41013  1.0000
  C   C454      1.0  0.00535  0.63676  0.34394  1.0000
  C   C455      1.0  0.11318  0.50857  0.14277  1.0000
  H   H353      1.0  0.30979  0.82960  0.43733  1.0000
  H   H354      1.0  0.29359  0.53657  0.19461  1.0000
  C   C456      1.0  0.25630  0.71128  0.42090  1.0000
  H   H355      1.0  0.27881  0.82203  0.32399  1.0000
  S   S68       1.0  0.05592  0.50439  0.06782  1.0000
  H   H356      1.0  0.31610  0.77573  0.22170  1.0000
  C   C457      1.0  0.17765  0.70887  0.33635  1.0000
  C   C458      1.0  0.16198  0.54744  0.19910  1.0000
  H   H357      1.0  0.09056  0.97268  0.16725  1.0000
  C   C459      1.0  0.29677  0.87170  0.41335  1.0000
  H   H358      1.0  0.04828  0.97408  0.30627  1.0000
  H   H359      1.0  0.08300  0.87654  0.18882  1.0000
  H   H360      1.0  0.07463  0.91012  0.23211  1.0000
  C   C460      1.0  0.13017  0.68903  0.35694  1.0000
  H   H361      1.0  0.19507  0.94537  0.14857  1.0000
  H   H362      1.0  0.19811  0.50807  0.05279  1.0000
  H   H363      1.0  0.17511  0.61656  0.98116  1.0000
  H   H364      1.0  0.05049  0.72840  0.24057  1.0000
  H   H365      1.0  0.14515  0.67718  0.45645  1.0000
  C   C461      1.0  0.27568  0.52099  0.20233  1.0000
  H   H366      1.0  0.11996  0.62052  0.30972  1.0000
  S   S69       1.0  0.00854  0.71136  0.43236  1.0000
  H   H367      1.0  0.26722  0.96434  0.14197  1.0000
  C   C462      1.0  0.03754  0.64198  0.18986  1.0000
  H   H368      1.0  0.05719  0.90808  0.28964  1.0000
  C   C463      1.0  0.17004  0.70794  0.38942  1.0000
  C   C464      1.0  0.01081  0.90093  0.17350  1.0000
  C   C465      1.0  0.18184  0.59669  0.02454  1.0000
  H   H369      1.0  0.19387  0.67103  0.26761  1.0000
  Fe  Fe34      1.0  0.02828  0.77052  0.36952  1.0000
  H   H370      1.0  0.16316  0.60992  0.03401  1.0000
  C   C466      1.0  0.05669  0.53038  0.23413  1.0000
  H   H371      1.0  0.22106  0.60689  0.32976  1.0000
  C   C467      1.0  0.01657  0.51499  0.18852  1.0000
  H   H372      1.0  0.11426  0.49424  0.02828  1.0000
  C   C468      1.0  0.21731  0.96879  0.06873  1.0000
  H   H373      1.0  0.31741  0.58813  0.32718  1.0000
  C   C469      1.0  0.20875  0.49778  0.13718  1.0000
  H   H374      1.0  0.32769  0.96963  0.23580  1.0000
  C   C470      1.0  0.26850  0.59387  0.32830  1.0000
  Fe  Fe35      1.0  0.05081  0.52297  0.02182  1.0000
  H   H375      1.0  0.09146  0.57852  0.21212  1.0000
  C   C471      1.0  0.32741  0.70733  0.32471  1.0000
  H   H376      1.0  0.17831  0.71248  0.41159  1.0000
  H   H377      1.0  0.22007  0.62105  0.25803  1.0000
  C   C472      1.0  0.18267  0.64926  0.27376  1.0000
  H   H378      1.0  0.17769  0.62564  0.20273  1.0000
  C   C473      1.0  0.23492  0.88674  0.35354  1.0000
  H   H379      1.0  0.28811  0.92146  0.17076  1.0000
  C   C474      1.0  0.15617  0.59245  0.29164  1.0000
  C   C475      1.0  0.14116  0.62084  0.29727  1.0000
  C   C476      1.0  0.09439  0.68596  0.29417  1.0000
  C   C477      1.0  0.13287  0.60506  0.20804  1.0000
  C   C478      1.0  0.02529  0.53513  0.23768  1.0000
  C   C479      1.0  0.27123  0.93194  0.08975  1.0000
  H   H380      1.0  0.30261  0.68350  0.06351  1.0000
  C   C480      1.0  0.24597  0.92288  0.31338  1.0000
  H   H381      1.0  0.31602  0.79046  0.29618  1.0000
  H   H382      1.0  0.26526  0.74916  0.45121  1.0000
  S   S70       1.0  0.31490  0.63623  0.25643  1.0000
  C   C481      1.0  0.20344  0.94037  0.06031  1.0000
  C   C482      1.0  0.30372  0.54122  0.06496  1.0000
  H   H383      1.0  0.30537  0.55869  0.08218  1.0000
  C   C483      1.0  0.11343  0.71554  0.46174  1.0000
  H   H384      1.0  0.31083  0.75528  0.36743  1.0000
  H   H385      1.0  0.30151  0.64372  0.42363  1.0000
  H   H386      1.0  0.32955  0.52370  0.99572  1.0000
  S   S71       1.0  0.01044  0.78654  0.41354  1.0000
  C   C484      1.0  0.31456  0.66224  0.06977  1.0000
  H   H387      1.0  0.28656  0.91849  0.39671  1.0000
  H   H388      1.0  0.11678  0.50681  0.09530  1.0000
  C   C485      1.0  0.31157  0.91347  0.17030  1.0000
  C   C486      1.0  0.33638  0.82055  0.37463  1.0000
  C   C487      1.0  0.14263  0.49389  0.25426  1.0000
  H   H389      1.0  0.02630  0.59435  0.20207  1.0000
  H   H390      1.0  0.09546  0.70440  0.44916  1.0000
  H   H391      1.0  0.29325  0.92749  0.30112  1.0000
  C   C488      1.0  0.03876  0.88560  0.16989  1.0000
  C   C489      1.0  0.30993  0.92067  0.43803  1.0000
  H   H392      1.0  0.09267  0.93143  0.97143  1.0000
  H   H393      1.0  0.05600  0.63510  0.17529  1.0000
  C   C490      1.0  0.00565  0.91961  0.19842  1.0000
  C   C491      1.0  0.06452  0.97926  0.28882  1.0000
  H   H394      1.0  0.32894  0.95732  0.15451  1.0000
  C   C492      1.0  0.00495  0.68267  0.21059  1.0000
  H   H395      1.0  0.01730  0.63276  0.42913  1.0000
  C   C493      1.0  0.32673  0.65938  0.09818  1.0000
  H   H396      1.0  0.04210  0.69101  0.17975  1.0000
  C   C494      1.0  0.32292  0.87103  0.46078  1.0000
  H   H397      1.0  0.15272  0.96374  0.11715  1.0000
  C   C495      1.0  0.33418  0.61054  0.05710  1.0000
  H   H398      1.0  0.01051  0.76057  0.26329  1.0000
  C   C496      1.0  0.27902  0.98222  0.04550  1.0000
  C   C497      1.0  0.33458  0.71377  0.29497  1.0000
  C   C498      1.0  0.26698  0.97810  0.01710  1.0000
  C   C499      1.0  0.07963  0.97805  0.23735  1.0000
  C   C500      1.0  0.31956  0.54496  0.03812  1.0000
  H   H399      1.0  0.32947  0.69563  0.44929  1.0000
  H   H400      1.0  0.05594  0.50030  0.16425  1.0000
  H   H401      1.0  0.32845  0.64421  0.33276  1.0000
  C   C501      1.0  0.30647  0.98248  0.23654  1.0000
  Fe  Fe36      1.0  0.33181  0.65848  0.21458  1.0000
  C   C502      1.0  0.33403  0.59119  0.99289  1.0000
  C   C503      1.0  0.00525  0.52753  0.21485  1.0000
  H   H402      1.0  0.00713  0.98390  0.19565  1.0000
  H   H403      1.0  0.33449  0.50584  0.27713  1.0000
  C   C504      1.0  0.10838  0.74499  0.47441  1.0000
  H   H404      1.0  0.18757  0.86314  0.59189  1.0000
  Fe  Fe37      1.0  0.27040  0.52700  0.89709  1.0000
  C   C505      1.0  0.21735  0.55159  0.77347  1.0000
  C   C506      1.0  0.33325  0.79164  0.65242  1.0000
  H   H405      1.0  0.09923  0.94402  0.85304  1.0000
  C   C507      1.0  0.01583  0.93703  0.89560  1.0000
  Fe  Fe38      1.0  0.07023  0.86613  0.70843  1.0000
  C   C508      1.0  0.01300  0.94192  0.92602  1.0000
  H   H406      1.0  0.08956  0.58207  0.72658  1.0000
  Fe  Fe39      1.0  0.28934  0.75968  0.52075  1.0000
  S   S72       1.0  0.28533  0.70986  0.50566  1.0000
  H   H407      1.0  0.23380  0.88864  0.66224  1.0000
  Fe  Fe40      1.0  0.24952  0.74777  0.57510  1.0000
  S   S73       1.0  0.24294  0.69690  0.56357  1.0000
  S   S74       1.0  0.22839  0.75934  0.61935  1.0000
  Fe  Fe41      1.0  0.29294  0.69766  0.55336  1.0000
  P   P17       1.0  0.24629  0.53723  0.74846  1.0000
  Fe  Fe42      1.0  0.23572  0.71476  0.51739  1.0000
  C   C509      1.0  0.00585  0.49929  0.83981  1.0000
  S   S75       1.0  0.30040  0.74725  0.56781  1.0000
  S   S76       1.0  0.23894  0.76578  0.52939  1.0000
  C   C510      1.0  0.33144  0.90625  0.65152  1.0000
  H   H408      1.0  0.19134  0.88479  0.76176  1.0000
  H   H409      1.0  0.33277  0.85786  0.47897  1.0000
  S   S77       1.0  0.13722  0.88092  0.79876  1.0000
  C   C511      1.0  0.10911  0.97194  0.90811  1.0000
  S   S78       1.0  0.03279  0.83382  0.69169  1.0000
  C   C512      1.0  0.22700  0.91184  0.70395  1.0000
  C   C513      1.0  0.24856  0.49482  0.70173  1.0000
  H   H410      1.0  0.13823  0.55195  0.95368  1.0000
  H   H411      1.0  0.16589  0.90388  0.85156  1.0000
  S   S79       1.0  0.11842  0.84953  0.71507  1.0000
  H   H412      1.0  0.21808  0.58718  0.95847  1.0000
  C   C514      1.0  0.22348  0.55534  0.80372  1.0000
  C   C515      1.0  0.07910  0.49709  0.91953  1.0000
  C   C516      1.0  0.31270  0.97310  0.77048  1.0000
  C   C517      1.0  0.30329  0.79659  0.64279  1.0000
  C   C518      1.0  0.06921  0.94835  0.81622  1.0000
  C   C519      1.0  0.22137  0.94042  0.71810  1.0000
  H   H413      1.0  0.02295  0.64586  0.73987  1.0000
  H   H414      1.0  0.13857  0.54058  0.87038  1.0000
  C   C520      1.0  0.29708  0.60563  0.95521  1.0000
  C   C521      1.0  0.03588  0.52545  0.71942  1.0000
  C   C522      1.0  0.23205  0.50496  0.72659  1.0000
  C   C523      1.0  0.32998  0.68066  0.65463  1.0000
  H   H415      1.0  0.26880  0.50745  0.69452  1.0000
  C   C524      1.0  0.29789  0.81183  0.61593  1.0000
  H   H416      1.0  0.03030  0.97315  0.68222  1.0000
  C   C525      1.0  0.20092  0.56668  0.82278  1.0000
  C   C526      1.0  0.18296  0.90366  0.83424  1.0000
  H   H417      1.0  0.23532  0.55561  0.68617  1.0000
  C   C527      1.0  0.04832  0.96727  0.80115  1.0000
  H   H418      1.0  0.10203  0.52805  0.74140  1.0000
  C   C528      1.0  0.20963  0.79523  0.62563  1.0000
  C   C529      1.0  0.20554  0.81740  0.60312  1.0000
  C   C530      1.0  0.19062  0.84591  0.60926  1.0000
  C   C531      1.0  0.17936  0.85208  0.63774  1.0000
  C   C532      1.0  0.18340  0.82981  0.66013  1.0000
  C   C533      1.0  0.19874  0.80163  0.65412  1.0000
  H   H419      1.0  0.21390  0.81265  0.58107  1.0000
  C   C534      1.0  0.33025  0.95350  0.75249  1.0000
  H   H420      1.0  0.17534  0.83460  0.68225  1.0000
  H   H421      1.0  0.20240  0.78483  0.67171  1.0000
  H   H422      1.0  0.24574  0.54998  0.81279  1.0000
  C   C535      1.0  0.14153  0.70020  0.46590  1.0000
  H   H423      1.0  0.03566  0.92487  0.88695  1.0000
  H   H424      1.0  0.30030  0.60122  0.81743  1.0000
  C   C536      1.0  0.32194  0.49590  0.80697  1.0000
  C   C537      1.0  0.13596  0.95603  0.90004  1.0000
  C   C538      1.0  0.10437  0.93789  0.95114  1.0000
  H   H425      1.0  0.17756  0.75517  0.50756  1.0000
  H   H426      1.0  0.03039  0.93334  0.94100  1.0000
  Fe  Fe43      1.0  0.13100  0.89010  0.68547  1.0000
  C   C539      1.0  0.17495  0.89360  0.80577  1.0000
  H   H427      1.0  0.31119  0.85022  0.70171  1.0000
  C   C540      1.0  0.18869  0.56039  0.76248  1.0000
  H   H428      1.0  0.07574  0.92567  0.80735  1.0000
  Fe  Fe44      1.0  0.12010  0.88524  0.75184  1.0000
  H   H429      1.0  0.22778  0.89025  0.71667  1.0000
  H   H430      1.0  0.05359  0.61559  0.70418  1.0000
  H   H431      1.0  0.04820  0.72276  0.52602  1.0000
  C   C541      1.0  0.08265  0.95897  0.84231  1.0000
  C   C542      1.0  0.23522  0.91325  0.81808  1.0000
  H   H432      1.0  0.03676  0.60572  0.88777  1.0000
  S   S80       1.0  0.16169  0.88833  0.64522  1.0000
  C   C543      1.0  0.09356  0.96287  0.93397  1.0000
  C   C544      1.0  0.25754  0.57088  0.72648  1.0000
  H   H433      1.0  0.06645  0.66358  0.65500  1.0000
  S   S81       1.0  0.08276  0.90519  0.67687  1.0000
  S   S82       1.0  0.07048  0.89825  0.74776  1.0000
  C   C545      1.0  0.33575  0.55907  0.87119  1.0000
  C   C546      1.0  0.27639  0.62292  0.69271  1.0000
  C   C547      1.0  0.18917  0.98133  0.80508  1.0000
  H   H434      1.0  0.30028  0.86704  0.65035  1.0000
  C   C548      1.0  0.23061  0.91096  0.67330  1.0000
  C   C549      1.0  0.31195  0.57334  0.85558  1.0000
  C   C550      1.0  0.12179  0.52848  0.88392  1.0000
  C   C551      1.0  0.17218  0.57473  0.81178  1.0000
  H   H435      1.0  0.04639  0.61776  0.57312  1.0000
  H   H436      1.0  0.14394  0.57823  0.77303  1.0000
  C   C552      1.0  0.01147  0.50972  0.66454  1.0000
  C   C553      1.0  0.05837  0.49196  0.82355  1.0000
  H   H437      1.0  0.10068  0.57106  0.89960  1.0000
  H   H438      1.0  0.20108  0.97438  0.82488  1.0000
  C   C554      1.0  0.30999  0.62613  0.49669  1.0000
  H   H439      1.0  0.03866  0.95939  0.78040  1.0000
  C   C555      1.0  0.25660  0.63205  0.48413  1.0000
  Fe  Fe45      1.0  0.27780  0.96128  0.86214  1.0000
  C   C556      1.0  0.02286  0.79727  0.74169  1.0000
  H   H440      1.0  0.11459  0.57913  0.63027  1.0000
  C   C557      1.0  0.31669  0.87994  0.66345  1.0000
  H   H441      1.0  0.15482  0.58373  0.82657  1.0000
  H   H442      1.0  0.28897  0.96743  0.77492  1.0000
  C   C558      1.0  0.32279  0.87054  0.69243  1.0000
  H   H443      1.0  0.29728  0.63968  0.73268  1.0000
  C   C559      1.0  0.04628  0.49864  0.70462  1.0000
  H   H444      1.0  0.18917  0.52680  0.95139  1.0000
  C   C560      1.0  0.27377  0.59563  0.73968  1.0000
  S   S83       1.0  0.28868  0.95064  0.90960  1.0000
  H   H445      1.0  0.27386  0.61103  0.94880  1.0000
  C   C561      1.0  0.07907  0.52990  0.91798  1.0000
  C   C562      1.0  0.16487  0.71438  0.48237  1.0000
  H   H446      1.0  0.21881  0.92184  0.86224  1.0000
  C   C563      1.0  0.28356  0.62128  0.72272  1.0000
  H   H447      1.0  0.21819  0.94056  0.74174  1.0000
  C   C564      1.0  0.04188  0.72814  0.63725  1.0000
  C   C565      1.0  0.05311  0.74913  0.61577  1.0000
  C   C566      1.0  0.03321  0.76027  0.59381  1.0000
  P   P18       1.0  0.09316  0.75977  0.61526  1.0000
  C   C567      1.0  0.10769  0.76003  0.65269  1.0000
  C   C568      1.0  0.11449  0.73270  0.59261  1.0000
  C   C569      1.0  0.14423  0.74051  0.58348  1.0000
  C   C570      1.0  0.16061  0.72023  0.56520  1.0000
  C   C571      1.0  0.14749  0.69209  0.55573  1.0000
  C   C572      1.0  0.11782  0.68421  0.56455  1.0000
  C   C573      1.0  0.10129  0.70450  0.58285  1.0000
  C   C574      1.0  0.13719  0.74916  0.65921  1.0000
  C   C575      1.0  0.14782  0.74920  0.68833  1.0000
  C   C576      1.0  0.12931  0.76054  0.71110  1.0000
  C   C577      1.0  0.09994  0.77135  0.70481  1.0000
  C   C578      1.0  0.08923  0.77120  0.67576  1.0000
  C   C579      1.0  0.09733  0.79837  0.59897  1.0000
  C   C580      1.0  0.09846  0.82537  0.61669  1.0000
  C   C581      1.0  0.10191  0.85502  0.60367  1.0000
  C   C582      1.0  0.10436  0.85798  0.57301  1.0000
  C   C583      1.0  0.10295  0.83127  0.55519  1.0000
  C   C584      1.0  0.09938  0.80159  0.56807  1.0000
  C   C585      1.0  0.13090  0.92198  0.94275  1.0000
  H   H448      1.0  0.25306  0.60092  0.65652  1.0000
  C   C586      1.0  0.32242  0.82217  0.59863  1.0000
  H   H449      1.0  0.05668  0.71917  0.65441  1.0000
  H   H450      1.0  0.04123  0.77616  0.57675  1.0000
  H   H451      1.0  0.15476  0.76242  0.59035  1.0000
  H   H452      1.0  0.18335  0.72669  0.55795  1.0000
  H   H453      1.0  0.16020  0.67675  0.54109  1.0000
  H   H454      1.0  0.10751  0.66263  0.55676  1.0000
  H   H455      1.0  0.07815  0.69840  0.58890  1.0000
  H   H456      1.0  0.15241  0.74123  0.64201  1.0000
  H   H457      1.0  0.17076  0.74115  0.69307  1.0000
  H   H458      1.0  0.13787  0.76148  0.73353  1.0000
  H   H459      1.0  0.08563  0.78061  0.72232  1.0000
  H   H460      1.0  0.06666  0.78025  0.67119  1.0000
  H   H461      1.0  0.09690  0.82384  0.64053  1.0000
  H   H462      1.0  0.19490  0.49322  0.75652  1.0000
  H   H463      1.0  0.10748  0.88100  0.56315  1.0000
  H   H464      1.0  0.10473  0.83351  0.53138  1.0000
  H   H465      1.0  0.09826  0.78119  0.55382  1.0000
  H   H466      1.0  0.31938  0.93305  0.74315  1.0000
  C   C587      1.0  0.19727  0.89296  0.78360  1.0000
  H   H467      1.0  0.17335  0.52470  0.67641  1.0000
  C   C588      1.0  0.22744  0.90220  0.78993  1.0000
  C   C589      1.0  0.25883  0.59927  0.67974  1.0000
  Fe  Fe46      1.0  0.08766  0.93566  0.71686  1.0000
  S   S84       1.0  0.27280  0.92665  0.82464  1.0000
  H   H468      1.0  0.33107  0.54668  0.89160  1.0000
  C   C590      1.0  0.27923  0.62600  0.50505  1.0000
  H   H469      1.0  0.28449  0.64258  0.67954  1.0000
  S   S85       1.0  0.13722  0.92409  0.72277  1.0000
  H   H470      1.0  0.07341  0.97531  0.94130  1.0000
  H   H471      1.0  0.09484  0.71394  0.74719  1.0000
  H   H472      1.0  0.01237  0.76922  0.78027  1.0000
  H   H473      1.0  0.30564  0.69803  0.61656  1.0000
  C   C591      1.0  0.10043  0.54561  0.90025  1.0000
  H   H474      1.0  0.27308  0.62151  0.52791  1.0000
  C   C592      1.0  0.16610  0.57168  0.78161  1.0000
  C   C593      1.0  0.15984  0.74395  0.49485  1.0000
  H   H475      1.0  0.12681  0.68327  0.71303  1.0000
  C   C594      1.0  0.30698  0.53193  0.76817  1.0000
  S   S86       1.0  0.29884  0.48756  0.88037  1.0000
  H   H476      1.0  0.16211  0.57942  0.66158  1.0000
  H   H477      1.0  0.08510  0.57693  0.58423  1.0000
  C   C595      1.0  0.21904  0.96832  0.70169  1.0000
  H   H478      1.0  0.31820  0.83298  0.57730  1.0000
  H   H479      1.0  0.04277  0.69567  0.76043  1.0000
  H   H480      1.0  0.01838  0.67346  0.52892  1.0000
  C   C596      1.0  0.32933  0.51991  0.78708  1.0000
  H   H481      1.0  0.06288  0.54319  0.93112  1.0000
  H   H482      1.0  0.31335  0.55049  0.75299  1.0000
  H   H483      1.0  0.16928  0.49421  0.81320  1.0000
  C   C597      1.0  0.21292  0.91378  0.84032  1.0000
  H   H484      1.0  0.20608  0.56956  0.84606  1.0000
  H   H485      1.0  0.24475  0.90118  0.77287  1.0000
  S   S87       1.0  0.19984  0.69436  0.48694  1.0000
  S   S88       1.0  0.07309  0.76437  0.47037  1.0000
  S   S89       1.0  0.31767  0.79177  0.49171  1.0000
  S   S90       1.0  0.21518  0.96932  0.95170  1.0000
  C   C598      1.0  0.22881  0.93869  0.65679  1.0000
  H   H486      1.0  0.00860  0.65604  0.47796  1.0000
  H   H487      1.0  0.27944  0.59484  0.76298  1.0000
  C   C599      1.0  0.14680  0.93122  0.91735  1.0000
  C   C600      1.0  0.18072  0.67980  0.64040  1.0000
  C   C601      1.0  0.20469  0.67850  0.66065  1.0000
  C   C602      1.0  0.20165  0.66054  0.68641  1.0000
  C   C603      1.0  0.17468  0.64375  0.69188  1.0000
  C   C604      1.0  0.15046  0.64490  0.67161  1.0000
  C   C605      1.0  0.15356  0.66334  0.64591  1.0000
  P   P19       1.0  0.11518  0.62439  0.67983  1.0000
  C   C606      1.0  0.09309  0.64634  0.70665  1.0000
  C   C607      1.0  0.09275  0.62149  0.64638  1.0000
  C   C608      1.0  0.07071  0.64445  0.63988  1.0000
  C   C609      1.0  0.05396  0.64296  0.61366  1.0000
  C   C610      1.0  0.05930  0.61879  0.59351  1.0000
  C   C611      1.0  0.08112  0.59584  0.59976  1.0000
  C   C612      1.0  0.09781  0.59714  0.62605  1.0000
  C   C613      1.0  0.06332  0.63656  0.71396  1.0000
  C   C614      1.0  0.04563  0.65393  0.73380  1.0000
  C   C615      1.0  0.05692  0.68187  0.74561  1.0000
  C   C616      1.0  0.08626  0.69214  0.73809  1.0000
  C   C617      1.0  0.10435  0.67448  0.71874  1.0000
  C   C618      1.0  0.12464  0.58505  0.69254  1.0000
  C   C619      1.0  0.10801  0.57026  0.71534  1.0000
  C   C620      1.0  0.11491  0.53944  0.72387  1.0000
  C   C621      1.0  0.13812  0.52293  0.70960  1.0000
  C   C622      1.0  0.15518  0.53753  0.68730  1.0000
  C   C623      1.0  0.14871  0.56854  0.67900  1.0000
  H   H488      1.0  0.18325  0.69397  0.62057  1.0000
  H   H489      1.0  0.22553  0.69169  0.65638  1.0000
  H   H490      1.0  0.22019  0.65980  0.70223  1.0000
  H   H491      1.0  0.17261  0.63015  0.71209  1.0000
  H   H492      1.0  0.13515  0.66523  0.63012  1.0000
  H   H493      1.0  0.16801  0.91967  0.91144  1.0000
  S   S91       1.0  0.27410  0.57043  0.86894  1.0000
  H   H494      1.0  0.32658  0.91354  0.62906  1.0000
  C   C624      1.0  0.12187  0.49565  0.88538  1.0000
  H   H495      1.0  0.23082  0.93776  0.63295  1.0000
  H   H496      1.0  0.03688  0.66066  0.60891  1.0000
  H   H497      1.0  0.10316  0.87573  0.61748  1.0000
  C   C625      1.0  0.31857  0.59003  0.82953  1.0000
  H   H498      1.0  0.14880  0.96294  0.88057  1.0000
  C   C626      1.0  0.03397  0.49046  0.67726  1.0000
  H   H499      1.0  0.13976  0.90317  0.95643  1.0000
  H   H500      1.0  0.04537  0.53145  0.74072  1.0000
  S   S92       1.0  0.28631  0.52227  0.94390  1.0000
  S   S93       1.0  0.32585  0.65981  0.56726  1.0000
  H   H501      1.0  0.12777  0.78179  0.50109  1.0000
  C   C627      1.0  0.27691  0.52039  0.76973  1.0000
  C   C628      1.0  0.24917  0.57343  0.69660  1.0000
  H   H502      1.0  0.27464  0.81479  0.60820  1.0000
  C   C629      1.0  0.00923  0.75148  0.51612  1.0000
  H   H503      1.0  0.18394  0.55861  0.73914  1.0000
  H   H504      1.0  0.03557  0.81479  0.75384  1.0000
  H   H505      1.0  0.02253  0.77294  0.51439  1.0000
  C   C630      1.0  0.00669  0.69527  0.52416  1.0000
  C   C631      1.0  0.13157  0.75903  0.49117  1.0000
  C   C632      1.0  0.01888  0.80069  0.71120  1.0000
  C   C633      1.0  0.02367  0.72312  0.52276  1.0000
  H   H506      1.0  0.28414  0.78767  0.65561  1.0000
  H   H507      1.0  0.01479  0.61310  0.93792  1.0000
  C   C634      1.0  0.01336  0.54459  0.70693  1.0000
  S   S94       1.0  0.22835  0.49732  0.90366  1.0000
  H   H508      1.0  0.23277  0.63224  0.49072  1.0000
  H   H509      1.0  0.32686  0.62048  0.51324  1.0000
  C   C635      1.0  0.32247  0.68148  0.62448  1.0000
  C   C636      1.0  0.22327  0.96734  0.67091  1.0000
  H   H510      1.0  0.31896  0.69670  0.66978  1.0000
  H   H511      1.0  0.04552  0.50441  0.86771  1.0000
  C   C637      1.0  0.03730  0.49907  0.84581  1.0000
  C   C638      1.0  0.27016  0.49524  0.78880  1.0000
  H   H512      1.0  0.02115  0.56049  0.85743  1.0000
  C   C639      1.0  0.33617  0.66040  0.60487  1.0000
  C   C640      1.0  0.01119  0.71901  0.63712  1.0000
  C   C641      1.0  0.01162  0.56304  0.87938  1.0000
  H   H513      1.0  0.14284  0.49884  0.71601  1.0000
  H   H514      1.0  0.31464  0.61055  0.91090  1.0000
  H   H515      1.0  0.14479  0.97406  0.82423  1.0000
  Fe  Fe47      1.0  0.25136  0.98561  0.91935  1.0000
  C   C642      1.0  0.02035  0.58892  0.89642  1.0000
  H   H516      1.0  0.33673  0.77859  0.67268  1.0000
  C   C643      1.0  0.15735  0.98128  0.80474  1.0000
  C   C644      1.0  0.32008  0.60533  0.93377  1.0000
  C   C645      1.0  0.00783  0.59325  0.92457  1.0000
  H   H517      1.0  0.08266  0.49188  0.82822  1.0000
  H   H518      1.0  0.33309  0.91612  0.47980  1.0000
  H   H519      1.0  0.00509  0.49013  0.92770  1.0000
  Fe  Fe48      1.0  0.24732  0.48793  0.94893  1.0000
  C   C646      1.0  0.00966  0.77148  0.75660  1.0000
  H   H520      1.0  0.00613  0.89815  0.70967  1.0000
  C   C647      1.0  0.31844  0.63348  0.46749  1.0000
  C   C648      1.0  0.20719  0.48689  0.73662  1.0000
  H   H521      1.0  0.41796  0.21903  0.37106  1.0000
  C   C649      1.0  0.47649  0.14430  0.12300  1.0000
  C   C650      1.0  0.45378  0.16281  0.13585  1.0000
  H   H522      1.0  0.47300  0.32918  0.21255  1.0000
  Fe  Fe49      1.0  0.37384  0.11292  0.18085  1.0000
  H   H523      1.0  0.46411  0.26798  0.45938  1.0000
  S   S95       1.0  0.41826  0.10152  0.28423  1.0000
  H   H524      1.0  0.44003  0.23526  0.27998  1.0000
  S   S96       1.0  0.39635  0.14914  0.20944  1.0000
  Fe  Fe50      1.0  0.38733  0.11497  0.24630  1.0000
  H   H525      1.0  0.50799  0.23119  0.28472  1.0000
  Fe  Fe51      1.0  0.49952  0.22387  0.40821  1.0000
  Fe  Fe52      1.0  0.54030  0.20095  0.35772  1.0000
  S   S97       1.0  0.53983  0.17617  0.31359  1.0000
  S   S98       1.0  0.50671  0.24001  0.36152  1.0000
  C   C651      1.0  0.64452  0.09864  0.24346  1.0000
  C   C652      1.0  0.41125  0.99921  0.96683  1.0000
  Fe  Fe53      1.0  0.34836  0.16610  0.21752  1.0000
  H   H526      1.0  0.63585  0.09407  0.19677  1.0000
  H   H527      1.0  0.54804  0.01584  0.16160  1.0000
  C   C653      1.0  0.39966  0.22346  0.45557  1.0000
  H   H528      1.0  0.42840  0.01546  0.33975  1.0000
  H   H529      1.0  0.56075  0.03750  0.21087  1.0000
  H   H530      1.0  0.61042  0.46685  0.18638  1.0000
  C   C654      1.0  0.65329  0.01655  0.00022  1.0000
  C   C655      1.0  0.45045  0.12479  0.29261  1.0000
  C   C656      1.0  0.46509  0.12018  0.31978  1.0000
  C   C657      1.0  0.49171  0.13702  0.32676  1.0000
  C   C658      1.0  0.50466  0.15758  0.30607  1.0000
  C   C659      1.0  0.49028  0.16194  0.27866  1.0000
  C   C660      1.0  0.46284  0.14610  0.27219  1.0000
  H   H531      1.0  0.45575  0.10356  0.33555  1.0000
  H   H532      1.0  0.50277  0.13335  0.34782  1.0000
  H   H533      1.0  0.50036  0.17747  0.26239  1.0000
  H   H534      1.0  0.45195  0.14945  0.25101  1.0000
  C   C661      1.0  0.45823  0.17555  0.16394  1.0000
  H   H535      1.0  0.45322  0.11399  0.44881  1.0000
  S   S99       1.0  0.60094  0.20035  0.45419  1.0000
  H   H536      1.0  0.63129  0.02539  0.08377  1.0000
  H   H537      1.0  0.34229  0.04808  0.12547  1.0000
  Fe  Fe54      1.0  0.56779  0.21555  0.41846  1.0000
  C   C662      1.0  0.66993  0.16516  0.35073  1.0000
  H   H538      1.0  0.49004  0.06558  0.16675  1.0000
  H   H539      1.0  0.43820  0.08804  0.17544  1.0000
  H   H540      1.0  0.58453  0.14117  0.35746  1.0000
  C   C663      1.0  0.34813  0.13994  0.34985  1.0000
  C   C664      1.0  0.39174  0.19164  0.33990  1.0000
  S   S100      1.0  0.45118  0.21289  0.42298  1.0000
  C   C665      1.0  0.60373  0.41060  0.37196  1.0000
  H   H541      1.0  0.66996  0.98900  0.16419  1.0000
  Fe  Fe55      1.0  0.54931  0.44052  0.08034  1.0000
  C   C666      1.0  0.38162  0.38606  0.21280  1.0000
  S   S101      1.0  0.57651  0.40213  0.10276  1.0000
  H   H542      1.0  0.63119  0.41170  0.41110  1.0000
  H   H543      1.0  0.63223  0.24916  0.42033  1.0000
  H   H544      1.0  0.49739  0.41490  0.21512  1.0000
  C   C667      1.0  0.41357  0.21420  0.34804  1.0000
  S   S102      1.0  0.53081  0.18233  0.40328  1.0000
  C   C668      1.0  0.39627  0.15180  0.39329  1.0000
  C   C669      1.0  0.55495  0.32719  0.45900  1.0000
  H   H545      1.0  0.64012  0.02986  0.13799  1.0000
  Fe  Fe56      1.0  0.54588  0.26794  0.37911  1.0000
  S   S103      1.0  0.58045  0.22999  0.37222  1.0000
  S   S104      1.0  0.55407  0.31503  0.35784  1.0000
  C   C670      1.0  0.37235  0.35468  0.21561  1.0000
  H   H546      1.0  0.59761  0.29818  0.12685  1.0000
  H   H547      1.0  0.50287  0.39261  0.12477  1.0000
  H   H548      1.0  0.54100  0.27302  0.30511  1.0000
  C   C671      1.0  0.54776  0.01591  0.20919  1.0000
  C   C672      1.0  0.46582  0.37028  0.14843  1.0000
  H   H549      1.0  0.65278  0.37645  0.17778  1.0000
  C   C673      1.0  0.42680  0.14658  0.38510  1.0000
  C   C674      1.0  0.40557  0.20016  0.28832  1.0000
  H   H550      1.0  0.44143  0.00010  0.16101  1.0000
  C   C675      1.0  0.63341  0.34860  0.32449  1.0000
  C   C676      1.0  0.60238  0.34151  0.32862  1.0000
  C   C677      1.0  0.59308  0.32260  0.35237  1.0000
  C   C678      1.0  0.61488  0.31044  0.37181  1.0000
  C   C679      1.0  0.64585  0.31811  0.36804  1.0000
  H   H551      1.0  0.64037  0.36380  0.30651  1.0000
  H   H552      1.0  0.58557  0.35098  0.31358  1.0000
  H   H553      1.0  0.60780  0.29582  0.39021  1.0000
  C   C680      1.0  0.49638  0.37845  0.14379  1.0000
  C   C681      1.0  0.59920  0.41110  0.13370  1.0000
  C   C682      1.0  0.61994  0.38858  0.14407  1.0000
  C   C683      1.0  0.63707  0.39406  0.16976  1.0000
  C   C684      1.0  0.63337  0.42208  0.18531  1.0000
  C   C685      1.0  0.61323  0.44503  0.17450  1.0000
  C   C686      1.0  0.59621  0.43961  0.14870  1.0000
  H   H554      1.0  0.62261  0.36674  0.13224  1.0000
  C   C687      1.0  0.43173  0.46940  0.99148  1.0000
  H   H555      1.0  0.37150  0.34362  0.23721  1.0000
  H   H556      1.0  0.58037  0.45719  0.14075  1.0000
  H   H557      1.0  0.55094  0.31411  0.15313  1.0000
  C   C688      1.0  0.43061  0.23014  0.32650  1.0000
  H   H558      1.0  0.60453  0.33415  0.23087  1.0000
  H   H559      1.0  0.44717  0.24767  0.33307  1.0000
  C   C689      1.0  0.41936  0.44820  0.01190  1.0000
  C   C690      1.0  0.34488  0.08772  0.32841  1.0000
  H   H560      1.0  0.35538  0.06531  0.32350  1.0000
  H   H561      1.0  0.44045  0.18973  0.17388  1.0000
  C   C691      1.0  0.39978  0.98748  0.23598  1.0000
  C   C692      1.0  0.38969  0.00786  0.07970  1.0000
  C   C693      1.0  0.44429  0.00300  0.32560  1.0000
  C   C694      1.0  0.42661  0.22315  0.29663  1.0000
  C   C695      1.0  0.35571  0.48103  0.14746  1.0000
  H   H562      1.0  0.51165  0.36003  0.26833  1.0000
  H   H563      1.0  0.61803  0.42770  0.05346  1.0000
  C   C696      1.0  0.36409  0.35210  0.16286  1.0000
  C   C697      1.0  0.57623  0.33813  0.43832  1.0000
  C   C698      1.0  0.45893  0.01887  0.30251  1.0000
  C   C699      1.0  0.35697  0.02937  0.11767  1.0000
  H   H564      1.0  0.43381  0.34640  0.17695  1.0000
  H   H565      1.0  0.45533  0.47663  0.99330  1.0000
  S   S105      1.0  0.53567  0.25586  0.42664  1.0000
  H   H566      1.0  0.49006  0.23454  0.23277  1.0000
  C   C700      1.0  0.64736  0.46153  0.07456  1.0000
  C   C701      1.0  0.34427  0.45500  0.22002  1.0000
  C   C702      1.0  0.38841  0.18433  0.30983  1.0000
  H   H567      1.0  0.39053  0.20324  0.44425  1.0000
  C   C703      1.0  0.43018  0.99586  0.18208  1.0000
  C   C704      1.0  0.65096  0.11938  0.26657  1.0000
  H   H568      1.0  0.63293  0.46282  0.09403  1.0000
  H   H569      1.0  0.39254  0.45504  0.07353  1.0000
  H   H570      1.0  0.46842  0.05235  0.07515  1.0000
  C   C705      1.0  0.44474  0.07999  0.15369  1.0000
  C   C706      1.0  0.47398  0.06736  0.14875  1.0000
  C   C707      1.0  0.64992  0.01060  0.12568  1.0000
  H   H571      1.0  0.41770  0.07625  0.08343  1.0000
  H   H572      1.0  0.54228  0.37553  0.15978  1.0000
  H   H573      1.0  0.55811  0.44760  0.28226  1.0000
  H   H574      1.0  0.47270  0.13384  0.10149  1.0000
  H   H575      1.0  0.63812  0.47792  0.40804  1.0000
  H   H576      1.0  0.44159  0.40738  0.21315  1.0000
  C   C708      1.0  0.42442  0.08332  0.13006  1.0000
  H   H577      1.0  0.62248  0.35338  0.43097  1.0000
  Fe  Fe57      1.0  0.54893  0.48006  0.02410  1.0000
  H   H578      1.0  0.58147  0.39108  0.20732  1.0000
  H   H579      1.0  0.50438  0.28012  0.20156  1.0000
  H   H580      1.0  0.62569  0.30401  0.27390  1.0000
  C   C709      1.0  0.43310  0.07323  0.10184  1.0000
  S   S106      1.0  0.51991  0.04424  0.11373  1.0000
  C   C710      1.0  0.46187  0.05978  0.09710  1.0000
  C   C711      1.0  0.64528  0.24437  0.44009  1.0000
  S   S107      1.0  0.36894  0.07692  0.21686  1.0000
  Fe  Fe58      1.0  0.48888  0.45302  0.04829  1.0000
  H   H581      1.0  0.34741  0.44205  0.98311  1.0000
  H   H582      1.0  0.55589  0.31838  0.27442  1.0000
  C   C712      1.0  0.35202  0.22693  0.39479  1.0000
  P   P20       1.0  0.37010  0.17034  0.36781  1.0000
  C   C713      1.0  0.63491  0.22185  0.46033  1.0000
  S   S108      1.0  0.44196  0.43218  0.04037  1.0000
  H   H583      1.0  0.64768  0.29891  0.15249  1.0000
  C   C714      1.0  0.63885  0.44148  0.05160  1.0000
  H   H584      1.0  0.40256  0.19442  0.26518  1.0000
  H   H585      1.0  0.37245  0.23753  0.38592  1.0000
  S   S109      1.0  0.53301  0.43093  0.03421  1.0000
  C   C715      1.0  0.65289  0.15190  0.26123  1.0000
  C   C716      1.0  0.64035  0.11015  0.21479  1.0000
  H   H586      1.0  0.62709  0.43343  0.30334  1.0000
  C   C717      1.0  0.65167  0.16398  0.32532  1.0000
  H   H587      1.0  0.52195  0.45851  0.18736  1.0000
  C   C718      1.0  0.63062  0.41654  0.38761  1.0000
  C   C719      1.0  0.62661  0.14923  0.38088  1.0000
  C   C720      1.0  0.60854  0.14726  0.35557  1.0000
  C   C721      1.0  0.62102  0.15441  0.32788  1.0000
  C   C722      1.0  0.65174  0.21730  0.28412  1.0000
  C   C723      1.0  0.62820  0.22978  0.30172  1.0000
  C   C724      1.0  0.61874  0.26086  0.29785  1.0000
  C   C725      1.0  0.63264  0.27975  0.27641  1.0000
  C   C726      1.0  0.38201  0.46195  0.09415  1.0000
  S   S110      1.0  0.38867  0.10138  0.13462  1.0000
  C   C727      1.0  0.48258  0.05745  0.12038  1.0000
  C   C728      1.0  0.65593  0.26748  0.25873  1.0000
  H   H588      1.0  0.51952  0.40791  0.29787  1.0000
  C   C729      1.0  0.38225  0.40078  0.18494  1.0000
  H   H589      1.0  0.35696  0.33900  0.14356  1.0000
  H   H590      1.0  0.61665  0.14467  0.40248  1.0000
  H   H591      1.0  0.37275  0.16630  0.30278  1.0000
  H   H592      1.0  0.60628  0.15397  0.30867  1.0000
  H   H593      1.0  0.61713  0.21593  0.31866  1.0000
  H   H594      1.0  0.60093  0.27044  0.31184  1.0000
  C   C730      1.0  0.44717  0.13276  0.40498  1.0000
  C   C731      1.0  0.58749  0.07575  0.13869  1.0000
  C   C732      1.0  0.60995  0.09343  0.12426  1.0000
  C   C733      1.0  0.61235  0.12562  0.12961  1.0000
  C   C734      1.0  0.59218  0.14021  0.14927  1.0000
  C   C735      1.0  0.56970  0.12256  0.16415  1.0000
  C   C736      1.0  0.56738  0.09024  0.15845  1.0000
  P   P21       1.0  0.54170  0.14112  0.18782  1.0000
  C   C737      1.0  0.50781  0.15016  0.16688  1.0000
  C   C738      1.0  0.53291  0.11394  0.21747  1.0000
  C   C739      1.0  0.50302  0.10289  0.22207  1.0000
  C   C740      1.0  0.49634  0.08374  0.24642  1.0000
  C   C741      1.0  0.51930  0.07588  0.26651  1.0000
  C   C742      1.0  0.54933  0.08553  0.26130  1.0000
  C   C743      1.0  0.55621  0.10401  0.23656  1.0000
  C   C744      1.0  0.50342  0.13792  0.13840  1.0000
  C   C745      1.0  0.48511  0.16921  0.17947  1.0000
  C   C746      1.0  0.55598  0.17790  0.20251  1.0000
  C   C747      1.0  0.56002  0.20372  0.18347  1.0000
  C   C748      1.0  0.57217  0.23192  0.19404  1.0000
  C   C749      1.0  0.57942  0.23502  0.22391  1.0000
  C   C750      1.0  0.57398  0.21006  0.24331  1.0000
  C   C751      1.0  0.56226  0.18168  0.23277  1.0000
  H   H595      1.0  0.58470  0.05103  0.13355  1.0000
  H   H596      1.0  0.62496  0.08234  0.10833  1.0000
  H   H597      1.0  0.62944  0.13942  0.11798  1.0000
  H   H598      1.0  0.59431  0.16520  0.15248  1.0000
  H   H599      1.0  0.54915  0.07643  0.16825  1.0000
  H   H600      1.0  0.48460  0.10957  0.20746  1.0000
  H   H601      1.0  0.47299  0.07631  0.25042  1.0000
  H   H602      1.0  0.51374  0.06280  0.28638  1.0000
  H   H603      1.0  0.56712  0.07946  0.27688  1.0000
  H   H604      1.0  0.57940  0.11200  0.23317  1.0000
  H   H605      1.0  0.52013  0.12264  0.12822  1.0000
  H   H606      1.0  0.48789  0.17854  0.20154  1.0000
  H   H607      1.0  0.55397  0.20196  0.16032  1.0000
  H   H608      1.0  0.57578  0.25141  0.17909  1.0000
  H   H609      1.0  0.58846  0.25701  0.23217  1.0000
  H   H610      1.0  0.57814  0.21279  0.26675  1.0000
  H   H611      1.0  0.55760  0.16336  0.24871  1.0000
  H   H612      1.0  0.43243  0.16663  0.12429  1.0000
  C   C752      1.0  0.36934  0.03096  0.08924  1.0000
  C   C753      1.0  0.36356  0.33771  0.19065  1.0000
  H   H613      1.0  0.41202  0.43373  0.12048  1.0000
  C   C754      1.0  0.38867  0.43892  0.00917  1.0000
  C   C755      1.0  0.45758  0.35234  0.17317  1.0000
  H   H614      1.0  0.43518  0.15384  0.36364  1.0000
  C   C756      1.0  0.57231  0.42145  0.24400  1.0000
  C   C757      1.0  0.55492  0.42635  0.26949  1.0000
  C   C758      1.0  0.53325  0.40400  0.27826  1.0000
  C   C759      1.0  0.52907  0.37671  0.26159  1.0000
  C   C760      1.0  0.54714  0.37120  0.23642  1.0000
  C   C761      1.0  0.56827  0.39413  0.22736  1.0000
  P   P22       1.0  0.54012  0.33727  0.21362  1.0000
  C   C762      1.0  0.51083  0.34960  0.18806  1.0000
  C   C763      1.0  0.57424  0.32568  0.19398  1.0000
  C   C764      1.0  0.60263  0.32590  0.20833  1.0000
  C   C765      1.0  0.62892  0.31601  0.19339  1.0000
  C   C766      1.0  0.62711  0.30589  0.16414  1.0000
  C   C767      1.0  0.59895  0.30549  0.14974  1.0000
  C   C768      1.0  0.57255  0.31504  0.16465  1.0000
  C   C769      1.0  0.51876  0.36848  0.16365  1.0000
  H   H615      1.0  0.44856  0.37817  0.13297  1.0000
  C   C770      1.0  0.54053  0.00384  0.18143  1.0000
  C   C771      1.0  0.39295  0.44992  0.12086  1.0000
  C   C772      1.0  0.47994  0.34233  0.19315  1.0000
  C   C773      1.0  0.52982  0.30360  0.23609  1.0000
  C   C774      1.0  0.54098  0.30069  0.26508  1.0000
  C   C775      1.0  0.53284  0.27480  0.28254  1.0000
  C   C776      1.0  0.51415  0.25123  0.27104  1.0000
  C   C777      1.0  0.50396  0.25325  0.24184  1.0000
  C   C778      1.0  0.51198  0.27920  0.22430  1.0000
  H   H616      1.0  0.58893  0.43891  0.23702  1.0000
  H   H617      1.0  0.58165  0.41196  0.32956  1.0000
  C   C779      1.0  0.43681  0.01545  0.20597  1.0000
  H   H618      1.0  0.38780  0.39901  0.23248  1.0000
  Fe  Fe59      1.0  0.52130  0.00513  0.08039  1.0000
  H   H619      1.0  0.48932  0.01536  0.26566  1.0000
  C   C780      1.0  0.64234  0.14243  0.20933  1.0000
  C   C781      1.0  0.35789  0.48331  0.09402  1.0000
  H   H620      1.0  0.40009  0.00946  0.05795  1.0000
  H   H621      1.0  0.65043  0.18800  0.22737  1.0000
  H   H622      1.0  0.38412  0.10510  0.35150  1.0000
  H   H623      1.0  0.42497  0.02809  0.25056  1.0000
  C   C782      1.0  0.49735  0.45552  0.18677  1.0000
  C   C783      1.0  0.62791  0.42913  0.32697  1.0000
  H   H624      1.0  0.54519  0.00898  0.25612  1.0000
  C   C784      1.0  0.45179  0.42667  0.20106  1.0000
  H   H625      1.0  0.47090  0.12985  0.39879  1.0000
  C   C785      1.0  0.65735  0.15779  0.37842  1.0000
  C   C786      1.0  0.60232  0.41711  0.34171  1.0000
  H   H626      1.0  0.37289  0.39407  0.13826  1.0000
  H   H627      1.0  0.66257  0.30926  0.38349  1.0000
  C   C787      1.0  0.37332  0.38349  0.15997  1.0000
  C   C788      1.0  0.40674  0.12846  0.44133  1.0000
  H   H628      1.0  0.58407  0.40052  0.38314  1.0000
  C   C789      1.0  0.42941  0.23386  0.44915  1.0000
  C   C790      1.0  0.48348  0.43088  0.20233  1.0000
  C   C791      1.0  0.65514  0.33728  0.34441  1.0000
  H   H629      1.0  0.45414  0.04359  0.29875  1.0000
  C   C792      1.0  0.42117  0.01168  0.23269  1.0000
  H   H630      1.0  0.65097  0.31696  0.20411  1.0000
  C   C793      1.0  0.38627  0.14213  0.42141  1.0000
  C   C794      1.0  0.64847  0.16323  0.23240  1.0000
  S   S111      1.0  0.50434  0.00422  0.03345  1.0000
  C   C795      1.0  0.37937  0.45879  0.14773  1.0000
  S   S112      1.0  0.50362  0.45794  0.09556  1.0000
  H   H631      1.0  0.53205  0.32112  0.45192  1.0000
  H   H632      1.0  0.35601  0.31348  0.19289  1.0000
  H   H633      1.0  0.64347  0.07355  0.24765  1.0000
  H   H634      1.0  0.56980  0.34043  0.41530  1.0000
  C   C796      1.0  0.53873  0.99980  0.23472  1.0000
  S   S113      1.0  0.65212  0.42843  0.21917  1.0000
  C   C797      1.0  0.65647  0.42866  0.37300  1.0000
  C   C798      1.0  0.37068  0.45015  0.98568  1.0000
  H   H635      1.0  0.37900  0.42243  0.02489  1.0000
  C   C799      1.0  0.64506  0.00813  0.09526  1.0000
  C   C800      1.0  0.41381  0.48057  0.96805  1.0000
  C   C801      1.0  0.43372  0.44712  0.18413  1.0000
  H   H636      1.0  0.35609  0.00479  0.15898  1.0000
  H   H637      1.0  0.45321  0.03435  0.20334  1.0000
  H   H638      1.0  0.63994  0.15140  0.18709  1.0000
  H   H639      1.0  0.36289  0.14570  0.42832  1.0000
  P   P23       1.0  0.39274  0.44194  0.18207  1.0000
  C   C802      1.0  0.62333  0.00487  0.00284  1.0000
  C   C803      1.0  0.47928  0.00285  0.28403  1.0000
  C   C804      1.0  0.43722  0.12393  0.43317  1.0000
  H   H640      1.0  0.36394  0.05068  0.07499  1.0000
  H   H641      1.0  0.60943  0.01102  0.02174  1.0000
  C   C805      1.0  0.60587  0.34562  0.44724  1.0000
  C   C806      1.0  0.65490  0.43487  0.34252  1.0000
  C   C807      1.0  0.36487  0.00469  0.13657  1.0000
  C   C808      1.0  0.47946  0.47639  0.17045  1.0000
  C   C809      1.0  0.37479  0.46187  0.21271  1.0000
  H   H642      1.0  0.64967  0.42473  0.00798  1.0000
  C   C810      1.0  0.34474  0.19529  0.38928  1.0000
  H   H643      1.0  0.44723  0.99702  0.99917  1.0000
  C   C811      1.0  0.36110  0.11037  0.34437  1.0000
  C   C812      1.0  0.65677  0.43964  0.02608  1.0000
  H   H644      1.0  0.34748  0.01520  0.02611  1.0000
  H   H645      1.0  0.65528  0.10996  0.28843  1.0000
  C   C813      1.0  0.66561  0.23656  0.26268  1.0000
  H   H646      1.0  0.66221  0.03176  0.01720  1.0000
  S   S114      1.0  0.34115  0.13479  0.25684  1.0000
  C   C814      1.0  0.44779  0.47236  0.16929  1.0000
  S   S115      1.0  0.34012  0.21854  0.22062  1.0000
  P   P24       1.0  0.66592  0.17788  0.29010  1.0000
  H   H647      1.0  0.66723  0.28198  0.24234  1.0000
  C   C815      1.0  0.38350  0.47050  0.96470  1.0000
  H   H648      1.0  0.34398  0.22363  0.28625  1.0000
  H   H649      1.0  0.33965  0.25411  0.33272  1.0000
  H   H650      1.0  0.33968  0.26931  0.41789  1.0000
  C   C816      1.0  0.66690  0.98771  0.14044  1.0000
  H   H651      1.0  0.39909  0.12189  0.46329  1.0000
  C   C817      1.0  0.42593  0.98689  0.99185  1.0000
  C   C818      1.0  0.39062  0.48479  0.22889  1.0000
  C   C819      1.0  0.44114  0.25993  0.46403  1.0000
  H   H652      1.0  0.59132  0.21294  0.51914  1.0000
  H   H653      1.0  0.43491  0.31514  0.73821  1.0000
  Fe  Fe60      1.0  0.40056  0.13339  0.74879  1.0000
  S   S116      1.0  0.39363  0.08935  0.72260  1.0000
  H   H654      1.0  0.64437  0.19841  0.50161  1.0000
  Fe  Fe61      1.0  0.46363  0.14620  0.72296  1.0000
  S   S117      1.0  0.46195  0.10272  0.69488  1.0000
  S   S118      1.0  0.50634  0.17573  0.71769  1.0000
  Fe  Fe62      1.0  0.41377  0.11725  0.68510  1.0000
  S   S119      1.0  0.39729  0.11730  0.63798  1.0000
  Fe  Fe63      1.0  0.44245  0.07894  0.73484  1.0000
  S   S120      1.0  0.45437  0.03043  0.75183  1.0000
  S   S121      1.0  0.41691  0.16239  0.71008  1.0000
  S   S122      1.0  0.44784  0.12119  0.76417  1.0000
  C   C820      1.0  0.48241  0.22990  0.74256  1.0000
  C   C821      1.0  0.50676  0.21580  0.72753  1.0000
  H   H655      1.0  0.46264  0.21599  0.74868  1.0000
  C   C822      1.0  0.50562  0.02136  0.71641  1.0000
  H   H656      1.0  0.50351  0.04565  0.70968  1.0000
  C   C823      1.0  0.36574  0.14198  0.63158  1.0000
  H   H657      1.0  0.35290  0.35269  0.53377  1.0000
  C   C824      1.0  0.59274  0.27920  0.57779  1.0000
  H   H658      1.0  0.37560  0.14756  0.58518  1.0000
  C   C825      1.0  0.65945  0.98980  0.95351  1.0000
  C   C826      1.0  0.66038  0.32026  0.64272  1.0000
  H   H659      1.0  0.44035  0.18575  0.49647  1.0000
  H   H660      1.0  0.35866  0.23081  0.48135  1.0000
  H   H661      1.0  0.65612  0.42603  0.76229  1.0000
  C   C827      1.0  0.44050  0.00761  0.66573  1.0000
  Fe  Fe64      1.0  0.61742  0.36773  0.75705  1.0000
  C   C828      1.0  0.52510  0.07261  0.78094  1.0000
  H   H662      1.0  0.40712  0.32888  0.60891  1.0000
  C   C829      1.0  0.35560  0.35173  0.55757  1.0000
  C   C830      1.0  0.34802  0.41430  0.85809  1.0000
  C   C831      1.0  0.36022  0.15355  0.60303  1.0000
  C   C832      1.0  0.58866  0.24793  0.58658  1.0000
  C   C833      1.0  0.59613  0.28696  0.54773  1.0000
  H   H663      1.0  0.57069  0.03572  0.88974  1.0000
  H   H664      1.0  0.61775  0.48090  0.93363  1.0000
  H   H665      1.0  0.40047  0.34816  0.88802  1.0000
  H   H666      1.0  0.54813  0.36737  0.52781  1.0000
  H   H667      1.0  0.39754  0.99405  0.75521  1.0000
  C   C834      1.0  0.64365  0.04090  0.87772  1.0000
  C   C835      1.0  0.65219  0.21584  0.48585  1.0000
  C   C836      1.0  0.54100  0.39109  0.56880  1.0000
  H   H668      1.0  0.49805  0.42512  0.74867  1.0000
  S   S123      1.0  0.51043  0.32086  0.74991  1.0000
  Fe  Fe65      1.0  0.58033  0.40887  0.71640  1.0000
  C   C837      1.0  0.58649  0.99815  0.86140  1.0000
  C   C838      1.0  0.49354  0.29608  0.82730  1.0000
  C   C839      1.0  0.66953  0.09111  0.88054  1.0000
  C   C840      1.0  0.59533  0.46450  0.80104  1.0000
  C   C841      1.0  0.40544  0.26551  0.69218  1.0000
  C   C842      1.0  0.50933  0.28029  0.74176  1.0000
  C   C843      1.0  0.48374  0.26211  0.74969  1.0000
  C   C844      1.0  0.53237  0.23394  0.71994  1.0000
  C   C845      1.0  0.53364  0.26600  0.72701  1.0000
  H   H669      1.0  0.46493  0.27283  0.76138  1.0000
  H   H670      1.0  0.55131  0.22314  0.70842  1.0000
  H   H671      1.0  0.55341  0.27966  0.72074  1.0000
  H   H672      1.0  0.43268  0.42237  0.71155  1.0000
  H   H673      1.0  0.52095  0.40345  0.56098  1.0000
  H   H674      1.0  0.55054  0.00021  0.92830  1.0000
  C   C846      1.0  0.48470  0.00846  0.73653  1.0000
  H   H675      1.0  0.34166  0.44333  0.74889  1.0000
  S   S124      1.0  0.57580  0.46103  0.70930  1.0000
  H   H676      1.0  0.64812  0.46974  0.70145  1.0000
  C   C847      1.0  0.48884  0.47753  0.80453  1.0000
  C   C848      1.0  0.54199  0.04571  0.82524  1.0000
  C   C849      1.0  0.34588  0.14999  0.65463  1.0000
  H   H677      1.0  0.48245  0.99975  0.81528  1.0000
  P   P25       1.0  0.60313  0.32722  0.53640  1.0000
  H   H678      1.0  0.38917  0.45827  0.84351  1.0000
  H   H679      1.0  0.43347  0.34189  0.65374  1.0000
  H   H680      1.0  0.46143  0.36322  0.75501  1.0000
  C   C850      1.0  0.36773  0.39855  0.83860  1.0000
  C   C851      1.0  0.58823  0.22404  0.56549  1.0000
  H   H681      1.0  0.63725  0.34860  0.48330  1.0000
  H   H682      1.0  0.49127  0.27203  0.81972  1.0000
  Fe  Fe66      1.0  0.55415  0.34603  0.73705  1.0000
  C   C852      1.0  0.39085  0.32973  0.75470  1.0000
  P   P26       1.0  0.36913  0.40983  0.80003  1.0000
  C   C853      1.0  0.43467  0.00650  0.85627  1.0000
  C   C854      1.0  0.38599  0.33807  0.60035  1.0000
  C   C855      1.0  0.42103  0.38389  0.77393  1.0000
  C   C856      1.0  0.57836  0.05870  0.78661  1.0000
  H   H683      1.0  0.40111  0.33309  0.55522  1.0000
  C   C857      1.0  0.42216  0.33333  0.74954  1.0000
  C   C858      1.0  0.62726  0.05122  0.85281  1.0000
  H   H684      1.0  0.40194  0.36190  0.83514  1.0000
  C   C859      1.0  0.45903  0.19538  0.50927  1.0000
  C   C860      1.0  0.48695  0.20190  0.49550  1.0000
  C   C861      1.0  0.51105  0.21447  0.51182  1.0000
  C   C862      1.0  0.50724  0.22046  0.54198  1.0000
  C   C863      1.0  0.47910  0.21449  0.55590  1.0000
  C   C864      1.0  0.45513  0.20139  0.53942  1.0000
  P   P27       1.0  0.47537  0.21918  0.59538  1.0000
  C   C865      1.0  0.48831  0.18228  0.61061  1.0000
  C   C866      1.0  0.49721  0.25257  0.60813  1.0000
  C   C867      1.0  0.50956  0.25294  0.63675  1.0000
  C   C868      1.0  0.52768  0.27822  0.64586  1.0000
  C   C869      1.0  0.53253  0.30384  0.62706  1.0000
  C   C870      1.0  0.51899  0.30437  0.59915  1.0000
  C   C871      1.0  0.50130  0.27891  0.58972  1.0000
  C   C872      1.0  0.51860  0.17859  0.62018  1.0000
  C   C873      1.0  0.52835  0.14984  0.63184  1.0000
  C   C874      1.0  0.50829  0.12429  0.63304  1.0000
  C   C875      1.0  0.47857  0.12737  0.62230  1.0000
  C   C876      1.0  0.46862  0.15617  0.61100  1.0000
  C   C877      1.0  0.43619  0.22740  0.60508  1.0000
  C   C878      1.0  0.42277  0.21381  0.63032  1.0000
  C   C879      1.0  0.39206  0.21944  0.63693  1.0000
  C   C880      1.0  0.37478  0.23931  0.61897  1.0000
  C   C881      1.0  0.38829  0.25375  0.59442  1.0000
  C   C882      1.0  0.41887  0.24791  0.58748  1.0000
  H   H685      1.0  0.58530  0.19977  0.57230  1.0000
  H   H686      1.0  0.46691  0.46162  0.68355  1.0000
  H   H687      1.0  0.53273  0.21923  0.50104  1.0000
  H   H688      1.0  0.52627  0.22953  0.55449  1.0000
  H   H689      1.0  0.43350  0.19557  0.54979  1.0000
  H   H690      1.0  0.50548  0.23363  0.65200  1.0000
  H   H691      1.0  0.53801  0.27803  0.66754  1.0000
  H   H692      1.0  0.54677  0.32324  0.63425  1.0000
  H   H693      1.0  0.52239  0.32442  0.58475  1.0000
  H   H694      1.0  0.49093  0.27972  0.56802  1.0000
  H   H695      1.0  0.53473  0.19781  0.61882  1.0000
  H   H696      1.0  0.55135  0.14742  0.64027  1.0000
  H   H697      1.0  0.51567  0.10215  0.64249  1.0000
  H   H698      1.0  0.46294  0.10759  0.62321  1.0000
  H   H699      1.0  0.44542  0.15800  0.60287  1.0000
  H   H700      1.0  0.43572  0.19849  0.64474  1.0000
  H   H701      1.0  0.38152  0.20795  0.65579  1.0000
  H   H702      1.0  0.35079  0.24306  0.62380  1.0000
  H   H703      1.0  0.37489  0.26894  0.58030  1.0000
  H   H704      1.0  0.42868  0.25890  0.56800  1.0000
  H   H705      1.0  0.36630  0.02801  0.78727  1.0000
  H   H706      1.0  0.43223  0.29558  0.49674  1.0000
  S   S125      1.0  0.60006  0.32291  0.73697  1.0000
  C   C883      1.0  0.59295  0.35980  0.58889  1.0000
  H   H707      1.0  0.60124  0.05817  0.77747  1.0000
  H   H708      1.0  0.42130  0.01898  0.95527  1.0000
  C   C884      1.0  0.55140  0.39602  0.59760  1.0000
  C   C885      1.0  0.57746  0.38046  0.60756  1.0000
  H   H709      1.0  0.54676  0.31416  0.50420  1.0000
  H   H710      1.0  0.43334  0.40431  0.78175  1.0000
  H   H711      1.0  0.53945  0.41209  0.61215  1.0000
  H   H712      1.0  0.58581  0.38435  0.62981  1.0000
  H   H713      1.0  0.61337  0.34833  0.59696  1.0000
  S   S126      1.0  0.62826  0.39026  0.71342  1.0000
  C   C886      1.0  0.37398  0.98764  0.75956  1.0000
  C   C887      1.0  0.55650  0.37038  0.55003  1.0000
  H   H714      1.0  0.63824  0.38415  0.55103  1.0000
  C   C888      1.0  0.37453  0.44184  0.66542  1.0000
  C   C889      1.0  0.56331  0.32348  0.48859  1.0000
  C   C890      1.0  0.48592  0.47499  0.69205  1.0000
  H   H715      1.0  0.34541  0.40926  0.64302  1.0000
  C   C891      1.0  0.52951  0.00268  0.70510  1.0000
  C   C892      1.0  0.59281  0.33173  0.49794  1.0000
  C   C893      1.0  0.38957  0.38047  0.77920  1.0000
  C   C894      1.0  0.58247  0.35421  0.56006  1.0000
  H   H716      1.0  0.65734  0.28735  0.52923  1.0000
  H   H717      1.0  0.35000  0.14117  0.67672  1.0000
  C   C895      1.0  0.51885  0.30498  0.84407  1.0000
  C   C896      1.0  0.52228  0.33621  0.85311  1.0000
  C   C897      1.0  0.50071  0.35894  0.84472  1.0000
  C   C898      1.0  0.47471  0.34950  0.82899  1.0000
  P   P28       1.0  0.50470  0.39962  0.85538  1.0000
  C   C899      1.0  0.47688  0.40562  0.88435  1.0000
  C   C900      1.0  0.54278  0.40800  0.86848  1.0000
  C   C901      1.0  0.54737  0.42479  0.89479  1.0000
  C   C902      1.0  0.39775  0.45805  0.76853  1.0000
  C   C903      1.0  0.65403  0.36485  0.54822  1.0000
  C   C904      1.0  0.59777  0.40284  0.86296  1.0000
  C   C905      1.0  0.56825  0.39794  0.85216  1.0000
  C   C906      1.0  0.45032  0.42339  0.87950  1.0000
  C   C907      1.0  0.42931  0.42786  0.90244  1.0000
  C   C908      1.0  0.43417  0.41389  0.93000  1.0000
  C   C909      1.0  0.41346  0.41936  0.69675  1.0000
  C   C910      1.0  0.48131  0.39129  0.91202  1.0000
  C   C911      1.0  0.49901  0.42534  0.82406  1.0000
  C   C912      1.0  0.50091  0.41385  0.79503  1.0000
  H   H718      1.0  0.50631  0.38944  0.79076  1.0000
  C   C913      1.0  0.43715  0.36050  0.75898  1.0000
  C   C914      1.0  0.62422  0.00241  0.80702  1.0000
  C   C915      1.0  0.49386  0.45751  0.82857  1.0000
  P   P29       1.0  0.36656  0.34609  0.65894  1.0000
  H   H719      1.0  0.36358  0.46234  0.65592  1.0000
  H   H720      1.0  0.35043  0.34977  0.77376  1.0000
  H   H721      1.0  0.54183  0.34236  0.86645  1.0000
  H   H722      1.0  0.45743  0.36648  0.82317  1.0000
  H   H723      1.0  0.52833  0.43385  0.90739  1.0000
  H   H724      1.0  0.48991  0.19717  0.47215  1.0000
  H   H725      1.0  0.36438  0.08959  0.79870  1.0000
  H   H726      1.0  0.61727  0.39434  0.85053  1.0000
  H   H727      1.0  0.56534  0.38576  0.83135  1.0000
  H   H728      1.0  0.44555  0.43364  0.85814  1.0000
  H   H729      1.0  0.40901  0.44192  0.89889  1.0000
  H   H730      1.0  0.50130  0.37694  0.91606  1.0000
  H   H731      1.0  0.36592  0.37671  0.92219  1.0000
  H   H732      1.0  0.56014  0.47880  0.77079  1.0000
  C   C916      1.0  0.38658  0.37453  0.84957  1.0000
  H   H733      1.0  0.49353  0.46706  0.85068  1.0000
  C   C917      1.0  0.38574  0.36654  0.87958  1.0000
  C   C918      1.0  0.42526  0.32062  0.66433  1.0000
  H   H734      1.0  0.58010  0.44222  0.92612  1.0000
  C   C919      1.0  0.66468  0.31057  0.53596  1.0000
  C   C920      1.0  0.39921  0.44569  0.68454  1.0000
  C   C921      1.0  0.38870  0.44723  0.79655  1.0000
  C   C922      1.0  0.38158  0.23900  0.47664  1.0000
  H   H735      1.0  0.40736  0.46913  0.68975  1.0000
  H   H736      1.0  0.64067  0.01727  0.88634  1.0000
  C   C923      1.0  0.65351  0.10152  0.85568  1.0000
  H   H737      1.0  0.39370  0.44396  0.74917  1.0000
  H   H738      1.0  0.62046  0.09009  0.82251  1.0000
  H   H739      1.0  0.41432  0.36931  0.69976  1.0000
  S   S127      1.0  0.37138  0.28544  0.51801  1.0000
  C   C924      1.0  0.55495  0.07237  0.77003  1.0000
  C   C925      1.0  0.38416  0.28829  0.68369  1.0000
  H   H740      1.0  0.53598  0.28768  0.84980  1.0000
  H   H741      1.0  0.55975  0.08236  0.74844  1.0000
  H   H742      1.0  0.54569  0.01273  0.68961  1.0000
  H   H743      1.0  0.48633  0.48145  0.75720  1.0000
  C   C926      1.0  0.39325  0.26507  0.49152  1.0000
  S   S128      1.0  0.36404  0.15499  0.77727  1.0000
  C   C927      1.0  0.59568  0.26272  0.52667  1.0000
  C   C928      1.0  0.36624  0.38254  0.89885  1.0000
  C   C929      1.0  0.57095  0.48322  0.79190  1.0000
  H   H744      1.0  0.42896  0.00350  0.80879  1.0000
  S   S129      1.0  0.57081  0.38880  0.76131  1.0000
  C   C930      1.0  0.51441  0.46038  0.69589  1.0000
  C   C931      1.0  0.42773  0.01847  0.82808  1.0000
  H   H745      1.0  0.59909  0.26765  0.50338  1.0000
  S   S130      1.0  0.36808  0.00071  0.92342  1.0000
  H   H746      1.0  0.60350  0.44573  0.78699  1.0000
  H   H747      1.0  0.51728  0.43584  0.69041  1.0000
  C   C932      1.0  0.39388  0.31615  0.66969  1.0000
  H   H748      1.0  0.45426  0.02469  0.65382  1.0000
  C   C933      1.0  0.57210  0.04495  0.81429  1.0000
  C   C934      1.0  0.35633  0.00712  0.77762  1.0000
  C   C935      1.0  0.57248  0.01054  0.88674  1.0000
  H   H749      1.0  0.59371  0.29697  0.59473  1.0000
  H   H750      1.0  0.40051  0.03694  0.66635  1.0000
  C   C936      1.0  0.39273  0.99295  0.68916  1.0000
  C   C937      1.0  0.63246  0.08166  0.84181  1.0000
  C   C938      1.0  0.34746  0.40644  0.88810  1.0000
  H   H751      1.0  0.36023  0.28383  0.68803  1.0000
  H   H752      1.0  0.43535  0.01725  0.90303  1.0000
  C   C939      1.0  0.65582  0.99834  0.81060  1.0000
  C   C940      1.0  0.53935  0.47789  0.70591  1.0000
  C   C941      1.0  0.60212  0.41880  0.88959  1.0000
  C   C942      1.0  0.57690  0.42991  0.90539  1.0000
  C   C943      1.0  0.51866  0.05953  0.80860  1.0000
  S   S131      1.0  0.64916  0.36844  0.79627  1.0000
  S   S132      1.0  0.62169  0.31991  0.65353  1.0000
  H   H753      1.0  0.53601  0.03493  0.84608  1.0000
  H   H754      1.0  0.49535  0.05956  0.81680  1.0000
  H   H755      1.0  0.50686  0.08261  0.76778  1.0000
  C   C944      1.0  0.36440  0.41166  0.65808  1.0000
  H   H756      1.0  0.47055  0.30138  0.66870  1.0000
  H   H757      1.0  0.62802  0.45537  0.83538  1.0000
  C   C945      1.0  0.61414  0.34269  0.47697  1.0000
  H   H758      1.0  0.45170  0.31124  0.80710  1.0000
  C   C946      1.0  0.39538  0.46570  0.82144  1.0000
  S   S133      1.0  0.36414  0.48051  0.93198  1.0000
  C   C947      1.0  0.40311  0.38919  0.68978  1.0000
  C   C948      1.0  0.48997  0.46580  0.77578  1.0000
  C   C949      1.0  0.41020  0.01452  0.67291  1.0000
  H   H759      1.0  0.37930  0.30852  0.74753  1.0000
  C   C950      1.0  0.43157  0.02615  0.88093  1.0000
  C   C951      1.0  0.42221  0.05736  0.87738  1.0000
  C   C952      1.0  0.41618  0.06929  0.84917  1.0000
  C   C953      1.0  0.41916  0.04987  0.82451  1.0000
  C   C954      1.0  0.42309  0.27544  0.48522  1.0000
  H   H760      1.0  0.62501  0.42268  0.89790  1.0000
  C   C955      1.0  0.59160  0.23147  0.53556  1.0000
  H   H761      1.0  0.36942  0.99887  0.69486  1.0000
  C   C956      1.0  0.37895  0.38501  0.66982  1.0000
  S   S134      1.0  0.55939  0.36825  0.69223  1.0000
  C   C957      1.0  0.49631  0.43404  0.77101  1.0000
  P   P30       1.0  0.60220  0.02429  0.83377  1.0000
  C   C958      1.0  0.36193  0.34683  0.61919  1.0000
  C   C959      1.0  0.47127  0.31825  0.82011  1.0000
  Fe  Fe67      1.0  0.60661  0.34755  0.69345  1.0000
  C   C960      1.0  0.43647  0.27004  0.68635  1.0000
  C   C961      1.0  0.46014  0.39565  0.93481  1.0000
  H   H762      1.0  0.58625  0.24230  0.60986  1.0000
  C   C962      1.0  0.38280  0.34059  0.56973  1.0000
  C   C963      1.0  0.60905  0.46988  0.82838  1.0000
  H   H763      1.0  0.45283  0.25203  0.69232  1.0000
  H   H764      1.0  0.53106  0.98768  0.79166  1.0000
  H   H765      1.0  0.41902  0.07207  0.89663  1.0000
  H   H766      1.0  0.40878  0.09343  0.84644  1.0000
  H   H767      1.0  0.41462  0.05907  0.80260  1.0000
  H   H768      1.0  0.65754  0.12496  0.84709  1.0000
  H   H769      1.0  0.39784  0.24396  0.70283  1.0000
  C   C964      1.0  0.64348  0.33472  0.54060  1.0000
  H   H770      1.0  0.65419  0.28255  0.61162  1.0000
  C   C965      1.0  0.44640  0.29770  0.67269  1.0000
  C   C966      1.0  0.37456  0.35320  0.76950  1.0000
  H   H771      1.0  0.41772  0.41703  0.94766  1.0000
  H   H772      1.0  0.49330  0.48111  0.92609  1.0000
  H   H773      1.0  0.64676  0.26074  0.75860  1.0000
  H   H774      1.0  0.65855  0.28895  0.71180  1.0000
  C   C967      1.0  0.66446  0.06087  0.89163  1.0000
  C   C968      1.0  0.67029  0.29883  0.62131  1.0000
  H   H775      1.0  0.46389  0.38505  0.95633  1.0000
  H   H776      1.0  0.66752  0.00722  0.82987  1.0000
  C   C969      1.0  0.34319  0.10056  0.80523  1.0000
  C   C970      1.0  0.56105  0.99050  0.90864  1.0000
  C   C971      1.0  0.66786  0.42876  0.78306  1.0000
  C   C972      1.0  0.66737  0.40443  0.80388  1.0000
  H   H777      1.0  0.58532  0.99127  0.77930  1.0000
  C   C973      1.0  0.66696  0.27544  0.75705  1.0000
  C   C974      1.0  0.60973  0.98911  0.78235  1.0000
  H   H778      1.0  0.47199  0.92885  0.97873  1.0000
  C   C975      1.0  0.66419  0.75094  0.44096  1.0000
  C   C976      1.0  0.52211  0.97161  0.23264  1.0000
  H   H779      1.0  0.43837  0.95864  0.34801  1.0000
  H   H780      1.0  0.57068  0.56307  0.13501  1.0000
  Fe  Fe68      1.0  0.36055  0.61262  0.25746  1.0000
  S   S135      1.0  0.38194  0.60904  0.30282  1.0000
  C   C977      1.0  0.37114  0.96036  0.97166  1.0000
  S   S136      1.0  0.37874  0.63694  0.21687  1.0000
  C   C978      1.0  0.35699  0.59056  0.97110  1.0000
  C   C979      1.0  0.42374  0.90976  0.11225  1.0000
  Fe  Fe69      1.0  0.48291  0.74356  0.43535  1.0000
  Fe  Fe70      1.0  0.50343  0.71967  0.37462  1.0000
  S   S137      1.0  0.49460  0.69828  0.32978  1.0000
  S   S138      1.0  0.47670  0.76191  0.38907  1.0000
  S   S139      1.0  0.50319  0.50158  0.03469  1.0000
  C   C980      1.0  0.47373  0.55214  0.12363  1.0000
  C   C981      1.0  0.38842  0.71552  0.30677  1.0000
  C   C982      1.0  0.36977  0.66871  0.43767  1.0000
  C   C983      1.0  0.42456  0.53521  0.03961  1.0000
  P   P31       1.0  0.39645  0.95043  0.15260  1.0000
  C   C984      1.0  0.65595  0.52396  0.99899  1.0000
  C   C985      1.0  0.34586  0.49322  0.25950  1.0000
  H   H781      1.0  0.43179  0.59662  0.17187  1.0000
  S   S140      1.0  0.37419  0.56802  0.15233  1.0000
  C   C986      1.0  0.41309  0.63413  0.31031  1.0000
  C   C987      1.0  0.42901  0.64905  0.28741  1.0000
  C   C988      1.0  0.45413  0.66843  0.29375  1.0000
  C   C989      1.0  0.46310  0.67360  0.32306  1.0000
  C   C990      1.0  0.44720  0.65876  0.34606  1.0000
  C   C991      1.0  0.42240  0.63884  0.33965  1.0000
  H   H782      1.0  0.42235  0.64524  0.26476  1.0000
  H   H783      1.0  0.46659  0.67957  0.27587  1.0000
  H   H784      1.0  0.45448  0.66207  0.36864  1.0000
  H   H785      1.0  0.41054  0.62703  0.35744  1.0000
  C   C992      1.0  0.38582  0.94807  0.99682  1.0000
  C   C993      1.0  0.39906  0.67038  0.42502  1.0000
  C   C994      1.0  0.34857  0.87264  0.17979  1.0000
  H   H786      1.0  0.40003  0.70622  0.35192  1.0000
  Fe  Fe71      1.0  0.35816  0.59663  0.19164  1.0000
  H   H787      1.0  0.38021  0.58409  0.97646  1.0000
  H   H788      1.0  0.53089  0.88330  0.27263  1.0000
  H   H789      1.0  0.48539  0.58820  0.15502  1.0000
  H   H790      1.0  0.35894  0.58717  0.09227  1.0000
  H   H791      1.0  0.43303  0.51133  0.04083  1.0000
  C   C995      1.0  0.62548  0.51365  0.00156  1.0000
  H   H792      1.0  0.41384  0.49125  0.22322  1.0000
  C   C996      1.0  0.41363  0.96086  0.00657  1.0000
  S   S141      1.0  0.64900  0.93616  0.21040  1.0000
  C   C997      1.0  0.37209  0.89302  0.17113  1.0000
  Fe  Fe72      1.0  0.53789  0.93633  0.08161  1.0000
  H   H793      1.0  0.37981  0.79783  0.36780  1.0000
  S   S142      1.0  0.55859  0.89650  0.10804  1.0000
  H   H794      1.0  0.37849  0.52073  0.03199  1.0000
  C   C998      1.0  0.41286  0.56228  0.14226  1.0000
  H   H795      1.0  0.38833  0.51828  0.26448  1.0000
  H   H796      1.0  0.36493  0.62754  0.39103  1.0000
  H   H797      1.0  0.49014  0.49573  0.15856  1.0000
  H   H798      1.0  0.45481  0.51686  0.09509  1.0000
  S   S143      1.0  0.52147  0.92887  0.03524  1.0000
  C   C999      1.0  0.44728  0.89075  0.10154  1.0000
  Fe  Fe73      1.0  0.52312  0.78378  0.39521  1.0000
  S   S144      1.0  0.54955  0.74240  0.37865  1.0000
  S   S145      1.0  0.53295  0.83090  0.37408  1.0000
  H   H799      1.0  0.49293  0.87357  0.10877  1.0000
  S   S146      1.0  0.52686  0.76963  0.44301  1.0000
  C   C1000     1.0  0.63830  0.52449  0.14221  1.0000
  H   H800      1.0  0.62119  0.74624  0.41799  1.0000
  H   H801      1.0  0.34989  0.49284  0.07327  1.0000
  H   H802      1.0  0.63673  0.84156  0.42503  1.0000
  H   H803      1.0  0.37596  0.94964  0.21499  1.0000
  H   H804      1.0  0.58182  0.90492  0.04432  1.0000
  C   C1001     1.0  0.35838  0.54338  0.42375  1.0000
  C   C1002     1.0  0.63165  0.83711  0.34150  1.0000
  C   C1003     1.0  0.60884  0.85400  0.32695  1.0000
  C   C1004     1.0  0.57841  0.85209  0.33693  1.0000
  C   C1005     1.0  0.57079  0.83278  0.36109  1.0000
  C   C1006     1.0  0.59353  0.81516  0.37494  1.0000
  C   C1007     1.0  0.62388  0.81752  0.36531  1.0000
  H   H805      1.0  0.61478  0.86888  0.30841  1.0000
  H   H806      1.0  0.56077  0.86544  0.32594  1.0000
  H   H807      1.0  0.58787  0.80028  0.39361  1.0000
  H   H808      1.0  0.64141  0.80419  0.37651  1.0000
  C   C1008     1.0  0.58548  0.90793  0.13484  1.0000
  C   C1009     1.0  0.58663  0.93895  0.14475  1.0000
  C   C1010     1.0  0.60641  0.94726  0.16780  1.0000
  C   C1011     1.0  0.62575  0.92481  0.18058  1.0000
  C   C1012     1.0  0.62548  0.89398  0.16996  1.0000
  C   C1013     1.0  0.60514  0.88550  0.14727  1.0000
  H   H809      1.0  0.57180  0.95643  0.13508  1.0000
  H   H810      1.0  0.60660  0.97116  0.17585  1.0000
  H   H811      1.0  0.64039  0.87655  0.17965  1.0000
  H   H812      1.0  0.60439  0.86147  0.13960  1.0000
  C   C1014     1.0  0.35141  0.69570  0.43821  1.0000
  C   C1015     1.0  0.48583  0.97099  0.28905  1.0000
  Fe  Fe74      1.0  0.48140  0.95907  0.04698  1.0000
  H   H813      1.0  0.43267  0.69997  0.40391  1.0000
  H   H814      1.0  0.60254  0.53680  0.17287  1.0000
  C   C1016     1.0  0.38158  0.70898  0.33630  1.0000
  C   C1017     1.0  0.44991  0.97104  0.33022  1.0000
  S   S147      1.0  0.51177  0.54678  0.11137  1.0000
  C   C1018     1.0  0.49617  0.78805  0.31354  1.0000
  C   C1019     1.0  0.47161  0.77258  0.30034  1.0000
  C   C1020     1.0  0.47565  0.75740  0.27330  1.0000
  C   C1021     1.0  0.50435  0.75736  0.25965  1.0000
  C   C1022     1.0  0.52948  0.77172  0.27346  1.0000
  C   C1023     1.0  0.52499  0.78769  0.30019  1.0000
  P   P32       1.0  0.56616  0.77337  0.25521  1.0000
  C   C1024     1.0  0.56983  0.74113  0.22973  1.0000
  C   C1025     1.0  0.56711  0.81101  0.23665  1.0000
  C   C1026     1.0  0.54909  0.81598  0.21142  1.0000
  C   C1027     1.0  0.54852  0.84552  0.19771  1.0000
  C   C1028     1.0  0.56569  0.87029  0.20924  1.0000
  C   C1029     1.0  0.58374  0.86549  0.23424  1.0000
  C   C1030     1.0  0.58403  0.83615  0.24824  1.0000
  C   C1031     1.0  0.58309  0.74557  0.20173  1.0000
  C   C1032     1.0  0.58598  0.72023  0.18230  1.0000
  C   C1033     1.0  0.57604  0.69028  0.19085  1.0000
  C   C1034     1.0  0.56354  0.68556  0.21898  1.0000
  C   C1035     1.0  0.56069  0.71082  0.23847  1.0000
  C   C1036     1.0  0.59757  0.76812  0.28052  1.0000
  C   C1037     1.0  0.59315  0.75309  0.30789  1.0000
  C   C1038     1.0  0.61777  0.74872  0.32710  1.0000
  C   C1039     1.0  0.64699  0.75885  0.31894  1.0000
  C   C1040     1.0  0.40507  0.77952  0.46296  1.0000
  C   C1041     1.0  0.62722  0.77714  0.27205  1.0000
  H   H815      1.0  0.49301  0.79997  0.33441  1.0000
  H   H816      1.0  0.44962  0.77197  0.31133  1.0000
  H   H817      1.0  0.45669  0.74512  0.26318  1.0000
  H   H818      1.0  0.50684  0.74581  0.23852  1.0000
  H   H819      1.0  0.54376  0.79978  0.31082  1.0000
  H   H820      1.0  0.53542  0.79707  0.20243  1.0000
  H   H821      1.0  0.53502  0.84921  0.17795  1.0000
  H   H822      1.0  0.56538  0.89313  0.19854  1.0000
  H   H823      1.0  0.59777  0.88446  0.24263  1.0000
  H   H824      1.0  0.59745  0.83326  0.26808  1.0000
  H   H825      1.0  0.59143  0.76847  0.19493  1.0000
  H   H826      1.0  0.59604  0.72378  0.16063  1.0000
  H   H827      1.0  0.57821  0.67067  0.17576  1.0000
  H   H828      1.0  0.55608  0.66231  0.22576  1.0000
  H   H829      1.0  0.55123  0.70673  0.26036  1.0000
  H   H830      1.0  0.57078  0.74466  0.31447  1.0000
  H   H831      1.0  0.61409  0.73788  0.34853  1.0000
  C   C1042     1.0  0.45461  0.92311  0.15474  1.0000
  C   C1043     1.0  0.36036  0.59990  0.43125  1.0000
  H   H832      1.0  0.63139  0.78779  0.25064  1.0000
  C   C1044     1.0  0.35124  0.70469  0.34528  1.0000
  H   H833      1.0  0.41408  0.65018  0.42542  1.0000
  C   C1045     1.0  0.61111  0.98605  0.98056  1.0000
  C   C1046     1.0  0.66550  0.91349  0.01724  1.0000
  C   C1047     1.0  0.62995  0.54015  0.09131  1.0000
  H   H834      1.0  0.40287  0.91178  0.09955  1.0000
  C   C1048     1.0  0.64839  0.52564  0.11269  1.0000
  H   H835      1.0  0.37028  0.72192  0.26299  1.0000
  C   C1049     1.0  0.40811  0.97200  0.18495  1.0000
  H   H836      1.0  0.43434  0.48907  0.15685  1.0000
  H   H837      1.0  0.59368  0.90169  0.99078  1.0000
  H   H838      1.0  0.45778  0.93532  0.17536  1.0000
  H   H839      1.0  0.57634  0.94425  0.24574  1.0000
  C   C1050     1.0  0.44994  0.53450  0.11157  1.0000
  C   C1051     1.0  0.61046  0.53813  0.15019  1.0000
  C   C1052     1.0  0.36550  0.92386  0.16186  1.0000
  S   S148      1.0  0.67041  0.84123  0.33210  1.0000
  H   H840      1.0  0.58768  0.56458  0.08285  1.0000
  C   C1053     1.0  0.52426  0.97572  0.17912  1.0000
  C   C1054     1.0  0.38229  0.57158  0.03439  1.0000
  C   C1055     1.0  0.40276  0.59680  0.03773  1.0000
  C   C1056     1.0  0.43375  0.59121  0.04249  1.0000
  C   C1057     1.0  0.44462  0.56046  0.04360  1.0000
  C   C1058     1.0  0.61192  0.90509  0.00661  1.0000
  C   C1059     1.0  0.39348  0.54068  0.03490  1.0000
  C   C1060     1.0  0.36353  0.60424  0.40061  1.0000
  H   H841      1.0  0.64720  0.90721  0.97346  1.0000
  C   C1061     1.0  0.38485  0.98093  0.12699  1.0000
  C   C1062     1.0  0.63413  0.73991  0.43745  1.0000
  C   C1063     1.0  0.39768  0.98319  0.09859  1.0000
  C   C1064     1.0  0.66104  0.84597  0.42707  1.0000
  H   H842      1.0  0.47444  0.93024  0.31582  1.0000
  Fe  Fe75      1.0  0.52058  0.50529  0.08126  1.0000
  S   S149      1.0  0.57265  0.48674  0.97963  1.0000
  C   C1065     1.0  0.36210  0.72374  0.42567  1.0000
  C   C1066     1.0  0.51545  0.95940  0.20459  1.0000
  C   C1067     1.0  0.42753  0.92679  0.13853  1.0000
  S   S150      1.0  0.49550  0.96227  0.09456  1.0000
  H   H843      1.0  0.39469  0.62084  0.03722  1.0000
  H   H844      1.0  0.44934  0.61067  0.04590  1.0000
  H   H845      1.0  0.46852  0.55633  0.04824  1.0000
  H   H846      1.0  0.36338  0.52779  0.37869  1.0000
  C   C1068     1.0  0.43673  0.57937  0.15502  1.0000
  C   C1069     1.0  0.47798  0.90367  0.14419  1.0000
  H   H847      1.0  0.62235  0.91615  0.08014  1.0000
  H   H848      1.0  0.39541  0.88469  0.17193  1.0000
  C   C1070     1.0  0.41964  0.54010  0.12034  1.0000
  S   S151      1.0  0.34414  0.57025  0.23257  1.0000
  C   C1071     1.0  0.35723  0.56932  0.44263  1.0000
  C   C1072     1.0  0.47048  0.95506  0.31197  1.0000
  C   C1073     1.0  0.60220  0.55392  0.09945  1.0000
  H   H849      1.0  0.34318  0.82909  0.39602  1.0000
  H   H850      1.0  0.52755  0.93884  0.32896  1.0000
  H   H851      1.0  0.50430  0.93695  0.20217  1.0000
  C   C1074     1.0  0.65723  0.98276  0.07962  1.0000
  C   C1075     1.0  0.35021  0.79206  0.33028  1.0000
  H   H852      1.0  0.61259  0.51827  0.02148  1.0000
  C   C1076     1.0  0.40965  0.69849  0.41267  1.0000
  C   C1077     1.0  0.65891  0.49016  0.41387  1.0000
  H   H853      1.0  0.36778  0.58165  0.35826  1.0000
  C   C1078     1.0  0.39112  0.72512  0.41283  1.0000
  H   H854      1.0  0.40140  0.52706  0.11013  1.0000
  S   S152      1.0  0.43323  0.94291  0.03620  1.0000
  H   H855      1.0  0.66586  0.75631  0.33416  1.0000
  C   C1079     1.0  0.47439  0.88772  0.11747  1.0000
  S   S153      1.0  0.56509  0.97946  0.07071  1.0000
  C   C1080     1.0  0.59248  0.55291  0.12886  1.0000
  H   H856      1.0  0.36673  0.77866  0.31772  1.0000
  Fe  Fe76      1.0  0.54932  0.72601  0.42580  1.0000
  C   C1081     1.0  0.46707  0.57454  0.14547  1.0000
  H   H857      1.0  0.34861  0.74489  0.42736  1.0000
  H   H858      1.0  0.44474  0.87901  0.08045  1.0000
  H   H859      1.0  0.49930  0.90154  0.15612  1.0000
  H   H860      1.0  0.41199  0.71804  0.29980  1.0000
  H   H861      1.0  0.57612  0.92989  0.35459  1.0000
  C   C1082     1.0  0.34614  0.60786  0.08578  1.0000
  C   C1083     1.0  0.65875  0.91613  0.04755  1.0000
  S   S154      1.0  0.50557  0.69903  0.42019  1.0000
  C   C1084     1.0  0.45052  0.88530  0.23659  1.0000
  C   C1085     1.0  0.46492  0.85662  0.24226  1.0000
  C   C1086     1.0  0.49380  0.85617  0.25530  1.0000
  C   C1087     1.0  0.50851  0.88431  0.26254  1.0000
  C   C1088     1.0  0.49423  0.91318  0.25681  1.0000
  C   C1089     1.0  0.46504  0.91350  0.24398  1.0000
  H   H862      1.0  0.42119  0.79142  0.44861  1.0000
  C   C1090     1.0  0.54800  0.94312  0.28535  1.0000
  H   H863      1.0  0.63682  0.54040  0.06829  1.0000
  C   C1091     1.0  0.61154  0.49797  0.97805  1.0000
  C   C1092     1.0  0.65175  0.77286  0.29134  1.0000
  H   H864      1.0  0.35243  0.63002  0.12800  1.0000
  C   C1093     1.0  0.36479  0.57823  0.38183  1.0000
  H   H865      1.0  0.35374  0.84894  0.18699  1.0000
  C   C1094     1.0  0.54838  0.93879  0.31615  1.0000
  C   C1095     1.0  0.57602  0.93389  0.33090  1.0000
  C   C1096     1.0  0.60347  0.93335  0.31511  1.0000
  C   C1097     1.0  0.60329  0.93726  0.28447  1.0000
  C   C1098     1.0  0.57573  0.94186  0.26959  1.0000
  C   C1099     1.0  0.64208  0.90820  0.99689  1.0000
  H   H866      1.0  0.65265  0.86862  0.09045  1.0000
  H   H867      1.0  0.34583  0.48976  0.16775  1.0000
  C   C1100     1.0  0.62830  0.91339  0.05702  1.0000
  P   P33       1.0  0.51255  0.94992  0.26583  1.0000
  P   P34       1.0  0.34205  0.57975  0.03060  1.0000
  H   H868      1.0  0.42807  0.88567  0.22658  1.0000
  H   H869      1.0  0.45368  0.83470  0.23669  1.0000
  H   H870      1.0  0.50486  0.83398  0.25982  1.0000
  C   C1101     1.0  0.60514  0.90735  0.03670  1.0000
  H   H871      1.0  0.45362  0.93560  0.23954  1.0000
  C   C1102     1.0  0.34502  0.49318  0.12070  1.0000
  H   H872      1.0  0.35617  0.51982  0.43268  1.0000
  H   H873      1.0  0.37609  0.92800  0.00819  1.0000
  H   H874      1.0  0.65138  0.51263  0.15913  1.0000
  C   C1103     1.0  0.36495  0.71779  0.28611  1.0000
  H   H875      1.0  0.39985  0.74715  0.40419  1.0000
  H   H876      1.0  0.66253  0.64409  0.41910  1.0000
  H   H877      1.0  0.62484  0.92910  0.32651  1.0000
  H   H878      1.0  0.62454  0.93639  0.27210  1.0000
  C   C1104     1.0  0.37622  0.50020  0.25235  1.0000
  C   C1105     1.0  0.39330  0.96759  0.21224  1.0000
  H   H879      1.0  0.34649  0.69848  0.36804  1.0000
  P   P35       1.0  0.35796  0.63299  0.45593  1.0000
  H   H880      1.0  0.41465  0.96674  0.09109  1.0000
  H   H881      1.0  0.66646  0.53648  0.01707  1.0000
  S   S155      1.0  0.56799  0.48834  0.06954  1.0000
  S   S156      1.0  0.58570  0.70147  0.45278  1.0000
  H   H882      1.0  0.66323  0.87557  0.38849  1.0000
  H   H883      1.0  0.66079  0.82792  0.12804  1.0000
  C   C1106     1.0  0.34254  0.63220  0.10613  1.0000
  H   H884      1.0  0.38743  0.98484  0.25664  1.0000
  Fe  Fe77      1.0  0.54590  0.97413  0.02503  1.0000
  C   C1107     1.0  0.62151  0.71938  0.45838  1.0000
  C   C1108     1.0  0.35754  0.80289  0.35849  1.0000
  H   H885      1.0  0.51916  0.96626  0.15747  1.0000
  H   H886      1.0  0.65266  0.98085  0.05618  1.0000
  S   S157      1.0  0.57291  0.97262  0.98232  1.0000
  C   C1109     1.0  0.65676  0.52035  0.42586  1.0000
  H   H887      1.0  0.63454  0.53103  0.42909  1.0000
  C   C1110     1.0  0.36233  0.54784  0.39336  1.0000
  H   H888      1.0  0.36903  0.81344  0.45639  1.0000
  C   C1111     1.0  0.46803  0.53176  0.87325  1.0000
  H   H889      1.0  0.55593  0.94252  0.92318  1.0000
  Fe  Fe78      1.0  0.42006  0.59753  0.77676  1.0000
  S   S158      1.0  0.39316  0.57992  0.73824  1.0000
  S   S159      1.0  0.41099  0.58083  0.82333  1.0000
  Fe  Fe79      1.0  0.46519  0.63376  0.73759  1.0000
  S   S160      1.0  0.44180  0.61893  0.69559  1.0000
  S   S161      1.0  0.50991  0.66090  0.73740  1.0000
  Fe  Fe80      1.0  0.39833  0.62898  0.72041  1.0000
  S   S162      1.0  0.35770  0.65647  0.70371  1.0000
  Fe  Fe81      1.0  0.43885  0.57119  0.71704  1.0000
  S   S163      1.0  0.44598  0.52440  0.69445  1.0000
  S   S164      1.0  0.42197  0.64753  0.76100  1.0000
  S   S165      1.0  0.46551  0.58503  0.75705  1.0000
  C   C1112     1.0  0.53606  0.71945  0.74183  1.0000
  C   C1113     1.0  0.50867  0.70227  0.74051  1.0000
  H   H890      1.0  0.55767  0.70725  0.74129  1.0000
  H   H891      1.0  0.58485  0.57269  0.96378  1.0000
  H   H892      1.0  0.38036  0.97854  0.84674  1.0000
  C   C1114     1.0  0.35115  0.65875  0.66537  1.0000
  C   C1115     1.0  0.36546  0.63820  0.64567  1.0000
  H   H893      1.0  0.36860  0.62267  0.60039  1.0000
  C   C1116     1.0  0.36106  0.96071  0.74665  1.0000
  H   H894      1.0  0.61208  0.69422  0.70830  1.0000
  H   H895      1.0  0.66396  0.63767  0.62121  1.0000
  C   C1117     1.0  0.39275  0.73659  0.49612  1.0000
  C   C1118     1.0  0.36350  0.74898  0.50067  1.0000
  C   C1119     1.0  0.35477  0.77668  0.48639  1.0000
  H   H896      1.0  0.39918  0.71498  0.50701  1.0000
  Fe  Fe82      1.0  0.55004  0.83832  0.74437  1.0000
  C   C1120     1.0  0.36593  0.56159  0.86103  1.0000
  C   C1121     1.0  0.37262  0.57806  0.83495  1.0000
  H   H897      1.0  0.66954  0.89199  0.78589  1.0000
  S   S166      1.0  0.64581  0.80774  0.69755  1.0000
  H   H898      1.0  0.62004  0.96389  0.93860  1.0000
  C   C1122     1.0  0.34997  0.59766  0.94167  1.0000
  H   H899      1.0  0.56360  0.66747  0.69558  1.0000
  C   C1123     1.0  0.38124  0.64831  0.51120  1.0000
  H   H900      1.0  0.47433  0.86175  0.77574  1.0000
  H   H901      1.0  0.54985  0.67358  0.51345  1.0000
  C   C1124     1.0  0.65117  0.65846  0.61512  1.0000
  C   C1125     1.0  0.65886  0.82289  0.54965  1.0000
  C   C1126     1.0  0.57441  0.51336  0.83734  1.0000
  H   H902      1.0  0.61362  0.76609  0.64643  1.0000
  H   H903      1.0  0.64279  0.92340  0.87220  1.0000
  C   C1127     1.0  0.57397  0.56081  0.91877  1.0000
  S   S167      1.0  0.50616  0.80995  0.74621  1.0000
  C   C1128     1.0  0.66796  0.81884  0.66680  1.0000
  C   C1129     1.0  0.61785  0.71206  0.59867  1.0000
  C   C1130     1.0  0.35818  0.91431  0.69791  1.0000
  C   C1131     1.0  0.41761  0.50584  0.78992  1.0000
  S   S168      1.0  0.59557  0.82454  0.76272  1.0000
  S   S169      1.0  0.55251  0.88676  0.76377  1.0000
  C   C1132     1.0  0.50776  0.76847  0.74479  1.0000
  C   C1133     1.0  0.53563  0.75245  0.74398  1.0000
  C   C1134     1.0  0.48087  0.71829  0.74147  1.0000
  C   C1135     1.0  0.48042  0.75127  0.74353  1.0000
  H   H904      1.0  0.55684  0.76549  0.74488  1.0000
  H   H905      1.0  0.45974  0.70521  0.74058  1.0000
  H   H906      1.0  0.45881  0.76351  0.74409  1.0000
  C   C1136     1.0  0.53058  0.71989  0.51093  1.0000
  C   C1137     1.0  0.53559  0.50983  0.71252  1.0000
  C   C1138     1.0  0.50696  0.52424  0.70932  1.0000
  C   C1139     1.0  0.48208  0.50690  0.69890  1.0000
  C   C1140     1.0  0.62079  0.66173  0.62418  1.0000
  H   H907      1.0  0.55489  0.52351  0.72007  1.0000
  H   H908      1.0  0.50431  0.54892  0.71429  1.0000
  C   C1141     1.0  0.52452  0.92259  0.83485  1.0000
  H   H909      1.0  0.44044  0.72656  0.54339  1.0000
  H   H910      1.0  0.64064  0.57558  0.95468  1.0000
  C   C1142     1.0  0.63863  0.71101  0.48338  1.0000
  H   H911      1.0  0.58050  0.69041  0.62278  1.0000
  C   C1143     1.0  0.64890  0.62380  0.79323  1.0000
  S   S170      1.0  0.61518  0.89118  0.82307  1.0000
  H   H912      1.0  0.35389  0.60504  0.79896  1.0000
  H   H913      1.0  0.62897  0.69500  0.49953  1.0000
  C   C1144     1.0  0.51147  0.95831  0.73373  1.0000
  H   H914      1.0  0.66009  0.72692  0.57746  1.0000
  H   H915      1.0  0.48429  0.50225  0.80815  1.0000
  C   C1145     1.0  0.38395  0.62856  0.48657  1.0000
  C   C1146     1.0  0.58311  0.65382  0.70288  1.0000
  H   H916      1.0  0.46388  0.91535  0.79412  1.0000
  H   H917      1.0  0.47196  0.96711  0.76074  1.0000
  C   C1147     1.0  0.61956  0.77662  0.57272  1.0000
  H   H918      1.0  0.49612  0.55863  0.84385  1.0000
  H   H919      1.0  0.60141  0.95532  0.84005  1.0000
  C   C1148     1.0  0.61711  0.55635  0.88541  1.0000
  C   C1149     1.0  0.41618  0.88166  0.72961  1.0000
  H   H920      1.0  0.42225  0.94685  0.77283  1.0000
  C   C1150     1.0  0.55630  0.58066  0.83956  1.0000
  C   C1151     1.0  0.40856  0.60747  0.48508  1.0000
  H   H921      1.0  0.48806  0.91312  0.86525  1.0000
  C   C1152     1.0  0.36156  0.93551  0.83056  1.0000
  C   C1153     1.0  0.48780  0.97699  0.74503  1.0000
  H   H922      1.0  0.51556  0.71408  0.49271  1.0000
  H   H923      1.0  0.35391  0.56560  0.46614  1.0000
  H   H924      1.0  0.54446  0.65722  0.79363  1.0000
  C   C1154     1.0  0.54831  0.63616  0.80671  1.0000
  H   H925      1.0  0.40449  0.87234  0.71056  1.0000
  C   C1155     1.0  0.45201  0.95592  0.89889  1.0000
  H   H926      1.0  0.39884  0.86574  0.82626  1.0000
  C   C1156     1.0  0.63691  0.56399  0.90853  1.0000
  H   H927      1.0  0.44511  0.50180  0.90468  1.0000
  C   C1157     1.0  0.40934  0.49506  0.81800  1.0000
  H   H928      1.0  0.36326  0.66577  0.51227  1.0000
  C   C1158     1.0  0.65226  0.49352  0.70904  1.0000
  C   C1159     1.0  0.56949  0.70446  0.54608  1.0000
  H   H929      1.0  0.34743  0.88047  0.73231  1.0000
  C   C1160     1.0  0.66419  0.60310  0.84083  1.0000
  H   H930      1.0  0.49447  0.98197  0.90082  1.0000
  H   H931      1.0  0.50683  0.96493  0.95183  1.0000
  H   H932      1.0  0.61528  0.96264  0.74225  1.0000
  H   H933      1.0  0.42400  0.91095  0.95532  1.0000
  C   C1161     1.0  0.62669  0.97277  0.76123  1.0000
  H   H934      1.0  0.34784  0.88933  0.81681  1.0000
  H   H935      1.0  0.36760  0.59676  0.92481  1.0000
  H   H936      1.0  0.51970  0.65135  0.84262  1.0000
  H   H937      1.0  0.63845  0.64571  0.83491  1.0000
  C   C1162     1.0  0.60416  0.68838  0.61593  1.0000
  C   C1163     1.0  0.40133  0.64534  0.53499  1.0000
  C   C1164     1.0  0.42515  0.62361  0.53380  1.0000
  C   C1165     1.0  0.42897  0.60492  0.50872  1.0000
  C   C1166     1.0  0.56705  0.61229  0.79585  1.0000
  C   C1167     1.0  0.43892  0.86340  0.74284  1.0000
  H   H938      1.0  0.42826  0.52869  0.78724  1.0000
  C   C1168     1.0  0.58993  0.96551  0.85890  1.0000
  C   C1169     1.0  0.46699  0.50967  0.89614  1.0000
  H   H939      1.0  0.39823  0.65977  0.55444  1.0000
  H   H940      1.0  0.44075  0.62148  0.55224  1.0000
  H   H941      1.0  0.44783  0.58855  0.50756  1.0000
  C   C1170     1.0  0.53847  0.60530  0.85082  1.0000
  C   C1171     1.0  0.52352  0.53092  0.87428  1.0000
  C   C1172     1.0  0.40680  0.71766  0.70202  1.0000
  C   C1173     1.0  0.39912  0.73093  0.72923  1.0000
  C   C1174     1.0  0.39115  0.76265  0.73083  1.0000
  C   C1175     1.0  0.39056  0.78100  0.70515  1.0000
  C   C1176     1.0  0.39763  0.76758  0.67764  1.0000
  C   C1177     1.0  0.40580  0.73574  0.67624  1.0000
  P   P36       1.0  0.39692  0.79185  0.64491  1.0000
  C   C1178     1.0  0.35811  0.80206  0.63520  1.0000
  C   C1179     1.0  0.42100  0.82539  0.65277  1.0000
  C   C1180     1.0  0.41256  0.85599  0.64443  1.0000
  C   C1181     1.0  0.43205  0.88138  0.65026  1.0000
  C   C1182     1.0  0.45991  0.87642  0.66458  1.0000
  C   C1183     1.0  0.46817  0.84615  0.67344  1.0000
  C   C1184     1.0  0.44881  0.82076  0.66765  1.0000
  C   C1185     1.0  0.35241  0.81715  0.60811  1.0000
  H   H942      1.0  0.66601  0.81670  0.46556  1.0000
  H   H943      1.0  0.36290  0.94396  0.65906  1.0000
  C   C1186     1.0  0.41168  0.77050  0.61349  1.0000
  C   C1187     1.0  0.39319  0.74779  0.59980  1.0000
  C   C1188     1.0  0.40353  0.73201  0.57467  1.0000
  C   C1189     1.0  0.43252  0.73853  0.56311  1.0000
  C   C1190     1.0  0.45116  0.76090  0.57670  1.0000
  C   C1191     1.0  0.44081  0.77692  0.60177  1.0000
  H   H944      1.0  0.41321  0.69310  0.70087  1.0000
  H   H945      1.0  0.39950  0.71658  0.74906  1.0000
  H   H946      1.0  0.38560  0.77295  0.75203  1.0000
  H   H947      1.0  0.38452  0.80561  0.70671  1.0000
  H   H948      1.0  0.41145  0.72463  0.65548  1.0000
  H   H949      1.0  0.39108  0.86040  0.63350  1.0000
  H   H950      1.0  0.42559  0.90495  0.64366  1.0000
  H   H951      1.0  0.47512  0.89600  0.66905  1.0000
  H   H952      1.0  0.48951  0.84237  0.68510  1.0000
  H   H953      1.0  0.45564  0.79747  0.67483  1.0000
  H   H954      1.0  0.37116  0.82399  0.59377  1.0000
  S   S171      1.0  0.45026  0.73509  0.47342  1.0000
  H   H955      1.0  0.37061  0.74236  0.60838  1.0000
  H   H956      1.0  0.47347  0.76609  0.56743  1.0000
  H   H957      1.0  0.45547  0.79448  0.61156  1.0000
  Fe  Fe83      1.0  0.57406  0.90132  0.72102  1.0000
  H   H958      1.0  0.38878  0.71503  0.56398  1.0000
  H   H959      1.0  0.66661  0.71739  0.71258  1.0000
  H   H960      1.0  0.65589  0.66334  0.72714  1.0000
  C   C1192     1.0  0.41889  0.90919  0.84119  1.0000
  H   H961      1.0  0.38414  0.55081  0.87357  1.0000
  C   C1193     1.0  0.63517  0.65129  0.72068  1.0000
  H   H962      1.0  0.55890  0.60986  0.70096  1.0000
  C   C1194     1.0  0.65410  0.79501  0.53413  1.0000
  H   H963      1.0  0.58181  0.92032  0.87895  1.0000
  Fe  Fe84      1.0  0.61387  0.84238  0.71926  1.0000
  C   C1195     1.0  0.57017  0.73513  0.55746  1.0000
  C   C1196     1.0  0.45603  0.87553  0.76614  1.0000
  C   C1197     1.0  0.41437  0.94140  0.84630  1.0000
  C   C1198     1.0  0.65248  0.90635  0.82832  1.0000
  C   C1199     1.0  0.59381  0.56863  0.94177  1.0000
  C   C1200     1.0  0.39511  0.89052  0.83031  1.0000
  S   S172      1.0  0.56789  0.85377  0.70012  1.0000
  C   C1201     1.0  0.34339  0.88767  0.70964  1.0000
  C   C1202     1.0  0.36648  0.90373  0.82487  1.0000
  C   C1203     1.0  0.41202  0.48723  0.76523  1.0000
  H   H964      1.0  0.66140  0.56437  0.90494  1.0000
  C   C1204     1.0  0.48076  0.95707  0.84185  1.0000
  C   C1205     1.0  0.35792  0.63900  0.61547  1.0000
  C   C1206     1.0  0.46664  0.93614  0.95635  1.0000
  C   C1207     1.0  0.56412  0.95797  0.90578  1.0000
  C   C1208     1.0  0.60522  0.60357  0.71620  1.0000
  P   P37       1.0  0.44505  0.96558  0.86060  1.0000
  H   H965      1.0  0.44406  0.84011  0.73455  1.0000
  H   H966      1.0  0.44682  0.93623  0.69870  1.0000
  C   C1209     1.0  0.57226  0.77555  0.67028  1.0000
  C   C1210     1.0  0.54039  0.77627  0.66943  1.0000
  C   C1211     1.0  0.52500  0.76689  0.64398  1.0000
  C   C1212     1.0  0.54149  0.75756  0.61901  1.0000
  C   C1213     1.0  0.57364  0.75794  0.61925  1.0000
  C   C1214     1.0  0.58887  0.76631  0.64536  1.0000
  P   P38       1.0  0.59548  0.74567  0.58733  1.0000
  C   C1215     1.0  0.57137  0.58475  0.81231  1.0000
  C   C1216     1.0  0.64203  0.53499  0.74416  1.0000
  S   S173      1.0  0.56269  0.94808  0.69930  1.0000
  H   H967      1.0  0.55879  0.93875  0.80413  1.0000
  H   H968      1.0  0.58411  0.78242  0.69026  1.0000
  H   H969      1.0  0.52762  0.78401  0.68857  1.0000
  H   H970      1.0  0.50027  0.76666  0.64374  1.0000
  H   H971      1.0  0.52892  0.74984  0.59985  1.0000
  P   P39       1.0  0.56002  0.54456  0.86046  1.0000
  H   H972      1.0  0.34778  0.73700  0.51535  1.0000
  H   H973      1.0  0.51677  0.76829  0.51220  1.0000
  C   C1217     1.0  0.49413  0.49796  0.90805  1.0000
  C   C1218     1.0  0.56055  0.50760  0.80992  1.0000
  C   C1219     1.0  0.52153  0.97141  0.80771  1.0000
  C   C1220     1.0  0.53138  0.75051  0.52189  1.0000
  S   S174      1.0  0.62235  0.89147  0.73567  1.0000
  H   H974      1.0  0.51317  0.93400  0.74034  1.0000
  C   C1221     1.0  0.37560  0.79198  0.46749  1.0000
  H   H975      1.0  0.55215  0.78223  0.55274  1.0000
  C   C1222     1.0  0.53262  0.97110  0.71386  1.0000
  C   C1223     1.0  0.63796  0.50406  0.73475  1.0000
  H   H976      1.0  0.54970  0.55997  0.92331  1.0000
  P   P40       1.0  0.38329  0.93738  0.72101  1.0000
  C   C1224     1.0  0.55138  0.75825  0.54480  1.0000
  C   C1225     1.0  0.35206  0.92345  0.66866  1.0000
  C   C1226     1.0  0.58552  0.55405  0.89049  1.0000
  C   C1227     1.0  0.53695  0.94370  0.81444  1.0000
  C   C1228     1.0  0.62401  0.80498  0.58794  1.0000
  C   C1229     1.0  0.43206  0.93608  0.91460  1.0000
  C   C1230     1.0  0.34886  0.59214  0.81905  1.0000
  C   C1231     1.0  0.61046  0.66884  0.71015  1.0000
  C   C1232     1.0  0.66830  0.72293  0.48741  1.0000
  C   C1233     1.0  0.43958  0.92599  0.94311  1.0000
  H   H977      1.0  0.66006  0.86859  0.67065  1.0000
  C   C1234     1.0  0.40964  0.91193  0.74035  1.0000
  H   H978      1.0  0.41064  0.92849  0.90507  1.0000
  C   C1235     1.0  0.44997  0.90566  0.77666  1.0000
  C   C1236     1.0  0.38522  0.95424  0.84150  1.0000
  C   C1237     1.0  0.66511  0.68211  0.59829  1.0000
  H   H979      1.0  0.52726  0.60301  0.87210  1.0000
  C   C1238     1.0  0.53426  0.63279  0.83430  1.0000
  C   C1239     1.0  0.49674  0.92935  0.84876  1.0000
  H   H980      1.0  0.57779  0.61510  0.77442  1.0000
  H   H981      1.0  0.44065  0.89832  0.84563  1.0000
  C   C1240     1.0  0.42643  0.92354  0.76431  1.0000
  C   C1241     1.0  0.64862  0.70891  0.59025  1.0000
  C   C1242     1.0  0.57878  0.94551  0.88102  1.0000
  H   H982      1.0  0.35216  0.52986  0.78691  1.0000
  H   H983      1.0  0.63050  0.75085  0.53296  1.0000
  C   C1243     1.0  0.65991  0.92119  0.85508  1.0000
  H   H984      1.0  0.58440  0.68638  0.55461  1.0000
  H   H985      1.0  0.63002  0.54282  0.76376  1.0000
  C   C1244     1.0  0.40556  0.96438  0.69862  1.0000
  H   H986      1.0  0.53684  0.90123  0.84021  1.0000
  C   C1245     1.0  0.47894  0.96645  0.91252  1.0000
  H   H987      1.0  0.54170  0.52200  0.80242  1.0000
  C   C1246     1.0  0.59809  0.49359  0.84689  1.0000
  C   C1247     1.0  0.48615  0.95665  0.94121  1.0000
  H   H988      1.0  0.42374  0.49651  0.95208  1.0000
  C   C1248     1.0  0.49611  0.54197  0.86200  1.0000
  H   H989      1.0  0.44704  0.54142  0.86443  1.0000
  Fe  Fe85      1.0  0.60033  0.87468  0.77766  1.0000
  H   H990      1.0  0.38174  0.62118  0.65380  1.0000
  H   H991      1.0  0.64709  0.84975  0.58821  1.0000
  C   C1249     1.0  0.49355  0.97807  0.82118  1.0000
  H   H992      1.0  0.60816  0.49620  0.86855  1.0000
  H   H993      1.0  0.63758  0.64208  0.78078  1.0000
  C   C1250     1.0  0.66094  0.55563  0.72808  1.0000
  C   C1251     1.0  0.41366  0.75173  0.47736  1.0000
  H   H994      1.0  0.60996  0.64352  0.63738  1.0000
  C   C1252     1.0  0.63278  0.61850  0.72376  1.0000
  C   C1253     1.0  0.64341  0.82807  0.57625  1.0000
  H   H995      1.0  0.61285  0.80954  0.60881  1.0000
  H   H996      1.0  0.60236  0.57844  0.71872  1.0000
  H   H997      1.0  0.62645  0.55177  0.86368  1.0000
  C   C1254     1.0  0.54978  0.69697  0.52285  1.0000
  C   C1255     1.0  0.58049  0.62124  0.70591  1.0000
  C   C1256     1.0  0.52233  0.50841  0.89707  1.0000
  C   C1257     1.0  0.64937  0.62602  0.82404  1.0000
  H   H998      1.0  0.58624  0.56676  0.80358  1.0000
  C   C1258     1.0  0.43598  0.95758  0.69112  1.0000
  C   C1259     1.0  0.63412  0.77225  0.54534  1.0000
  C   C1260     1.0  0.65920  0.50178  0.94994  1.0000
  H   H999      1.0  0.33911  0.94547  0.82698  1.0000
  H   H1000     1.0  0.54319  0.49930  0.90671  1.0000
  H   H1001     1.0  0.66622  0.79078  0.51362  1.0000
  C   C1261     1.0  0.62845  0.49233  0.95216  1.0000
  C   C1262     1.0  0.62524  0.57028  0.93664  1.0000
  H   H1002     1.0  0.41312  0.50985  0.83706  1.0000
  C   C1263     1.0  0.62928  0.97853  0.95591  1.0000
  C   C1264     1.0  0.65819  0.96924  0.76472  1.0000
  H   H1003     1.0  0.33870  0.48773  0.82262  1.0000
  H   H1004     1.0  0.41852  0.49565  0.74351  1.0000
  C   C1265     1.0  0.38406  0.98579  0.95637  1.0000
  H   H1005     1.0  0.62314  0.48831  0.74705  1.0000
  C   C1266     1.0  0.66316  0.59844  0.77897  1.0000
  P   P41       1.0  0.66422  0.59627  0.73908  1.0000
  H   H1006     1.0  0.47704  0.97407  0.66968  1.0000
  C   C1267     1.0  0.45328  0.97904  0.67459  1.0000
  H   H1007     1.0  0.66509  0.60526  0.86464  1.0000
  H   H1008     1.0  0.35023  0.94979  0.96373  1.0000
  H   H1009     1.0  0.41230  0.59323  0.46566  1.0000
  Fe  Fe86      1.0  0.75349  0.39554  0.25550  1.0000
  S   S175      1.0  0.73063  0.37966  0.21381  1.0000
  S   S176      1.0  0.79729  0.42352  0.25305  1.0000
  Fe  Fe87      1.0  0.72466  0.33341  0.23725  1.0000
  S   S177      1.0  0.72990  0.28522  0.21677  1.0000
  S   S178      1.0  0.75136  0.34791  0.27707  1.0000
  Fe  Fe88      1.0  0.85835  0.16169  0.24483  1.0000
  S   S179      1.0  0.84729  0.13556  0.28675  1.0000
  S   S180      1.0  0.85455  0.21463  0.24398  1.0000
  H   H1010     1.0  0.70925  0.28456  0.35282  1.0000
  C   C1268     1.0  0.70623  0.24158  0.37787  1.0000
  C   C1269     1.0  0.90689  0.47311  0.16807  1.0000
  C   C1270     1.0  0.92717  0.24721  0.45113  1.0000
  C   C1271     1.0  0.81420  0.18057  0.39132  1.0000
  Fe  Fe89      1.0  0.89128  0.11022  0.27821  1.0000
  S   S181      1.0  0.92233  0.09743  0.31573  1.0000
  C   C1272     1.0  0.95622  0.26366  0.27831  1.0000
  S   S182      1.0  0.90457  0.13927  0.23879  1.0000
  C   C1273     1.0  0.92798  0.48535  0.21613  1.0000
  H   H1011     1.0  0.83412  0.27857  0.45669  1.0000
  Fe  Fe90      1.0  0.87921  0.10260  0.21301  1.0000
  S   S183      1.0  0.86961  0.07151  0.25206  1.0000
  C   C1274     1.0  0.92635  0.09425  0.42215  1.0000
  H   H1012     1.0  0.83985  0.40288  0.30972  1.0000
  C   C1275     1.0  0.81730  0.02334  0.19192  1.0000
  C   C1276     1.0  0.80560  0.02245  0.28322  1.0000
  H   H1013     1.0  0.87552  0.22480  0.41214  1.0000
  C   C1277     1.0  0.94289  0.34680  0.41012  1.0000
  C   C1278     1.0  0.98488  0.08919  0.16254  1.0000
  H   H1014     1.0  0.75898  0.43260  0.12095  1.0000
  C   C1279     1.0  0.71982  0.10128  0.38053  1.0000
  H   H1015     1.0  0.78539  0.07414  0.39745  1.0000
  H   H1016     1.0  0.97127  0.17517  0.45581  1.0000
  H   H1017     1.0  0.93413  0.31926  0.32907  1.0000
  H   H1018     1.0  0.68178  0.24349  0.38131  1.0000
  H   H1019     1.0  0.78185  0.29701  0.44502  1.0000
  H   H1020     1.0  0.75313  0.99371  0.01073  1.0000
  H   H1021     1.0  0.92422  0.09559  0.07271  1.0000
  P   P42       1.0  0.89013  0.08243  0.43794  1.0000
  H   H1022     1.0  0.76808  0.39076  0.15815  1.0000
  C   C1280     1.0  0.95561  0.12050  0.31782  1.0000
  C   C1281     1.0  0.69196  0.47783  0.04653  1.0000
  C   C1282     1.0  0.86203  0.13838  0.45488  1.0000
  H   H1023     1.0  0.74513  0.46577  0.25338  1.0000
  C   C1283     1.0  0.98380  0.16250  0.34185  1.0000
  C   C1284     1.0  0.95617  0.14680  0.33625  1.0000
  H   H1024     1.0  0.68724  0.33007  0.43560  1.0000
  H   H1025     1.0  0.67799  0.37001  0.39714  1.0000
  H   H1026     1.0  0.79237  0.43599  0.31456  1.0000
  H   H1027     1.0  0.93552  0.15405  0.34741  1.0000
  C   C1285     1.0  0.83089  0.20480  0.40477  1.0000
  C   C1286     1.0  0.74064  0.40944  0.36514  1.0000
  C   C1287     1.0  0.76010  0.14025  0.34929  1.0000
  C   C1288     1.0  0.99125  0.07140  0.13718  1.0000
  C   C1289     1.0  0.97376  0.01813  0.20790  1.0000
  H   H1028     1.0  0.81812  0.13814  0.36499  1.0000
  H   H1029     1.0  0.87392  0.14119  0.35973  1.0000
  C   C1290     1.0  0.93458  0.01106  0.98415  1.0000
  H   H1030     1.0  0.94989  0.10600  0.19243  1.0000
  C   C1291     1.0  0.79428  0.46479  0.25393  1.0000
  H   H1031     1.0  0.87497  0.28163  0.41911  1.0000
  S   S184      1.0  0.96953  0.03042  0.99143  1.0000
  H   H1032     1.0  0.71487  0.07598  0.33955  1.0000
  C   C1292     1.0  0.75317  0.26236  0.35730  1.0000
  C   C1293     1.0  0.75420  0.19465  0.45484  1.0000
  C   C1294     1.0  0.82092  0.48310  0.25497  1.0000
  C   C1295     1.0  0.75524  0.14547  0.37952  1.0000
  P   P43       1.0  0.77340  0.17837  0.39763  1.0000
  H   H1033     1.0  0.84712  0.38241  0.25911  1.0000
  C   C1296     1.0  0.76467  0.26558  0.22396  1.0000
  C   C1297     1.0  0.76809  0.23387  0.21605  1.0000
  C   C1298     1.0  0.79562  0.21789  0.22176  1.0000
  C   C1299     1.0  0.81979  0.23356  0.23559  1.0000
  C   C1300     1.0  0.81645  0.26526  0.24317  1.0000
  C   C1301     1.0  0.78908  0.28123  0.23735  1.0000
  H   H1034     1.0  0.74938  0.22161  0.20557  1.0000
  H   H1035     1.0  0.79806  0.19349  0.21560  1.0000
  H   H1036     1.0  0.83513  0.27753  0.25360  1.0000
  H   H1037     1.0  0.78711  0.30579  0.24284  1.0000
  C   C1302     1.0  0.93739  0.05862  0.13331  1.0000
  C   C1303     1.0  0.76581  0.47961  0.25403  1.0000
  H   H1038     1.0  0.73021  0.44527  0.20342  1.0000
  C   C1304     1.0  0.93468  0.12611  0.42070  1.0000
  H   H1039     1.0  0.92538  0.05162  0.03699  1.0000
  H   H1040     1.0  0.89618  0.33358  0.41620  1.0000
  P   P44       1.0  0.69081  0.43739  0.39360  1.0000
  H   H1041     1.0  0.86676  0.32861  0.25143  1.0000
  H   H1042     1.0  0.71701  0.48483  0.35348  1.0000
  C   C1305     1.0  0.72171  0.26480  0.36189  1.0000
  C   C1306     1.0  0.98159  0.99682  0.26587  1.0000
  C   C1307     1.0  0.78028  0.03743  0.27089  1.0000
  H   H1043     1.0  0.77854  0.38780  0.34259  1.0000
  C   C1308     1.0  0.95747  0.03215  0.23093  1.0000
  C   C1309     1.0  0.68341  0.45763  0.02364  1.0000
  C   C1310     1.0  0.83640  0.01353  0.16894  1.0000
  H   H1044     1.0  0.98329  0.34079  0.34612  1.0000
  H   H1045     1.0  0.77057  0.31932  0.39562  1.0000
  C   C1311     1.0  0.87223  0.02164  0.45502  1.0000
  H   H1046     1.0  0.85242  0.36963  0.35310  1.0000
  C   C1312     1.0  0.96857  0.23439  0.22438  1.0000
  C   C1313     1.0  0.93882  0.23452  0.23570  1.0000
  C   C1314     1.0  0.93264  0.24912  0.26265  1.0000
  H   H1047     1.0  0.93987  0.04692  0.41030  1.0000
  C   C1315     1.0  0.91231  0.46927  0.96999  1.0000
  C   C1316     1.0  0.79813  0.04916  0.18782  1.0000
  H   H1048     1.0  0.98949  0.35777  0.39791  1.0000
  H   H1049     1.0  0.87961  0.29522  0.29384  1.0000
  H   H1050     1.0  0.71614  0.44095  0.45411  1.0000
  H   H1051     1.0  0.91911  0.04642  0.12208  1.0000
  H   H1052     1.0  0.71331  0.13696  0.26355  1.0000
  H   H1053     1.0  0.98947  0.06300  0.38894  1.0000
  C   C1317     1.0  0.86246  0.07876  0.40843  1.0000
  C   C1318     1.0  0.99247  0.24852  0.24020  1.0000
  H   H1054     1.0  0.70372  0.08654  0.39246  1.0000
  H   H1055     1.0  0.70105  0.41471  0.16611  1.0000
  H   H1056     1.0  0.94548  0.35466  0.43272  1.0000
  H   H1057     1.0  0.98503  0.98952  0.28856  1.0000
  H   H1058     1.0  0.97288  0.22317  0.20333  1.0000
  H   H1059     1.0  0.92042  0.22330  0.22363  1.0000
  H   H1060     1.0  0.90951  0.24910  0.27124  1.0000
  C   C1319     1.0  0.91218  0.25217  0.34909  1.0000
  C   C1320     1.0  0.72311  0.43680  0.36858  1.0000
  H   H1061     1.0  0.85167  0.02184  0.12451  1.0000
  C   C1321     1.0  0.80957  0.07466  0.39233  1.0000
  C   C1322     1.0  0.87749  0.08730  0.08586  1.0000
  H   H1062     1.0  0.70978  0.22441  0.31175  1.0000
  C   C1323     1.0  0.93048  0.47050  0.18873  1.0000
  C   C1324     1.0  0.96167  0.02177  0.25997  1.0000
  H   H1063     1.0  0.93048  0.26355  0.36103  1.0000
  C   C1325     1.0  0.82481  0.46090  0.15117  1.0000
  H   H1064     1.0  0.91967  0.14433  0.42882  1.0000
  C   C1326     1.0  0.76962  0.17289  0.43704  1.0000
  C   C1327     1.0  0.76551  0.40915  0.34566  1.0000
  C   C1328     1.0  0.72587  0.09545  0.35073  1.0000
  C   C1329     1.0  0.76924  0.23658  0.36861  1.0000
  H   H1065     1.0  0.94071  0.21325  0.33695  1.0000
  C   C1330     1.0  0.79890  0.45932  0.13300  1.0000
  C   C1331     1.0  0.77878  0.43388  0.13520  1.0000
  C   C1332     1.0  0.78385  0.41032  0.15618  1.0000
  C   C1333     1.0  0.80898  0.41228  0.17505  1.0000
  C   C1334     1.0  0.82946  0.43745  0.17260  1.0000
  C   C1335     1.0  0.75467  0.01965  0.26275  1.0000
  H   H1066     1.0  0.89958  0.18517  0.30996  1.0000
  S   S185      1.0  0.94522  0.22612  0.42280  1.0000
  C   C1336     1.0  0.90400  0.08127  0.06949  1.0000
  H   H1067     1.0  0.76547  0.23052  0.30460  1.0000
  S   S186      1.0  0.71086  0.41262  0.27758  1.0000
  H   H1068     1.0  0.73647  0.48261  0.41429  1.0000
  H   H1069     1.0  0.75681  0.06595  0.01076  1.0000
  H   H1070     1.0  0.89772  0.20853  0.46255  1.0000
  H   H1071     1.0  0.68441  0.22800  0.24929  1.0000
  H   H1072     1.0  0.84436  0.45489  0.09415  1.0000
  C   C1337     1.0  0.69417  0.45434  0.13737  1.0000
  H   H1073     1.0  0.00386  0.27541  0.27936  1.0000
  C   C1338     1.0  0.73430  0.12627  0.39487  1.0000
  C   C1339     1.0  0.87815  0.18278  0.38631  1.0000
  C   C1340     1.0  0.75384  0.21320  0.38486  1.0000
  C   C1341     1.0  0.96272  0.13492  0.40834  1.0000
  Fe  Fe91      1.0  0.70608  0.36343  0.29475  1.0000
  C   C1342     1.0  0.80536  0.98976  0.28727  1.0000
  H   H1074     1.0  0.81232  0.39454  0.19200  1.0000
  H   H1075     1.0  0.84843  0.43867  0.18783  1.0000
  H   H1076     1.0  0.73499  0.03118  0.25327  1.0000
  H   H1077     1.0  0.70996  0.19848  0.40220  1.0000
  H   H1078     1.0  0.90286  0.18372  0.38459  1.0000
  H   H1079     1.0  0.77510  0.15549  0.33667  1.0000
  C   C1343     1.0  0.97434  0.08048  0.39828  1.0000
  H   H1080     1.0  0.85638  0.14130  0.43185  1.0000
  H   H1081     1.0  0.83729  0.25990  0.32992  1.0000
  H   H1082     1.0  0.75043  0.11050  0.31203  1.0000
  H   H1083     1.0  0.97193  0.04259  0.10298  1.0000
  C   C1344     1.0  0.91804  0.22325  0.33572  1.0000
  C   C1345     1.0  0.98268  0.11036  0.30438  1.0000
  H   H1084     1.0  0.76137  0.48411  0.31973  1.0000
  H   H1085     1.0  0.87775  0.10626  0.10171  1.0000
  C   C1346     1.0  0.72420  0.15722  0.27335  1.0000
  H   H1086     1.0  0.79345  0.23486  0.36414  1.0000
  C   C1347     1.0  0.75400  0.20959  0.29684  1.0000
  C   C1348     1.0  0.77070  0.18673  0.28187  1.0000
  C   C1349     1.0  0.75578  0.16073  0.26993  1.0000
  S   S187      1.0  0.89270  0.07931  0.17029  1.0000
  C   C1350     1.0  0.83633  0.02949  0.14183  1.0000
  C   C1351     1.0  0.90475  0.05631  0.04953  1.0000
  H   H1087     1.0  0.92792  0.45531  0.98302  1.0000
  C   C1352     1.0  0.86267  0.20596  0.40205  1.0000
  H   H1088     1.0  0.79512  0.18952  0.27884  1.0000
  H   H1089     1.0  0.76872  0.14350  0.25755  1.0000
  H   H1090     1.0  0.69682  0.45688  0.00347  1.0000
  H   H1091     1.0  0.81106  0.32305  0.35779  1.0000
  H   H1092     1.0  0.82517  0.03609  0.29008  1.0000
  C   C1353     1.0  0.82805  0.16293  0.14115  1.0000
  C   C1354     1.0  0.81034  0.18265  0.12345  1.0000
  C   C1355     1.0  0.79482  0.17035  0.09912  1.0000
  C   C1356     1.0  0.79678  0.13827  0.09262  1.0000
  C   C1357     1.0  0.81414  0.11816  0.11062  1.0000
  C   C1358     1.0  0.83004  0.13088  0.13470  1.0000
  P   P45       1.0  0.81683  0.07653  0.10280  1.0000
  C   C1359     1.0  0.78391  0.06438  0.08152  1.0000
  C   C1360     1.0  0.85136  0.06854  0.08211  1.0000
  C   C1361     1.0  0.87637  0.47334  0.06304  1.0000
  C   C1362     1.0  0.74592  0.11498  0.33516  1.0000
  C   C1363     1.0  0.72224  0.21601  0.38949  1.0000
  C   C1364     1.0  0.70939  0.41696  0.44978  1.0000
  C   C1365     1.0  0.85251  0.04311  0.06235  1.0000
  C   C1366     1.0  0.78301  0.07025  0.05094  1.0000
  C   C1367     1.0  0.75739  0.06166  0.03442  1.0000
  C   C1368     1.0  0.73247  0.04729  0.04828  1.0000
  C   C1369     1.0  0.73327  0.04093  0.07856  1.0000
  C   C1370     1.0  0.75886  0.04944  0.09518  1.0000
  C   C1371     1.0  0.81720  0.05555  0.13762  1.0000
  C   C1372     1.0  0.96761  0.34871  0.39057  1.0000
  C   C1373     1.0  0.98601  0.26362  0.26706  1.0000
  H   H1093     1.0  0.78345  0.05686  0.20567  1.0000
  H   H1094     1.0  0.87113  0.45577  0.04651  1.0000
  C   C1374     1.0  0.73064  0.46369  0.35191  1.0000
  H   H1095     1.0  0.84030  0.17247  0.15991  1.0000
  H   H1096     1.0  0.80876  0.20747  0.12857  1.0000
  H   H1097     1.0  0.78129  0.18572  0.08524  1.0000
  H   H1098     1.0  0.78462  0.12940  0.07365  1.0000
  H   H1099     1.0  0.84399  0.11598  0.14858  1.0000
  C   C1375     1.0  0.98271  0.11214  0.39750  1.0000
  H   H1100     1.0  0.95355  0.28948  0.44525  1.0000
  C   C1376     1.0  0.99395  0.99351  0.21377  1.0000
  H   H1101     1.0  0.84759  0.20803  0.30781  1.0000
  H   H1102     1.0  0.83298  0.02777  0.05950  1.0000
  H   H1103     1.0  0.80206  0.08157  0.03982  1.0000
  C   C1377     1.0  0.94623  0.07153  0.41044  1.0000
  H   H1104     1.0  0.71272  0.04074  0.03534  1.0000
  H   H1105     1.0  0.71410  0.02924  0.08912  1.0000
  H   H1106     1.0  0.75890  0.04421  0.11855  1.0000
  C   C1378     1.0  0.70720  0.17996  0.28869  1.0000
  S   S188      1.0  0.78013  0.07838  0.26595  1.0000
  H   H1107     1.0  0.79475  0.12933  0.43679  1.0000
  H   H1108     1.0  0.69358  0.17240  0.34928  1.0000
  H   H1109     1.0  0.94962  0.03336  0.27788  1.0000
  C   C1379     1.0  0.79813  0.06530  0.16087  1.0000
  H   H1110     1.0  0.78330  0.08543  0.15821  1.0000
  C   C1380     1.0  0.81926  0.07169  0.36299  1.0000
  C   C1381     1.0  0.85042  0.07238  0.35630  1.0000
  C   C1382     1.0  0.87194  0.07577  0.37887  1.0000
  C   C1383     1.0  0.82996  0.15748  0.37517  1.0000
  H   H1111     1.0  0.68083  0.44071  0.12192  1.0000
  H   H1112     1.0  0.80269  0.06902  0.34535  1.0000
  H   H1113     1.0  0.85804  0.07037  0.33352  1.0000
  H   H1114     1.0  0.89589  0.07619  0.37290  1.0000
  C   C1384     1.0  0.70564  0.43942  0.16251  1.0000
  S   S189      1.0  0.83398  0.12753  0.21562  1.0000
  C   C1385     1.0  0.87904  0.03721  0.04599  1.0000
  C   C1386     1.0  0.67395  0.47994  0.07220  1.0000
  C   C1387     1.0  0.93089  0.07671  0.15835  1.0000
  H   H1115     1.0  0.85143  0.02538  0.44274  1.0000
  C   C1388     1.0  0.86180  0.15880  0.37247  1.0000
  C   C1389     1.0  0.96737  0.05622  0.12258  1.0000
  H   H1116     1.0  0.76492  0.28030  0.34454  1.0000
  H   H1117     1.0  0.81932  0.22265  0.41762  1.0000
  C   C1390     1.0  0.95471  0.09202  0.17306  1.0000
  H   H1118     1.0  0.72875  0.13062  0.41782  1.0000
  S   S190      1.0  0.69377  0.34783  0.34073  1.0000
  C   C1391     1.0  0.83107  0.07817  0.41497  1.0000
  Fe  Fe92      1.0  0.82660  0.09932  0.25700  1.0000
  H   H1119     1.0  0.95071  0.45695  0.18347  1.0000
  C   C1392     1.0  0.86338  0.33733  0.27369  1.0000
  C   C1393     1.0  0.85228  0.36768  0.27801  1.0000
  C   C1394     1.0  0.84817  0.37915  0.30663  1.0000
  C   C1395     1.0  0.85509  0.36019  0.33104  1.0000
  C   C1396     1.0  0.86566  0.32937  0.32690  1.0000
  C   C1397     1.0  0.87032  0.31831  0.29797  1.0000
  P   P46       1.0  0.87659  0.30592  0.35853  1.0000
  C   C1398     1.0  0.91170  0.32345  0.37158  1.0000
  C   C1399     1.0  0.84649  0.30368  0.38594  1.0000
  C   C1400     1.0  0.85236  0.29023  0.41373  1.0000
  C   C1401     1.0  0.82921  0.28816  0.43501  1.0000
  C   C1402     1.0  0.79979  0.29869  0.42849  1.0000
  C   C1403     1.0  0.79351  0.31139  0.40066  1.0000
  C   C1404     1.0  0.81667  0.31369  0.37935  1.0000
  C   C1405     1.0  0.93632  0.32667  0.35181  1.0000
  C   C1406     1.0  0.72244  0.20611  0.30058  1.0000
  C   C1407     1.0  0.96418  0.33899  0.36135  1.0000
  Fe  Fe93      1.0  0.68745  0.39453  0.23684  1.0000
  C   C1408     1.0  0.91493  0.33442  0.40067  1.0000
  C   C1409     1.0  0.88327  0.26612  0.34644  1.0000
  C   C1410     1.0  0.85975  0.24959  0.33221  1.0000
  C   C1411     1.0  0.86556  0.22033  0.31945  1.0000
  C   C1412     1.0  0.89486  0.20744  0.32064  1.0000
  H   H1120     1.0  0.96876  0.15956  0.40650  1.0000
  H   H1121     1.0  0.68131  0.27683  0.42885  1.0000
  C   C1413     1.0  0.67302  0.26021  0.44508  1.0000
  H   H1122     1.0  0.73490  0.38811  0.37701  1.0000
  H   H1123     1.0  0.87973  0.01781  0.03051  1.0000
  H   H1124     1.0  0.94190  0.05136  0.22626  1.0000
  C   C1414     1.0  0.72195  0.45655  0.18355  1.0000
  C   C1415     1.0  0.77317  0.43619  0.32967  1.0000
  C   C1416     1.0  0.75568  0.46339  0.33268  1.0000
  H   H1125     1.0  0.97092  0.02653  0.18543  1.0000
  H   H1126     1.0  0.74464  0.21594  0.44564  1.0000
  C   C1417     1.0  0.67146  0.00909  0.97558  1.0000
  H   H1127     1.0  0.98422  0.18186  0.35716  1.0000
  C   C1418     1.0  0.69614  0.40858  0.42267  1.0000
  H   H1128     1.0  0.82330  0.08001  0.43764  1.0000
  C   C1419     1.0  0.69316  0.35437  0.43964  1.0000
  H   H1129     1.0  0.81748  0.01116  0.21302  1.0000
  H   H1130     1.0  0.81064  0.46667  0.00953  1.0000
  H   H1131     1.0  0.98246  0.08975  0.29044  1.0000
  H   H1132     1.0  0.90914  0.46133  0.14699  1.0000
  H   H1133     1.0  0.95150  0.27491  0.29921  1.0000
  C   C1420     1.0  0.93487  0.27843  0.45708  1.0000
  S   S191      1.0  0.70863  0.02517  0.97299  1.0000
  H   H1134     1.0  0.79441  0.47775  0.11705  1.0000
  C   C1421     1.0  0.78255  0.14614  0.45018  1.0000
  H   H1135     1.0  0.85168  0.99388  0.17227  1.0000
  C   C1422     1.0  0.86102  0.47316  0.09016  1.0000
  C   C1423     1.0  0.91284  0.02658  0.96666  1.0000
  C   C1424     1.0  0.89507  0.04486  0.45619  1.0000
  H   H1136     1.0  0.00329  0.10083  0.17396  1.0000
  Fe  Fe94      1.0  0.99376  0.23871  0.41083  1.0000
  H   H1137     1.0  0.84302  0.47177  0.25518  1.0000
  S   S192      1.0  0.67892  0.34672  0.25615  1.0000
  C   C1425     1.0  0.68763  0.47633  0.40923  1.0000
  H   H1138     1.0  0.94617  0.48328  0.23220  1.0000
  C   C1426     1.0  0.68797  0.37709  0.41789  1.0000
  H   H1139     1.0  0.67443  0.44395  0.33053  1.0000
  H   H1140     1.0  0.67110  0.15934  0.39820  1.0000
  C   C1427     1.0  0.69934  0.48656  0.13297  1.0000
  C   C1428     1.0  0.75472  0.98680  0.26618  1.0000
  C   C1429     1.0  0.87786  0.11161  0.46448  1.0000
  C   C1430     1.0  0.97942  0.20329  0.49411  1.0000
  C   C1431     1.0  0.84771  0.06779  0.70485  1.0000
  Fe  Fe95      1.0  0.78719  0.04046  0.89254  1.0000
  H   H1141     1.0  0.97387  0.34457  0.61976  1.0000
  S   S193      1.0  0.79698  0.08669  0.86921  1.0000
  S   S194      1.0  0.72549  0.27415  0.47524  1.0000
  H   H1142     1.0  0.86728  0.23889  0.49874  1.0000
  H   H1143     1.0  0.93097  0.22384  0.55220  1.0000
  S   S195      1.0  0.73921  0.02183  0.88878  1.0000
  C   C1432     1.0  0.97979  0.20414  0.52492  1.0000
  P   P47       1.0  0.93299  0.32749  0.66867  1.0000
  Fe  Fe96      1.0  0.82431  0.28227  0.52906  1.0000
  S   S196      1.0  0.80283  0.24061  0.50740  1.0000
  S   S197      1.0  0.86860  0.30486  0.51451  1.0000
  Fe  Fe97      1.0  0.77355  0.28694  0.57580  1.0000
  S   S198      1.0  0.74829  0.24473  0.55838  1.0000
  S   S199      1.0  0.76111  0.31761  0.61491  1.0000
  Fe  Fe98      1.0  0.79511  0.22350  0.55386  1.0000
  S   S200      1.0  0.81069  0.17536  0.56768  1.0000
  Fe  Fe99      1.0  0.75804  0.26574  0.51351  1.0000
  H   H1144     1.0  0.84167  0.18257  0.46739  1.0000
  S   S201      1.0  0.81950  0.26371  0.57507  1.0000
  S   S202      1.0  0.78053  0.30930  0.53132  1.0000
  C   C1433     1.0  0.94545  0.36761  0.67361  1.0000
  Fe  Fe100     1.0  0.93207  0.14092  0.77082  1.0000
  S   S203      1.0  0.90233  0.11672  0.73787  1.0000
  S   S204      1.0  0.92326  0.13869  0.81999  1.0000
  Fe  Fe101     1.0  0.97306  0.17047  0.72306  1.0000
  S   S205      1.0  0.94627  0.14787  0.68654  1.0000
  H   H1145     1.0  0.75769  0.44715  0.76858  1.0000
  Fe  Fe102     1.0  0.90492  0.16209  0.71246  1.0000
  S   S206      1.0  0.86440  0.19013  0.69654  1.0000
  Fe  Fe103     1.0  0.94669  0.10470  0.71532  1.0000
  H   H1146     1.0  0.72730  0.29956  0.79829  1.0000
  S   S207      1.0  0.93165  0.18748  0.74721  1.0000
  S   S208      1.0  0.97656  0.12621  0.75008  1.0000
  C   C1434     1.0  0.96431  0.14939  0.52669  1.0000
  H   H1147     1.0  0.95931  0.03117  0.76714  1.0000
  C   C1435     1.0  0.68515  0.37015  0.55294  1.0000
  C   C1436     1.0  0.82664  0.48035  0.75101  1.0000
  C   C1437     1.0  0.97236  0.17719  0.54147  1.0000
  C   C1438     1.0  0.82511  0.17791  0.60380  1.0000
  C   C1439     1.0  0.84997  0.15944  0.61264  1.0000
  C   C1440     1.0  0.86258  0.16306  0.64103  1.0000
  C   C1441     1.0  0.84959  0.18444  0.66085  1.0000
  C   C1442     1.0  0.82405  0.20193  0.65225  1.0000
  C   C1443     1.0  0.81215  0.19907  0.62372  1.0000
  H   H1148     1.0  0.85971  0.14285  0.59728  1.0000
  H   H1149     1.0  0.88226  0.14946  0.64762  1.0000
  H   H1150     1.0  0.81317  0.21763  0.66768  1.0000
  H   H1151     1.0  0.79258  0.21294  0.61726  1.0000
  C   C1444     1.0  0.72218  0.31868  0.62510  1.0000
  C   C1445     1.0  0.71220  0.34049  0.64623  1.0000
  H   H1152     1.0  0.77963  0.45054  0.81869  1.0000
  C   C1446     1.0  0.97780  0.47189  0.89157  1.0000
  C   C1447     1.0  0.68391  0.45662  0.78901  1.0000
  C   C1448     1.0  0.70110  0.29791  0.61266  1.0000
  C   C1449     1.0  0.67349  0.29144  0.73076  1.0000
  H   H1153     1.0  0.80515  0.07239  0.76739  1.0000
  H   H1154     1.0  0.70847  0.28097  0.59648  1.0000
  H   H1155     1.0  0.84003  0.03656  0.74169  1.0000
  H   H1156     1.0  0.69959  0.38056  0.74578  1.0000
  C   C1450     1.0  0.83449  0.05904  0.73179  1.0000
  C   C1451     1.0  0.89226  0.28190  0.49172  1.0000
  C   C1452     1.0  0.97488  0.37378  0.68447  1.0000
  C   C1453     1.0  0.73266  0.42657  0.69305  1.0000
  C   C1454     1.0  0.83404  0.09693  0.85692  1.0000
  C   C1455     1.0  0.85032  0.11993  0.87233  1.0000
  C   C1456     1.0  0.87791  0.13180  0.86101  1.0000
  C   C1457     1.0  0.88906  0.12169  0.83362  1.0000
  C   C1458     1.0  0.87276  0.09877  0.81794  1.0000
  C   C1459     1.0  0.84538  0.08625  0.82969  1.0000
  H   H1157     1.0  0.84137  0.12890  0.89295  1.0000
  H   H1158     1.0  0.89027  0.14955  0.87320  1.0000
  H   H1159     1.0  0.88119  0.09071  0.79683  1.0000
  H   H1160     1.0  0.83262  0.06896  0.81736  1.0000
  H   H1161     1.0  0.72832  0.35678  0.65582  1.0000
  C   C1460     1.0  0.87009  0.32837  0.65835  1.0000
  H   H1162     1.0  0.89737  0.08843  0.50283  1.0000
  C   C1461     1.0  0.74418  0.37222  0.72647  1.0000
  C   C1462     1.0  0.71089  0.41561  0.71325  1.0000
  H   H1163     1.0  0.69215  0.22796  0.51129  1.0000
  C   C1463     1.0  0.84409  0.32982  0.64049  1.0000
  C   C1464     1.0  0.97144  0.17560  0.47963  1.0000
  H   H1164     1.0  0.95864  0.12821  0.53880  1.0000
  C   C1465     1.0  0.95897  0.00912  0.77925  1.0000
  C   C1466     1.0  0.76539  0.35561  0.78417  1.0000
  C   C1467     1.0  0.91904  0.07880  0.89797  1.0000
  H   H1165     1.0  0.89753  0.09962  0.61257  1.0000
  C   C1468     1.0  0.88515  0.10865  0.49461  1.0000
  C   C1469     1.0  0.98539  0.40471  0.68671  1.0000
  H   H1166     1.0  0.77727  0.41931  0.67421  1.0000
  H   H1167     1.0  0.90404  0.45435  0.71966  1.0000
  C   C1470     1.0  0.93739  0.42377  0.66740  1.0000
  C   C1471     1.0  0.88505  0.01196  0.95932  1.0000
  C   C1472     1.0  0.99658  0.00985  0.68793  1.0000
  H   H1168     1.0  0.84302  0.38301  0.68680  1.0000
  C   C1473     1.0  0.69919  0.46047  0.81595  1.0000
  C   C1474     1.0  0.68225  0.40848  0.83101  1.0000
  C   C1475     1.0  0.74476  0.36261  0.80702  1.0000
  C   C1476     1.0  0.92432  0.30882  0.70371  1.0000
  C   C1477     1.0  0.93538  0.32111  0.73040  1.0000
  C   C1478     1.0  0.92897  0.30587  0.75716  1.0000
  C   C1479     1.0  0.91215  0.27792  0.75746  1.0000
  C   C1480     1.0  0.90108  0.26557  0.73102  1.0000
  C   C1481     1.0  0.90685  0.28109  0.70432  1.0000
  C   C1482     1.0  0.91729  0.29583  0.47727  1.0000
  C   C1483     1.0  0.70122  0.09263  0.77139  1.0000
  S   S209      1.0  0.83515  0.45480  0.92125  1.0000
  C   C1484     1.0  0.94020  0.48391  0.73530  1.0000
  C   C1485     1.0  0.96133  0.41763  0.89771  1.0000
  Fe  Fe104     1.0  0.74274  0.01139  0.93738  1.0000
  H   H1169     1.0  0.89018  0.25671  0.57181  1.0000
  S   S210      1.0  0.78903  0.03408  0.94187  1.0000
  H   H1170     1.0  0.94948  0.34200  0.73080  1.0000
  H   H1171     1.0  0.93805  0.31519  0.77760  1.0000
  H   H1172     1.0  0.90817  0.26552  0.77809  1.0000
  H   H1173     1.0  0.88844  0.24361  0.73115  1.0000
  H   H1174     1.0  0.89808  0.27114  0.68409  1.0000
  H   H1175     1.0  0.86733  0.32889  0.68212  1.0000
  H   H1176     1.0  0.68952  0.42803  0.71605  1.0000
  H   H1177     1.0  0.94476  0.03079  0.81951  1.0000
  H   H1178     1.0  0.92400  0.32501  0.60383  1.0000
  C   C1486     1.0  0.76636  0.38388  0.70680  1.0000
  C   C1487     1.0  0.68640  0.27856  0.78134  1.0000
  P   P48       1.0  0.75212  0.33891  0.74989  1.0000
  C   C1488     1.0  0.71830  0.31490  0.75344  1.0000
  C   C1489     1.0  0.77979  0.31264  0.73374  1.0000
  C   C1490     1.0  0.77922  0.30628  0.70328  1.0000
  C   C1491     1.0  0.79968  0.28466  0.69108  1.0000
  C   C1492     1.0  0.82065  0.26915  0.70920  1.0000
  C   C1493     1.0  0.82054  0.27445  0.73963  1.0000
  C   C1494     1.0  0.80004  0.29592  0.75193  1.0000
  C   C1495     1.0  0.69907  0.31104  0.72898  1.0000
  H   H1179     1.0  0.69307  0.39309  0.55988  1.0000
  C   C1496     1.0  0.79746  0.46711  0.74709  1.0000
  H   H1180     1.0  0.72800  0.44735  0.67994  1.0000
  C   C1497     1.0  0.71224  0.29790  0.77945  1.0000
  C   C1498     1.0  0.80655  0.37797  0.81344  1.0000
  C   C1499     1.0  0.79624  0.36416  0.78727  1.0000
  H   H1181     1.0  0.76265  0.31750  0.68897  1.0000
  H   H1182     1.0  0.79889  0.27953  0.66760  1.0000
  H   H1183     1.0  0.83655  0.25243  0.69983  1.0000
  H   H1184     1.0  0.83597  0.26139  0.75374  1.0000
  H   H1185     1.0  0.79968  0.29895  0.77568  1.0000
  H   H1186     1.0  0.70390  0.32304  0.70843  1.0000
  C   C1500     1.0  0.79303  0.45818  0.79977  1.0000
  H   H1187     1.0  0.00258  0.44141  0.95711  1.0000
  C   C1501     1.0  0.90314  0.23291  0.46663  1.0000
  H   H1188     1.0  0.83037  0.38441  0.81583  1.0000
  H   H1189     1.0  0.81230  0.36031  0.76942  1.0000
  H   H1190     1.0  0.87873  0.25680  0.62554  1.0000
  H   H1191     1.0  0.92253  0.32034  0.48106  1.0000
  C   C1502     1.0  0.73554  0.07974  0.81138  1.0000
  C   C1503     1.0  0.75839  0.09799  0.79813  1.0000
  C   C1504     1.0  0.75282  0.11406  0.77152  1.0000
  C   C1505     1.0  0.72405  0.11103  0.75811  1.0000
  P   P49       1.0  0.78320  0.13616  0.75374  1.0000
  C   C1506     1.0  0.76740  0.16565  0.72918  1.0000
  C   C1507     1.0  0.80625  0.15618  0.78090  1.0000
  C   C1508     1.0  0.79396  0.16471  0.80846  1.0000
  C   C1509     1.0  0.81218  0.17986  0.82938  1.0000
  C   C1510     1.0  0.84252  0.18730  0.82269  1.0000
  C   C1511     1.0  0.85463  0.17969  0.79506  1.0000
  C   C1512     1.0  0.83660  0.16422  0.77421  1.0000
  C   C1513     1.0  0.75787  0.15749  0.70057  1.0000
  C   C1514     1.0  0.74661  0.18048  0.68131  1.0000
  C   C1515     1.0  0.74413  0.21166  0.69062  1.0000
  C   C1516     1.0  0.75285  0.21986  0.71925  1.0000
  C   C1517     1.0  0.76454  0.19703  0.73844  1.0000
  C   C1518     1.0  0.80770  0.10905  0.73405  1.0000
  C   C1519     1.0  0.84114  0.09714  0.69253  1.0000
  C   C1520     1.0  0.82152  0.11781  0.70719  1.0000
  H   H1192     1.0  0.84558  0.45185  0.61720  1.0000
  C   C1521     1.0  0.84387  0.41475  0.64963  1.0000
  H   H1193     1.0  0.74022  0.06757  0.83200  1.0000
  H   H1194     1.0  0.78052  0.09940  0.80867  1.0000
  H   H1195     1.0  0.71917  0.12264  0.73738  1.0000
  H   H1196     1.0  0.77050  0.15926  0.81410  1.0000
  H   H1197     1.0  0.80302  0.18505  0.85108  1.0000
  H   H1198     1.0  0.85698  0.19806  0.83922  1.0000
  H   H1199     1.0  0.87838  0.18471  0.79023  1.0000
  H   H1200     1.0  0.84652  0.15826  0.75304  1.0000
  H   H1201     1.0  0.75951  0.13343  0.69301  1.0000
  H   H1202     1.0  0.73545  0.22945  0.67564  1.0000
  H   H1203     1.0  0.75071  0.24399  0.72654  1.0000
  H   H1204     1.0  0.77139  0.20402  0.76041  1.0000
  H   H1205     1.0  0.85191  0.10425  0.67201  1.0000
  H   H1206     1.0  0.81776  0.14085  0.69780  1.0000
  H   H1207     1.0  0.84230  0.39629  0.63325  1.0000
  H   H1208     1.0  0.92310  0.44318  0.66045  1.0000
  S   S211      1.0  0.95420  0.05672  0.69491  1.0000
  H   H1209     1.0  0.97438  0.39512  0.93850  1.0000
  H   H1210     1.0  0.68459  0.47522  0.77268  1.0000
  C   C1522     1.0  0.69579  0.31615  0.54021  1.0000
  H   H1211     1.0  0.93576  0.06270  0.63308  1.0000
  H   H1212     1.0  0.76275  0.15912  0.52190  1.0000
  C   C1523     1.0  0.95082  0.00876  0.80914  1.0000
  H   H1213     1.0  0.73998  0.17415  0.65904  1.0000
  C   C1524     1.0  0.97331  0.27720  0.66073  1.0000
  H   H1214     1.0  0.86364  0.05218  0.69390  1.0000
  C   C1525     1.0  0.93007  0.01825  0.87619  1.0000
  C   C1526     1.0  0.97426  0.09158  0.62089  1.0000
  C   C1527     1.0  0.89491  0.05756  0.89479  1.0000
  C   C1528     1.0  0.96409  0.30696  0.65084  1.0000
  C   C1529     1.0  0.84605  0.43120  0.70079  1.0000
  H   H1215     1.0  0.68945  0.06255  0.80823  1.0000
  C   C1530     1.0  0.98828  0.03685  0.70377  1.0000
  H   H1216     1.0  0.97542  0.45354  0.67912  1.0000
  C   C1531     1.0  0.86682  0.47289  0.93867  1.0000
  C   C1532     1.0  0.90031  0.02740  0.88391  1.0000
  C   C1533     1.0  0.84704  0.32981  0.60979  1.0000
  H   H1217     1.0  0.78813  0.37221  0.70448  1.0000
  C   C1534     1.0  0.71663  0.38860  0.72999  1.0000
  H   H1218     1.0  0.79401  0.39460  0.85680  1.0000
  C   C1535     1.0  0.70647  0.36281  0.46644  1.0000
  H   H1219     1.0  0.87816  0.32777  0.57298  1.0000
  H   H1220     1.0  0.87193  0.06439  0.90096  1.0000
  H   H1221     1.0  0.90424  0.38874  0.65626  1.0000
  H   H1222     1.0  0.97730  0.03316  0.87348  1.0000
  C   C1536     1.0  0.70600  0.34571  0.54926  1.0000
  H   H1223     1.0  0.82150  0.33125  0.65026  1.0000
  H   H1224     1.0  0.68598  0.10637  0.89121  1.0000
  C   C1537     1.0  0.98001  0.32124  0.62729  1.0000
  H   H1225     1.0  0.79055  0.12078  0.49085  1.0000
  H   H1226     1.0  0.98589  0.22582  0.53592  1.0000
  H   H1227     1.0  0.78756  0.46540  0.72527  1.0000
  H   H1228     1.0  0.71191  0.29732  0.53681  1.0000
  C   C1538     1.0  0.99267  0.47021  0.91902  1.0000
  C   C1539     1.0  0.95421  0.03975  0.87938  1.0000
  C   C1540     1.0  0.96236  0.14116  0.59676  1.0000
  H   H1229     1.0  0.96729  0.08656  0.89247  1.0000
  C   C1541     1.0  0.97564  0.41635  0.92524  1.0000
  C   C1542     1.0  0.75130  0.18925  0.48522  1.0000
  C   C1543     1.0  0.87673  0.13213  0.51463  1.0000
  H   H1230     1.0  0.88119  0.01140  0.88197  1.0000
  C   C1544     1.0  0.78003  0.14111  0.48065  1.0000
  H   H1231     1.0  0.85478  0.17702  0.52025  1.0000
  H   H1232     1.0  0.96240  0.26580  0.67939  1.0000
  C   C1545     1.0  0.68134  0.34134  0.65498  1.0000
  H   H1233     1.0  0.82686  0.33109  0.59597  1.0000
  H   H1234     1.0  0.91474  0.10217  0.90640  1.0000
  H   H1235     1.0  0.70971  0.43936  0.85797  1.0000
  H   H1236     1.0  0.94897  0.39734  0.88960  1.0000
  C   C1546     1.0  0.88581  0.25013  0.48699  1.0000
  C   C1547     1.0  0.92553  0.01027  0.48724  1.0000
  C   C1548     1.0  0.76437  0.16269  0.49818  1.0000
  C   C1549     1.0  0.89933  0.32646  0.64552  1.0000
  H   H1237     1.0  0.73930  0.38125  0.85097  1.0000
  H   H1238     1.0  0.95259  0.19337  0.64086  1.0000
  H   H1239     1.0  0.84632  0.42496  0.72402  1.0000
  C   C1550     1.0  0.70698  0.07699  0.79801  1.0000
  C   C1551     1.0  0.76042  0.41075  0.68986  1.0000
  H   H1240     1.0  0.72056  0.35787  0.80456  1.0000
  H   H1241     1.0  0.98270  0.23370  0.75551  1.0000
  S   S212      1.0  0.74584  0.47504  0.90763  1.0000
  H   H1242     1.0  0.91038  0.22475  0.65977  1.0000
  C   C1552     1.0  0.69031  0.25423  0.47056  1.0000
  C   C1553     1.0  0.87595  0.32798  0.59685  1.0000
  H   H1243     1.0  0.98986  0.35468  0.69101  1.0000
  C   C1554     1.0  0.67951  0.23234  0.49122  1.0000
  C   C1555     1.0  0.92674  0.39285  0.66516  1.0000
  H   H1244     1.0  0.72492  0.40057  0.49237  1.0000
  H   H1245     1.0  0.86840  0.02424  0.94602  1.0000
  C   C1556     1.0  0.69813  0.43646  0.83708  1.0000
  C   C1557     1.0  0.78060  0.45642  0.77145  1.0000
  C   C1558     1.0  0.96378  0.14870  0.49581  1.0000
  H   H1246     1.0  0.91423  0.14964  0.58968  1.0000
  C   C1559     1.0  0.81459  0.07954  0.74633  1.0000
  C   C1560     1.0  0.90200  0.32637  0.61457  1.0000
  H   H1247     1.0  0.95141  0.44584  0.85950  1.0000
  C   C1561     1.0  0.85377  0.16185  0.47491  1.0000
  C   C1562     1.0  0.92165  0.10516  0.61096  1.0000
  C   C1563     1.0  0.84568  0.44610  0.64057  1.0000
  H   H1248     1.0  0.67912  0.09026  0.76092  1.0000
  H   H1249     1.0  0.98219  0.00166  0.67014  1.0000
  C   C1564     1.0  0.84732  0.46285  0.69188  1.0000
  C   C1565     1.0  0.96679  0.42967  0.67799  1.0000
  P   P50       1.0  0.97396  0.17857  0.58132  1.0000
  C   C1566     1.0  0.84425  0.40730  0.67973  1.0000
  H   H1250     1.0  0.73962  0.20620  0.49892  1.0000
  C   C1567     1.0  0.71445  0.39413  0.47159  1.0000
  C   C1568     1.0  0.99145  0.44254  0.93579  1.0000
  C   C1569     1.0  0.93118  0.13348  0.59813  1.0000
  C   C1570     1.0  0.94634  0.20678  0.59515  1.0000
  C   C1571     1.0  0.93997  0.20773  0.62555  1.0000
  C   C1572     1.0  0.91585  0.22573  0.63644  1.0000
  C   C1573     1.0  0.89798  0.24353  0.61717  1.0000
  C   C1574     1.0  0.90433  0.24329  0.58691  1.0000
  C   C1575     1.0  0.92807  0.22472  0.57586  1.0000
  C   C1576     1.0  0.86118  0.15877  0.50475  1.0000
  C   C1577     1.0  0.84743  0.47008  0.66155  1.0000
  H   H1251     1.0  0.95768  0.12731  0.48434  1.0000
  H   H1252     1.0  0.73002  0.34959  0.55363  1.0000
  H   H1253     1.0  0.88215  0.12979  0.53789  1.0000
  H   H1254     1.0  0.68128  0.26612  0.80169  1.0000
  C   C1578     1.0  0.94867  0.06995  0.89016  1.0000
  H   H1255     1.0  0.71086  0.34491  0.48301  1.0000
  C   C1579     1.0  0.78608  0.38379  0.83651  1.0000
  C   C1580     1.0  0.96261  0.44519  0.88081  1.0000
  C   C1581     1.0  0.94317  0.08431  0.62246  1.0000
  C   C1582     1.0  0.75521  0.37623  0.83323  1.0000
  H   H1256     1.0  0.88488  0.42957  0.95618  1.0000
  H   H1257     1.0  0.95745  0.46581  0.73333  1.0000
  C   C1583     1.0  0.99871  0.24946  0.74485  1.0000
  H   H1258     1.0  0.99563  0.03171  0.93052  1.0000
  H   H1259     1.0  0.67687  0.05273  0.91095  1.0000
  H   H1260     1.0  0.68164  0.38982  0.84730  1.0000
  C   C1584     1.0  0.99752  0.26181  0.64691  1.0000
  C   C1585     1.0  0.90989  0.47757  0.72748  1.0000
  H   H1261     1.0  0.98525  0.22406  0.48130  1.0000
  H   H1262     1.0  0.00205  0.28148  0.50886  1.0000
  H   H1263     1.0  0.67383  0.35816  0.67130  1.0000
  H   H1264     1.0  0.91752  0.05013  0.95876  1.0000
  H   H1265     1.0  0.94616  0.00585  0.49976  1.0000
  H   H1266     1.0  0.98878  0.28818  0.77392  1.0000
  H   H1267     1.0  0.00086  0.06774  0.73921  1.0000
  C   C1586     1.0  0.98393  0.11977  0.60784  1.0000
  H   H1268     1.0  0.99077  0.07550  0.63038  1.0000
  C   C1587     1.0  0.82245  0.47027  0.80373  1.0000
  S   S213      1.0  0.80959  0.99430  0.88291  1.0000
  C   C1588     1.0  0.88790  0.45477  0.95481  1.0000
  H   H1269     1.0  0.00245  0.18357  0.64011  1.0000
  C   C1589     1.0  0.87616  0.99294  0.46970  1.0000
  C   C1590     1.0  0.00204  0.28042  0.75516  1.0000
  C   C1591     1.0  0.00400  0.30549  0.61325  1.0000
  H   H1270     1.0  0.93950  0.05663  0.47410  1.0000
  C   C1592     1.0  0.90279  0.98724  0.48577  1.0000
  C   C1593     1.0  0.92169  0.03899  0.47259  1.0000
  C   C1594     1.0  0.83906  0.48175  0.77955  1.0000
  H   H1271     1.0  0.83222  0.47124  0.82568  1.0000
  Fe  Fe105     1.0  0.73958  0.90409  0.26745  1.0000
  S   S214      1.0  0.72911  0.89413  0.21987  1.0000
  S   S215      1.0  0.78120  0.93077  0.28280  1.0000
  Fe  Fe106     1.0  0.72178  0.84410  0.23489  1.0000
  S   S216      1.0  0.73946  0.80167  0.20977  1.0000
  S   S217      1.0  0.73592  0.85373  0.28133  1.0000
  Fe  Fe107     1.0  0.85342  0.66757  0.24963  1.0000
  S   S218      1.0  0.85402  0.62722  0.28194  1.0000
  S   S219      1.0  0.84306  0.71638  0.26666  1.0000
  H   H1272     1.0  0.83446  0.75640  0.40415  1.0000
  H   H1273     1.0  0.81659  0.70668  0.32436  1.0000
  H   H1274     1.0  0.76384  0.55458  0.00628  1.0000
  H   H1275     1.0  0.74350  0.88967  0.05957  1.0000
  C   C1595     1.0  0.75415  0.69600  0.31581  1.0000
  Fe  Fe108     1.0  0.89737  0.61298  0.25899  1.0000
  S   S220      1.0  0.93966  0.59068  0.27821  1.0000
  C   C1596     1.0  0.79044  0.77362  0.41765  1.0000
  S   S221      1.0  0.89910  0.65550  0.22981  1.0000
  H   H1276     1.0  0.78430  0.86500  0.37406  1.0000
  H   H1277     1.0  0.70332  0.62078  0.99481  1.0000
  H   H1278     1.0  0.77960  0.75077  0.41725  1.0000
  H   H1279     1.0  0.79290  0.96330  0.35540  1.0000
  Fe  Fe109     1.0  0.97734  0.74614  0.41053  1.0000
  C   C1597     1.0  0.91590  0.50195  0.96867  1.0000
  C   C1598     1.0  0.82130  0.77682  0.41046  1.0000
  H   H1280     1.0  0.72452  0.72261  0.25074  1.0000
  C   C1599     1.0  0.67752  0.83205  0.44996  1.0000
  Fe  Fe110     1.0  0.83025  0.60058  0.24591  1.0000
  H   H1281     1.0  0.87292  0.96611  0.27511  1.0000
  H   H1282     1.0  0.77508  0.63810  0.26792  1.0000
  C   C1600     1.0  0.83324  0.55759  0.14162  1.0000
  C   C1601     1.0  0.86395  0.91883  0.29021  1.0000
  S   S222      1.0  0.92609  0.74209  0.41524  1.0000
  C   C1602     1.0  0.72816  0.68538  0.37533  1.0000
  C   C1603     1.0  0.86815  0.49557  0.11188  1.0000
  S   S223      1.0  0.82655  0.64206  0.21514  1.0000
  C   C1604     1.0  0.79552  0.69752  0.36696  1.0000
  H   H1283     1.0  0.77910  0.65229  0.32049  1.0000
  C   C1605     1.0  0.96487  0.58016  0.15780  1.0000
  C   C1606     1.0  0.77155  0.91982  0.03284  1.0000
  C   C1607     1.0  0.96419  0.60949  0.30348  1.0000
  H   H1284     1.0  0.79809  0.50468  0.18728  1.0000
  H   H1285     1.0  0.71314  0.65634  0.33869  1.0000
  C   C1608     1.0  0.70746  0.87042  0.40874  1.0000
  C   C1609     1.0  0.97791  0.65207  0.33683  1.0000
  C   C1610     1.0  0.95748  0.63863  0.31630  1.0000
  C   C1611     1.0  0.67296  0.51785  0.97328  1.0000
  H   H1286     1.0  0.71196  0.49240  0.04350  1.0000
  H   H1287     1.0  0.97230  0.67410  0.34714  1.0000
  H   H1288     1.0  0.93642  0.65050  0.31078  1.0000
  H   H1289     1.0  0.93150  0.60066  0.18710  1.0000
  H   H1290     1.0  0.91362  0.78161  0.15455  1.0000
  C   C1612     1.0  0.91874  0.60644  0.14147  1.0000
  C   C1613     1.0  0.72551  0.96467  0.03950  1.0000
  C   C1614     1.0  0.91653  0.73358  0.14000  1.0000
  C   C1615     1.0  0.85564  0.68633  0.38616  1.0000
  C   C1616     1.0  0.74938  0.67932  0.25604  1.0000
  C   C1617     1.0  0.93766  0.59612  0.16434  1.0000
  H   H1291     1.0  0.91304  0.60899  0.09416  1.0000
  H   H1292     1.0  0.98093  0.53153  0.21750  1.0000
  C   C1618     1.0  0.73838  0.71547  0.29590  1.0000
  H   H1293     1.0  0.73565  0.71097  0.41610  1.0000
  C   C1619     1.0  0.67893  0.96223  0.12490  1.0000
  C   C1620     1.0  0.75850  0.57932  0.07851  1.0000
  C   C1621     1.0  0.80130  0.68888  0.39643  1.0000
  C   C1622     1.0  0.75210  0.61407  0.99560  1.0000
  H   H1294     1.0  0.98288  0.60975  0.23412  1.0000
  C   C1623     1.0  0.95477  0.70156  0.16418  1.0000
  C   C1624     1.0  0.78060  0.95149  0.40041  1.0000
  C   C1625     1.0  0.76716  0.77716  0.22646  1.0000
  C   C1626     1.0  0.77615  0.74932  0.21230  1.0000
  C   C1627     1.0  0.79907  0.73012  0.22457  1.0000
  C   C1628     1.0  0.81304  0.73862  0.25115  1.0000
  C   C1629     1.0  0.80380  0.76622  0.26538  1.0000
  C   C1630     1.0  0.78105  0.78538  0.25311  1.0000
  H   H1295     1.0  0.76560  0.74277  0.19163  1.0000
  H   H1296     1.0  0.80614  0.70902  0.21328  1.0000
  H   H1297     1.0  0.81440  0.77308  0.28587  1.0000
  H   H1298     1.0  0.77485  0.80683  0.26404  1.0000
  P   P51       1.0  0.75717  0.70642  0.35442  1.0000
  C   C1631     1.0  0.83181  0.82285  0.20584  1.0000
  C   C1632     1.0  0.83842  0.79343  0.19384  1.0000
  C   C1633     1.0  0.86466  0.77733  0.20260  1.0000
  C   C1634     1.0  0.88470  0.79095  0.22288  1.0000
  C   C1635     1.0  0.87835  0.82064  0.23491  1.0000
  C   C1636     1.0  0.85157  0.83639  0.22644  1.0000
  P   P52       1.0  0.90320  0.83665  0.26294  1.0000
  C   C1637     1.0  0.89686  0.81610  0.29759  1.0000
  C   C1638     1.0  0.94232  0.83357  0.25028  1.0000
  C   C1639     1.0  0.96644  0.83084  0.27045  1.0000
  C   C1640     1.0  0.71408  0.49293  0.41738  1.0000
  C   C1641     1.0  0.97940  0.83592  0.21011  1.0000
  C   C1642     1.0  0.94907  0.83609  0.21995  1.0000
  C   C1643     1.0  0.90940  0.82753  0.32403  1.0000
  H   H1299     1.0  0.98447  0.83801  0.18674  1.0000
  C   C1644     1.0  0.72270  0.69270  0.40515  1.0000
  C   C1645     1.0  0.87364  0.77309  0.32526  1.0000
  C   C1646     1.0  0.87869  0.78888  0.29858  1.0000
  C   C1647     1.0  0.89472  0.87785  0.26775  1.0000
  C   C1648     1.0  0.87156  0.88709  0.28739  1.0000
  H   H1300     1.0  0.71842  0.88508  0.39226  1.0000
  C   C1649     1.0  0.70514  0.56733  0.08759  1.0000
  C   C1650     1.0  0.90216  0.93259  0.25364  1.0000
  C   C1651     1.0  0.90990  0.90086  0.25079  1.0000
  H   H1301     1.0  0.81072  0.83463  0.19994  1.0000
  H   H1302     1.0  0.82251  0.78262  0.17862  1.0000
  H   H1303     1.0  0.86887  0.75379  0.19447  1.0000
  H   H1304     1.0  0.90449  0.77780  0.23010  1.0000
  H   H1305     1.0  0.84543  0.85880  0.23598  1.0000
  H   H1306     1.0  0.96231  0.82868  0.29388  1.0000
  H   H1307     1.0  0.93092  0.83877  0.20392  1.0000
  H   H1308     1.0  0.92283  0.84886  0.32408  1.0000
  H   H1309     1.0  0.97946  0.57253  0.17556  1.0000
  C   C1652     1.0  0.92527  0.75933  0.15714  1.0000
  H   H1310     1.0  0.85970  0.75207  0.32549  1.0000
  H   H1311     1.0  0.86842  0.77941  0.27887  1.0000
  H   H1312     1.0  0.85874  0.86976  0.29994  1.0000
  H   H1313     1.0  0.89816  0.73583  0.12414  1.0000
  C   C1653     1.0  0.70379  0.84679  0.14265  1.0000
  C   C1654     1.0  0.76564  0.54743  0.08070  1.0000
  H   H1314     1.0  0.92743  0.89450  0.23506  1.0000
  H   H1315     1.0  0.77738  0.60184  0.17329  1.0000
  H   H1316     1.0  0.82061  0.60642  0.13827  1.0000
  H   H1317     1.0  0.85838  0.51914  0.20766  1.0000
  C   C1655     1.0  0.90059  0.96586  0.98669  1.0000
  C   C1656     1.0  0.79018  0.91331  0.36202  1.0000
  C   C1657     1.0  0.78370  0.88899  0.38187  1.0000
  C   C1658     1.0  0.77591  0.89570  0.41130  1.0000
  C   C1659     1.0  0.77416  0.92715  0.42042  1.0000
  P   P53       1.0  0.76471  0.86419  0.43586  1.0000
  C   C1660     1.0  0.87746  0.74836  0.45217  1.0000
  C   C1661     1.0  0.72420  0.85665  0.43184  1.0000
  P   P54       1.0  0.81445  0.59990  0.99591  1.0000
  S   S224      1.0  0.71110  0.53120  0.97090  1.0000
  H   H1318     1.0  0.98370  0.93091  0.20102  1.0000
  C   C1662     1.0  0.95420  0.58414  0.10555  1.0000
  C   C1663     1.0  0.76477  0.65966  0.27576  1.0000
  C   C1664     1.0  0.72826  0.58923  0.08167  1.0000
  H   H1319     1.0  0.74930  0.79684  0.43008  1.0000
  C   C1665     1.0  0.78853  0.94456  0.37118  1.0000
  C   C1666     1.0  0.72423  0.62082  0.98196  1.0000
  Fe  Fe111     1.0  0.98259  0.50785  0.01930  1.0000
  C   C1667     1.0  0.78694  0.82976  0.42659  1.0000
  C   C1668     1.0  0.81820  0.83270  0.41992  1.0000
  C   C1669     1.0  0.83530  0.80630  0.41200  1.0000
  C   C1670     1.0  0.77327  0.79997  0.42538  1.0000
  H   H1320     1.0  0.86737  0.72973  0.43931  1.0000
  C   C1671     1.0  0.77436  0.94908  0.01901  1.0000
  H   H1321     1.0  0.73514  0.97309  0.25935  1.0000
  C   C1672     1.0  0.71998  0.79342  0.36908  1.0000
  H   H1322     1.0  0.94737  0.89968  0.31609  1.0000
  C   C1673     1.0  0.76805  0.80121  0.34359  1.0000
  H   H1323     1.0  0.92439  0.53485  0.07447  1.0000
  C   C1674     1.0  0.73611  0.70715  0.26612  1.0000
  C   C1675     1.0  0.86657  0.63503  0.98050  1.0000
  H   H1324     1.0  0.69921  0.80303  0.37848  1.0000
  H   H1325     1.0  0.93360  0.74799  0.32024  1.0000
  H   H1326     1.0  0.87888  0.68243  0.39360  1.0000
  H   H1327     1.0  0.82941  0.85537  0.42100  1.0000
  H   H1328     1.0  0.85953  0.80858  0.40761  1.0000
  H   H1329     1.0  0.74845  0.50085  0.08869  1.0000
  C   C1676     1.0  0.82026  0.70014  0.34721  1.0000
  H   H1330     1.0  0.67200  0.63036  0.36657  1.0000
  C   C1677     1.0  0.70988  0.66243  0.36166  1.0000
  C   C1678     1.0  0.72473  0.76099  0.36916  1.0000
  H   H1331     1.0  0.89593  0.94224  0.99441  1.0000
  C   C1679     1.0  0.92013  0.78280  0.46223  1.0000
  H   H1332     1.0  0.89865  0.53401  0.12306  1.0000
  C   C1680     1.0  0.87838  0.50555  0.20218  1.0000
  Fe  Fe112     1.0  0.68016  0.90154  0.23347  1.0000
  C   C1681     1.0  0.67600  0.86517  0.40652  1.0000
  S   S225      1.0  0.88467  0.62680  0.14932  1.0000
  C   C1682     1.0  0.79084  0.58133  0.16778  1.0000
  C   C1683     1.0  0.81517  0.58382  0.14796  1.0000
  H   H1333     1.0  0.88417  0.77088  0.37167  1.0000
  H   H1334     1.0  0.78439  0.81673  0.33297  1.0000
  H   H1335     1.0  0.79410  0.95426  0.00523  1.0000
  H   H1336     1.0  0.95438  0.77588  0.19193  1.0000
  C   C1684     1.0  0.98837  0.65936  0.22585  1.0000
  C   C1685     1.0  0.98792  0.75100  0.26643  1.0000
  H   H1337     1.0  0.70742  0.98187  0.04069  1.0000
  H   H1338     1.0  0.86290  0.64848  0.00042  1.0000
  C   C1686     1.0  0.99668  0.83097  0.26054  1.0000
  Fe  Fe113     1.0  0.87232  0.62667  0.19780  1.0000
  S   S226      1.0  0.87351  0.58300  0.22533  1.0000
  H   H1339     1.0  0.83553  0.67710  0.42876  1.0000
  C   C1687     1.0  0.99622  0.62767  0.22285  1.0000
  C   C1688     1.0  0.77917  0.61267  0.97887  1.0000
  H   H1340     1.0  0.68857  0.91618  0.00899  1.0000
  H   H1341     1.0  0.78910  0.53977  0.07815  1.0000
  H   H1342     1.0  0.76253  0.49752  0.01122  1.0000
  H   H1343     1.0  0.78918  0.90231  0.02972  1.0000
  C   C1689     1.0  0.81961  0.61843  0.03128  1.0000
  C   C1690     1.0  0.80662  0.64792  0.03721  1.0000
  C   C1691     1.0  0.81189  0.66265  0.06434  1.0000
  C   C1692     1.0  0.83050  0.64826  0.08545  1.0000
  C   C1693     1.0  0.84377  0.61916  0.07943  1.0000
  C   C1694     1.0  0.83845  0.60429  0.05251  1.0000
  C   C1695     1.0  0.76709  0.66787  0.30555  1.0000
  C   C1696     1.0  0.67775  0.84621  0.12491  1.0000
  H   H1344     1.0  0.96070  0.57991  0.08283  1.0000
  C   C1697     1.0  0.87922  0.94157  0.27335  1.0000
  C   C1698     1.0  0.90497  0.81118  0.35063  1.0000
  C   C1699     1.0  0.81319  0.55779  0.00165  1.0000
  C   C1700     1.0  0.69951  0.67739  0.42091  1.0000
  H   H1345     1.0  0.96334  0.93488  0.27559  1.0000
  H   H1346     1.0  0.82471  0.97842  0.29736  1.0000
  C   C1701     1.0  0.75130  0.97141  0.02226  1.0000
  C   C1702     1.0  0.78436  0.50941  0.00925  1.0000
  H   H1347     1.0  0.78300  0.68648  0.41228  1.0000
  H   H1348     1.0  0.72795  0.73719  0.30309  1.0000
  H   H1349     1.0  0.70703  0.74609  0.37830  1.0000
  H   H1350     1.0  0.75235  0.60889  0.01900  1.0000
  C   C1703     1.0  0.81912  0.51607  0.25598  1.0000
  C   C1704     1.0  0.83928  0.50756  0.00471  1.0000
  H   H1351     1.0  0.80192  0.68543  0.06885  1.0000
  H   H1352     1.0  0.83503  0.65973  0.10639  1.0000
  H   H1353     1.0  0.85851  0.60820  0.09556  1.0000
  H   H1354     1.0  0.84949  0.58201  0.04823  1.0000
  H   H1355     1.0  0.94485  0.96848  0.00787  1.0000
  H   H1356     1.0  0.76627  0.55109  0.19752  1.0000
  C   C1705     1.0  0.79067  0.53088  0.25564  1.0000
  H   H1357     1.0  0.73913  0.50174  0.19607  1.0000
  C   C1706     1.0  0.76403  0.51255  0.25496  1.0000
  C   C1707     1.0  0.92829  0.98067  0.99438  1.0000
  Fe  Fe114     1.0  0.68645  0.86347  0.28971  1.0000
  H   H1358     1.0  0.79286  0.65978  0.02075  1.0000
  C   C1708     1.0  0.72544  0.87062  0.13893  1.0000
  H   H1359     1.0  0.91094  0.49575  0.03641  1.0000
  C   C1709     1.0  0.72706  0.48857  0.17936  1.0000
  C   C1710     1.0  0.89146  0.51756  0.10617  1.0000
  C   C1711     1.0  0.69482  0.89371  0.09965  1.0000
  C   C1712     1.0  0.72100  0.89402  0.11759  1.0000
  H   H1360     1.0  0.70707  0.82890  0.15947  1.0000
  C   C1713     1.0  0.78524  0.54210  0.00618  1.0000
  C   C1714     1.0  0.70890  0.83746  0.45246  1.0000
  H   H1361     1.0  0.97612  0.60350  0.40403  1.0000
  C   C1715     1.0  0.74256  0.52546  0.08652  1.0000
  P   P55       1.0  0.85030  0.49422  0.14800  1.0000
  C   C1716     1.0  0.87890  0.98144  0.96909  1.0000
  C   C1717     1.0  0.77319  0.76879  0.34415  1.0000
  S   S227      1.0  0.94386  0.52263  0.98902  1.0000
  H   H1362     1.0  0.79582  0.90788  0.33928  1.0000
  H   H1363     1.0  0.90631  0.71881  0.28090  1.0000
  H   H1364     1.0  0.92596  0.59610  0.42890  1.0000
  C   C1718     1.0  0.78015  0.97181  0.27837  1.0000
  C   C1719     1.0  0.72267  0.93549  0.05387  1.0000
  C   C1720     1.0  0.67431  0.95957  0.09428  1.0000
  H   H1365     1.0  0.86224  0.55160  0.99839  1.0000
  H   H1366     1.0  0.85224  0.56049  0.12667  1.0000
  C   C1721     1.0  0.83123  0.68345  0.40595  1.0000
  C   C1722     1.0  0.75153  0.74838  0.35685  1.0000
  H   H1367     1.0  0.74543  0.87116  0.15300  1.0000
  H   H1368     1.0  0.68147  0.56033  0.44262  1.0000
  H   H1369     1.0  0.91362  0.95025  0.24026  1.0000
  C   C1723     1.0  0.71183  0.52311  0.42933  1.0000
  H   H1370     1.0  0.73766  0.91277  0.11550  1.0000
  C   C1724     1.0  0.93119  0.70470  0.14362  1.0000
  C   C1725     1.0  0.82712  0.52856  0.15530  1.0000
  H   H1371     1.0  0.76736  0.93289  0.44278  1.0000
  C   C1726     1.0  0.74571  0.91290  0.04999  1.0000
  C   C1727     1.0  0.99719  0.98184  0.24267  1.0000
  H   H1372     1.0  0.73680  0.83847  0.35485  1.0000
  P   P56       1.0  0.99215  0.72308  0.21017  1.0000
  H   H1373     1.0  0.90005  0.51464  0.24401  1.0000
  C   C1728     1.0  0.97325  0.73331  0.24446  1.0000
  C   C1729     1.0  0.89888  0.49583  0.05732  1.0000
  H   H1374     1.0  0.99642  0.57148  0.30159  1.0000
  H   H1375     1.0  0.92396  0.68446  0.13084  1.0000
  C   C1730     1.0  0.97309  0.57383  0.12846  1.0000
  H   H1376     1.0  0.86895  0.69600  0.34119  1.0000
  C   C1731     1.0  0.97330  0.75670  0.29337  1.0000
  C   C1732     1.0  0.90640  0.51793  0.07882  1.0000
  H   H1377     1.0  0.69531  0.68336  0.44379  1.0000
  H   H1378     1.0  0.77639  0.59639  0.07458  1.0000
  C   C1733     1.0  0.96373  0.72736  0.18151  1.0000
  C   C1734     1.0  0.85009  0.69431  0.35672  1.0000
  C   C1735     1.0  0.80273  0.52640  0.17550  1.0000
  C   C1736     1.0  0.92720  0.60065  0.11203  1.0000
  C   C1737     1.0  0.68319  0.53686  0.43350  1.0000
  C   C1738     1.0  0.90706  0.75873  0.44555  1.0000
  P   P57       1.0  0.68357  0.50687  0.10154  1.0000
  H   H1379     1.0  0.96527  0.67870  0.16673  1.0000
  C   C1739     1.0  0.67322  0.86955  0.10352  1.0000
  C   C1740     1.0  0.84030  0.54023  0.00152  1.0000
  H   H1380     1.0  0.00100  0.50914  0.17075  1.0000
  H   H1381     1.0  0.98466  0.77034  0.31021  1.0000
  C   C1741     1.0  0.88071  0.49084  0.17465  1.0000
  H   H1382     1.0  0.86015  0.49411  0.00343  1.0000
  P   P58       1.0  0.68811  0.92581  0.07404  1.0000
  H   H1383     1.0  0.72277  0.61399  0.07999  1.0000
  C   C1742     1.0  0.94426  0.74452  0.29887  1.0000
  H   H1384     1.0  0.83971  0.53004  0.25727  1.0000
  C   C1743     1.0  0.74139  0.81349  0.35598  1.0000
  C   C1744     1.0  0.98048  0.92183  0.28756  1.0000
  H   H1385     1.0  0.74193  0.52389  0.25489  1.0000
  S   S228      1.0  0.78762  0.57215  0.25543  1.0000
  H   H1386     1.0  0.67438  0.78102  0.28519  1.0000
  C   C1745     1.0  0.71591  0.50359  0.15415  1.0000
  H   H1387     1.0  0.96896  0.66528  0.23956  1.0000
  H   H1388     1.0  0.93101  0.71058  0.23252  1.0000
  C   C1746     1.0  0.68642  0.64750  0.37743  1.0000
  H   H1389     1.0  0.84552  0.92568  0.30487  1.0000
  H   H1390     1.0  0.71962  0.52863  0.15158  1.0000
  C   C1747     1.0  0.94329  0.72287  0.24958  1.0000
  H   H1391     1.0  0.91551  0.81940  0.37084  1.0000
  C   C1748     1.0  0.78457  0.55263  0.18143  1.0000
  H   H1392     1.0  0.79366  0.75962  0.33397  1.0000
  C   C1749     1.0  0.99131  0.59416  0.31104  1.0000
  H   H1393     1.0  0.69104  0.94444  0.13723  1.0000
  C   C1750     1.0  0.94848  0.75611  0.17811  1.0000
  H   H1394     1.0  0.99337  0.89883  0.15667  1.0000
  C   C1751     1.0  0.71215  0.53526  0.09026  1.0000
  S   S229      1.0  0.69138  0.91495  0.28040  1.0000
  H   H1395     1.0  0.98614  0.86790  0.34317  1.0000
  C   C1752     1.0  0.88717  0.78389  0.35120  1.0000
  S   S230      1.0  0.99208  0.73382  0.36466  1.0000
  C   C1753     1.0  0.92906  0.72793  0.27682  1.0000
  H   H1396     1.0  0.74805  0.67315  0.23288  1.0000
  H   H1397     1.0  0.73233  0.53594  0.43523  1.0000
  S   S231      1.0  0.67146  0.85050  0.24397  1.0000
  H   H1398     1.0  0.68206  0.57569  0.09071  1.0000
  C   C1754     1.0  0.81136  0.49209  0.00826  1.0000
  C   C1755     1.0  0.94394  0.60907  0.43991  1.0000
  H   H1399     1.0  0.94289  0.79110  0.45700  1.0000
  C   C1756     1.0  0.97219  0.61303  0.42594  1.0000
  S   S232      1.0  0.98193  0.48721  0.06538  1.0000
  C   C1757     1.0  0.00322  0.83354  0.23044  1.0000
  C   C1758     1.0  0.90195  0.50291  0.22283  1.0000
  C   C1759     1.0  0.97133  0.90162  0.31038  1.0000
  H   H1400     1.0  0.77892  0.97574  0.40740  1.0000
  H   H1401     1.0  0.67431  0.76577  0.42409  1.0000
  C   C1760     1.0  0.99307  0.88390  0.32566  1.0000
  C   C1761     1.0  0.68114  0.65508  0.40701  1.0000
  C   C1762     1.0  0.84692  0.61018  0.97283  1.0000
  C   C1763     1.0  0.99544  0.62959  0.44010  1.0000
  H   H1402     1.0  0.90646  0.66199  0.96834  1.0000
  H   H1403     1.0  0.88058  0.58913  0.90777  1.0000
  H   H1404     1.0  0.76982  0.70049  0.72778  1.0000
  Fe  Fe115     1.0  0.78556  0.55459  0.88832  1.0000
  H   H1405     1.0  0.71244  0.80703  0.71193  1.0000
  S   S233      1.0  0.81348  0.59758  0.87723  1.0000
  C   C1764     1.0  0.78206  0.88859  0.53380  1.0000
  C   C1765     1.0  0.96167  0.63996  0.48174  1.0000
  C   C1766     1.0  0.93298  0.87222  0.71939  1.0000
  S   S234      1.0  0.73463  0.54947  0.88734  1.0000
  C   C1767     1.0  0.89591  0.53075  0.74088  1.0000
  H   H1406     1.0  0.82733  0.78173  0.74085  1.0000
  Fe  Fe116     1.0  0.80660  0.78323  0.53154  1.0000
  S   S235      1.0  0.78928  0.73471  0.52159  1.0000
  S   S236      1.0  0.85281  0.80414  0.52050  1.0000
  Fe  Fe117     1.0  0.74819  0.80171  0.56464  1.0000
  S   S237      1.0  0.72572  0.75479  0.55746  1.0000
  S   S238      1.0  0.72806  0.84402  0.58741  1.0000
  Fe  Fe118     1.0  0.77222  0.73526  0.56854  1.0000
  S   S239      1.0  0.77966  0.69608  0.60146  1.0000
  Fe  Fe119     1.0  0.74454  0.75844  0.51128  1.0000
  Fe  Fe120     1.0  0.73926  0.52199  0.92958  1.0000
  S   S240      1.0  0.79290  0.78190  0.57924  1.0000
  S   S241      1.0  0.76340  0.80689  0.51770  1.0000
  H   H1407     1.0  0.79814  0.61824  0.93484  1.0000
  Fe  Fe121     1.0  0.89917  0.63159  0.73041  1.0000
  S   S242      1.0  0.92001  0.60786  0.69087  1.0000
  S   S243      1.0  0.85318  0.61156  0.74324  1.0000
  Fe  Fe122     1.0  0.95176  0.67929  0.73472  1.0000
  S   S244      1.0  0.97573  0.65937  0.69542  1.0000
  S   S245      1.0  0.97490  0.71775  0.76073  1.0000
  Fe  Fe123     1.0  0.92887  0.65732  0.67556  1.0000
  S   S246      1.0  0.91983  0.67682  0.63029  1.0000
  Fe  Fe124     1.0  0.96449  0.61229  0.71516  1.0000
  C   C1768     1.0  0.89136  0.64288  0.96229  1.0000
  S   S247      1.0  0.90547  0.68088  0.71347  1.0000
  S   S248      1.0  0.94286  0.63233  0.75602  1.0000
  C   C1769     1.0  0.94289  0.78122  0.79820  1.0000
  C   C1770     1.0  0.94841  0.51376  0.74532  1.0000
  C   C1771     1.0  0.90339  0.79654  0.48540  1.0000
  C   C1772     1.0  0.87115  0.50537  0.93677  1.0000
  C   C1773     1.0  0.75003  0.62579  0.93484  1.0000
  C   C1774     1.0  0.81849  0.69286  0.61116  1.0000
  C   C1775     1.0  0.82725  0.67283  0.63429  1.0000
  C   C1776     1.0  0.85833  0.66864  0.64099  1.0000
  C   C1777     1.0  0.88076  0.68409  0.62423  1.0000
  C   C1778     1.0  0.87197  0.70480  0.60171  1.0000
  C   C1779     1.0  0.84091  0.70932  0.59530  1.0000
  H   H1408     1.0  0.81001  0.66032  0.64682  1.0000
  H   H1409     1.0  0.86494  0.65282  0.65860  1.0000
  H   H1410     1.0  0.88916  0.71682  0.58865  1.0000
  H   H1411     1.0  0.83446  0.72474  0.57734  1.0000
  C   C1780     1.0  0.70553  0.83432  0.61836  1.0000
  C   C1781     1.0  0.67747  0.57514  0.79610  1.0000
  C   C1782     1.0  0.85527  0.93905  0.84399  1.0000
  H   H1412     1.0  0.94467  0.75633  0.80304  1.0000
  H   H1413     1.0  0.97750  0.85137  0.72618  1.0000
  C   C1783     1.0  0.70192  0.80297  0.62693  1.0000
  H   H1414     1.0  0.93731  0.87032  0.78120  1.0000
  H   H1415     1.0  0.88801  0.96819  0.82163  1.0000
  H   H1416     1.0  0.71354  0.78458  0.61499  1.0000
  H   H1417     1.0  0.97024  0.93089  0.76888  1.0000
  P   P59       1.0  0.97908  0.50724  0.86934  1.0000
  C   C1784     1.0  0.91539  0.80796  0.70119  1.0000
  C   C1785     1.0  0.67101  0.51389  0.69281  1.0000
  C   C1786     1.0  0.86050  0.84696  0.76528  1.0000
  H   H1418     1.0  0.89279  0.90063  0.71102  1.0000
  C   C1787     1.0  0.82521  0.60043  0.84009  1.0000
  C   C1788     1.0  0.85024  0.61952  0.83254  1.0000
  C   C1789     1.0  0.85969  0.62241  0.80292  1.0000
  C   C1790     1.0  0.84372  0.60662  0.78074  1.0000
  C   C1791     1.0  0.81888  0.58733  0.78829  1.0000
  C   C1792     1.0  0.80973  0.58408  0.81792  1.0000
  H   H1419     1.0  0.86231  0.63214  0.84966  1.0000
  H   H1420     1.0  0.87886  0.63734  0.79723  1.0000
  H   H1421     1.0  0.80655  0.57497  0.77119  1.0000
  H   H1422     1.0  0.79033  0.56942  0.82353  1.0000
  H   H1423     1.0  0.69495  0.94444  0.88066  1.0000
  C   C1793     1.0  0.89571  0.51967  0.95142  1.0000
  H   H1424     1.0  0.96768  0.72338  0.61546  1.0000
  H   H1425     1.0  0.85679  0.69044  0.76987  1.0000
  C   C1794     1.0  0.95078  0.83527  0.81266  1.0000
  C   C1795     1.0  0.84756  0.92347  0.87019  1.0000
  H   H1426     1.0  0.86115  0.91292  0.91481  1.0000
  H   H1427     1.0  0.82698  0.86931  0.52705  1.0000
  C   C1796     1.0  0.68135  0.74241  0.46588  1.0000
  C   C1797     1.0  0.72318  0.62654  0.95156  1.0000
  H   H1428     1.0  0.72218  0.91167  0.79492  1.0000
  C   C1798     1.0  0.96075  0.72424  0.51219  1.0000
  C   C1799     1.0  0.93826  0.53933  0.83292  1.0000
  S   S249      1.0  0.00147  0.57763  0.72720  1.0000
  C   C1800     1.0  0.98607  0.57207  0.93543  1.0000
  H   H1429     1.0  0.76562  0.56934  0.69693  1.0000
  H   H1430     1.0  0.82519  0.67338  0.52738  1.0000
  H   H1431     1.0  0.95445  0.92974  0.82139  1.0000
  H   H1432     1.0  0.98605  0.96293  0.96067  1.0000
  C   C1801     1.0  0.89588  0.78173  0.70159  1.0000
  C   C1802     1.0  0.91745  0.89965  0.71091  1.0000
  Fe  Fe125     1.0  0.76161  0.97489  0.88244  1.0000
  C   C1803     1.0  0.71836  0.71499  0.65640  1.0000
  H   H1433     1.0  0.91553  0.63255  0.92187  1.0000
  H   H1434     1.0  0.83779  0.57448  0.94014  1.0000
  H   H1435     1.0  0.77425  0.62220  0.74871  1.0000
  C   C1804     1.0  0.81059  0.85940  0.74548  1.0000
  C   C1805     1.0  0.85315  0.85012  0.71229  1.0000
  C   C1806     1.0  0.74183  0.73251  0.66932  1.0000
  C   C1807     1.0  0.83253  0.52901  0.70320  1.0000
  H   H1436     1.0  0.68151  0.71595  0.50649  1.0000
  H   H1437     1.0  0.82550  0.91201  0.87234  1.0000
  H   H1438     1.0  0.97884  0.63690  0.62133  1.0000
  C   C1808     1.0  0.87702  0.60177  0.92827  1.0000
  H   H1439     1.0  0.95268  0.79252  0.63649  1.0000
  C   C1809     1.0  0.88763  0.50121  0.72964  1.0000
  C   C1810     1.0  0.99150  0.73041  0.61541  1.0000
  H   H1440     1.0  0.73565  0.90498  0.53425  1.0000
  H   H1441     1.0  0.90661  0.56615  0.80638  1.0000
  C   C1811     1.0  0.72077  0.83387  0.78187  1.0000
  C   C1812     1.0  0.75028  0.79496  0.74060  1.0000
  C   C1813     1.0  0.80172  0.53698  0.70752  1.0000
  C   C1814     1.0  0.84488  0.73767  0.75679  1.0000
  C   C1815     1.0  0.96757  0.96399  0.88740  1.0000
  H   H1442     1.0  0.78672  0.86524  0.74892  1.0000
  C   C1816     1.0  0.81338  0.82368  0.63771  1.0000
  C   C1817     1.0  0.93908  0.84534  0.78552  1.0000
  H   H1443     1.0  0.67322  0.98391  0.93442  1.0000
  H   H1444     1.0  0.68343  0.62642  0.68342  1.0000
  C   C1818     1.0  0.95270  0.80319  0.81898  1.0000
  C   C1819     1.0  0.67274  0.98210  0.78934  1.0000
  Fe  Fe126     1.0  0.80786  0.98622  0.93210  1.0000
  C   C1820     1.0  0.71218  0.92942  0.83842  1.0000
  C   C1821     1.0  0.93156  0.79116  0.77085  1.0000
  C   C1822     1.0  0.68791  0.72065  0.70078  1.0000
  H   H1445     1.0  0.68015  0.77109  0.65733  1.0000
  C   C1823     1.0  0.70042  0.61214  0.72636  1.0000
  H   H1446     1.0  0.87989  0.77849  0.71950  1.0000
  C   C1824     1.0  0.97776  0.75209  0.51127  1.0000
  Fe  Fe127     1.0  0.79621  0.48720  0.90810  1.0000
  H   H1447     1.0  0.96448  0.67096  0.57947  1.0000
  H   H1448     1.0  0.80910  0.66710  0.75123  1.0000
  C   C1825     1.0  0.93584  0.81172  0.67741  1.0000
  H   H1449     1.0  0.97290  0.98163  0.74179  1.0000
  H   H1450     1.0  0.74938  0.62991  0.91119  1.0000
  C   C1826     1.0  0.96505  0.87222  0.71955  1.0000
  H   H1451     1.0  0.70822  0.74646  0.73615  1.0000
  H   H1452     1.0  0.85240  0.69369  0.48314  1.0000
  C   C1827     1.0  0.93386  0.92633  0.70200  1.0000
  C   C1828     1.0  0.94151  0.51720  0.85582  1.0000
  H   H1453     1.0  0.68701  0.84117  0.74795  1.0000
  H   H1454     1.0  0.92490  0.77356  0.75492  1.0000
  H   H1455     1.0  0.87481  0.54310  0.68170  1.0000
  C   C1829     1.0  0.89545  0.94011  0.89193  1.0000
  C   C1830     1.0  0.90914  0.54858  0.82361  1.0000
  C   C1831     1.0  0.68952  0.93306  0.85998  1.0000
  C   C1832     1.0  0.87256  0.84514  0.73650  1.0000
  H   H1456     1.0  0.86060  0.54318  0.83003  1.0000
  H   H1457     1.0  0.90833  0.68759  0.47847  1.0000
  C   C1833     1.0  0.92964  0.82334  0.76426  1.0000
  H   H1458     1.0  0.70905  0.84826  0.79802  1.0000
  H   H1459     1.0  0.97292  0.59197  0.52038  1.0000
  C   C1834     1.0  0.89769  0.65271  0.54579  1.0000
  C   C1835     1.0  0.83978  0.70538  0.75958  1.0000
  C   C1836     1.0  0.80549  0.87562  0.51678  1.0000
  C   C1837     1.0  0.86596  0.65558  0.54777  1.0000
  H   H1460     1.0  0.68920  0.55944  0.83979  1.0000
  C   C1838     1.0  0.99571  0.49058  0.81156  1.0000
  H   H1461     1.0  0.87477  0.84321  0.78443  1.0000
  C   C1839     1.0  0.94991  0.98024  0.82492  1.0000
  C   C1840     1.0  0.82839  0.79806  0.65038  1.0000
  C   C1841     1.0  0.75424  0.62347  0.73466  1.0000
  C   C1842     1.0  0.75639  0.63731  0.70670  1.0000
  C   C1843     1.0  0.73084  0.63816  0.68830  1.0000
  H   H1462     1.0  0.85548  0.51958  0.92411  1.0000
  S   S250      1.0  0.78952  0.53192  0.93283  1.0000
  C   C1844     1.0  0.70296  0.62559  0.69802  1.0000
  C   C1845     1.0  0.98493  0.59559  0.59449  1.0000
  C   C1846     1.0  0.89653  0.62631  0.93614  1.0000
  H   H1463     1.0  0.86585  0.74779  0.76518  1.0000
  C   C1847     1.0  0.99250  0.74896  0.74115  1.0000
  C   C1848     1.0  0.90346  0.95578  0.86565  1.0000
  H   H1464     1.0  0.68173  0.50577  0.67264  1.0000
  C   C1849     1.0  0.91735  0.76343  0.65542  1.0000
  H   H1465     1.0  0.99938  0.78025  0.67211  1.0000
  C   C1850     1.0  0.82960  0.85397  0.76968  1.0000
  C   C1851     1.0  0.98793  0.95835  0.93714  1.0000
  C   C1852     1.0  0.99336  0.94822  0.87630  1.0000
  H   H1466     1.0  0.77800  0.64708  0.69920  1.0000
  H   H1467     1.0  0.73273  0.64867  0.66649  1.0000
  C   C1853     1.0  0.81274  0.69218  0.74901  1.0000
  H   H1468     1.0  0.95140  0.83144  0.67625  1.0000
  H   H1469     1.0  0.82620  0.76076  0.68207  1.0000
  C   C1854     1.0  0.88313  0.53579  0.83703  1.0000
  H   H1470     1.0  0.90995  0.94105  0.91119  1.0000
  H   H1471     1.0  0.82360  0.83609  0.61918  1.0000
  H   H1472     1.0  0.78528  0.89235  0.55726  1.0000
  C   C1855     1.0  0.72645  0.61090  0.74447  1.0000
  H   H1473     1.0  0.99111  0.58069  0.61302  1.0000
  C   C1856     1.0  0.97476  0.60225  0.54216  1.0000
  S   S251      1.0  0.84450  0.96208  0.95964  1.0000
  C   C1857     1.0  0.85259  0.59351  0.94669  1.0000
  P   P60       1.0  0.95429  0.65865  0.51699  1.0000
  C   C1858     1.0  0.91346  0.66428  0.52088  1.0000
  C   C1859     1.0  0.97833  0.62730  0.59915  1.0000
  C   C1860     1.0  0.99058  0.54104  0.89065  1.0000
  C   C1861     1.0  0.82240  0.85758  0.71684  1.0000
  C   C1862     1.0  0.93668  0.78957  0.65461  1.0000
  H   H1474     1.0  0.72557  0.60029  0.76621  1.0000
  S   S252      1.0  0.79515  0.51050  0.86364  1.0000
  C   C1863     1.0  0.89680  0.67874  0.49807  1.0000
  C   C1864     1.0  0.71148  0.73772  0.71392  1.0000
  C   C1865     1.0  0.77228  0.87524  0.47375  1.0000
  C   C1866     1.0  0.80781  0.58244  0.67560  1.0000
  H   H1475     1.0  0.69708  0.97879  0.79239  1.0000
  H   H1476     1.0  0.97567  0.73510  0.69849  1.0000
  H   H1477     1.0  0.96661  0.77416  0.50627  1.0000
  C   C1867     1.0  0.96487  0.95260  0.78018  1.0000
  C   C1868     1.0  0.75400  0.89562  0.52079  1.0000
  C   C1869     1.0  0.89702  0.75946  0.67894  1.0000
  P   P61       1.0  0.91260  0.83704  0.73027  1.0000
  H   H1478     1.0  0.87902  0.54910  0.74358  1.0000
  C   C1870     1.0  0.80067  0.86889  0.48691  1.0000
  H   H1479     1.0  0.89868  0.54483  0.95006  1.0000
  H   H1480     1.0  0.80774  0.86231  0.69815  1.0000
  H   H1481     1.0  0.93282  0.56031  0.75574  1.0000
  H   H1482     1.0  0.82042  0.85563  0.79191  1.0000
  H   H1483     1.0  0.90955  0.64156  0.56390  1.0000
  H   H1484     1.0  0.77207  0.85106  0.63698  1.0000
  C   C1871     1.0  0.86766  0.92398  0.89410  1.0000
  C   C1872     1.0  0.97028  0.64659  0.57536  1.0000
  C   C1873     1.0  0.74920  0.88931  0.49084  1.0000
  C   C1874     1.0  0.69133  0.70920  0.67207  1.0000
  C   C1875     1.0  0.98902  0.75212  0.71060  1.0000
  C   C1876     1.0  0.84970  0.67047  0.52529  1.0000
  H   H1485     1.0  0.92189  0.94745  0.69531  1.0000
  C   C1877     1.0  0.79067  0.71120  0.73561  1.0000
  C   C1878     1.0  0.78940  0.56342  0.69355  1.0000
  H   H1486     1.0  0.86192  0.84880  0.68990  1.0000
  C   C1879     1.0  0.70482  0.91444  0.81174  1.0000
  S   S253      1.0  0.75002  0.94274  0.84405  1.0000
  H   H1487     1.0  0.91814  0.74618  0.63787  1.0000
  H   H1488     1.0  0.95820  0.54990  0.82264  1.0000
  P   P62       1.0  0.76789  0.76847  0.71423  1.0000
  C   C1880     1.0  0.97718  0.54633  0.91837  1.0000
  C   C1881     1.0  0.85089  0.54842  0.68521  1.0000
  C   C1882     1.0  0.67791  0.57748  0.82687  1.0000
  C   C1883     1.0  0.88617  0.51411  0.86006  1.0000
  C   C1884     1.0  0.87361  0.78622  0.49187  1.0000
  C   C1885     1.0  0.95623  0.95208  0.80997  1.0000
  H   H1489     1.0  0.74791  0.82221  0.67777  1.0000
  H   H1490     1.0  0.97195  0.51902  0.75076  1.0000
  H   H1491     1.0  0.79842  0.60313  0.66503  1.0000
  C   C1886     1.0  0.98335  0.58313  0.56597  1.0000
  H   H1492     1.0  0.67480  0.84035  0.54132  1.0000
  H   H1493     1.0  0.81880  0.85751  0.47478  1.0000
  C   C1887     1.0  0.00225  0.77785  0.69573  1.0000
  H   H1494     1.0  0.95836  0.85230  0.82881  1.0000
  S   S254      1.0  0.72011  0.75328  0.46760  1.0000
  H   H1495     1.0  0.72712  0.89458  0.48135  1.0000
  H   H1496     1.0  0.96002  0.53035  0.92697  1.0000
  C   C1888     1.0  0.73836  0.74438  0.69805  1.0000
  C   C1889     1.0  0.81469  0.78132  0.67356  1.0000
  H   H1497     1.0  0.78707  0.52313  0.72172  1.0000
  C   C1890     1.0  0.70840  0.82988  0.75373  1.0000
  H   H1498     1.0  0.97844  0.94607  0.69389  1.0000
  C   C1891     1.0  0.91519  0.50517  0.86974  1.0000
  C   C1892     1.0  0.86071  0.76209  0.47519  1.0000
  H   H1499     1.0  0.85402  0.64703  0.56724  1.0000
  C   C1893     1.0  0.82304  0.75674  0.74308  1.0000
  H   H1500     1.0  0.98831  0.55848  0.56239  1.0000
  H   H1501     1.0  0.91667  0.61883  0.47816  1.0000
  C   C1894     1.0  0.78603  0.79047  0.68467  1.0000
  H   H1502     1.0  0.69328  0.88234  0.62770  1.0000
  C   C1895     1.0  0.72309  0.81060  0.73320  1.0000
  C   C1896     1.0  0.78437  0.83213  0.64775  1.0000
  C   C1897     1.0  0.69055  0.85802  0.63428  1.0000
  C   C1898     1.0  0.77787  0.61895  0.94842  1.0000
  C   C1899     1.0  0.96817  0.63416  0.54673  1.0000
  C   C1900     1.0  0.92629  0.53711  0.74816  1.0000
  H   H1503     1.0  0.85302  0.59024  0.65823  1.0000
  C   C1901     1.0  0.98135  0.89876  0.71032  1.0000
  H   H1504     1.0  0.85021  0.79057  0.64153  1.0000
  C   C1902     1.0  0.97517  0.69544  0.51818  1.0000
  C   C1903     1.0  0.96577  0.92572  0.70137  1.0000
  H   H1505     1.0  0.88214  0.73905  0.67948  1.0000
  H   H1506     1.0  0.68875  0.67977  0.59138  1.0000
  C   C1904     1.0  0.83858  0.57505  0.67159  1.0000
  H   H1507     1.0  0.98712  0.75999  0.57705  1.0000
  C   C1905     1.0  0.77069  0.81559  0.67105  1.0000
  C   C1906     1.0  0.79574  0.74365  0.73239  1.0000
  C   C1907     1.0  0.00105  0.53675  0.67941  1.0000
  H   H1508     1.0  0.75724  0.82177  0.81141  1.0000
  C   C1908     1.0  0.68313  0.79533  0.65101  1.0000
  C   C1909     1.0  0.67500  0.90330  0.80656  1.0000
  S   S255      1.0  0.76161  0.96280  0.93093  1.0000
  H   H1509     1.0  0.78304  0.78731  0.77589  1.0000
  H   H1510     1.0  0.76239  0.73714  0.65659  1.0000
  H   H1511     1.0  0.68945  0.56046  0.68908  1.0000
  H   H1512     1.0  0.72101  0.70665  0.63394  1.0000
  H   H1513     1.0  0.68880  0.55533  0.78580  1.0000
  H   H1514     1.0  0.86149  0.49167  0.78334  1.0000
  C   C1910     1.0  0.74791  0.81874  0.78944  1.0000
  C   C1911     1.0  0.86509  0.68199  0.50044  1.0000
  H   H1515     1.0  0.90579  0.96497  0.49713  1.0000
  H   H1516     1.0  0.83910  0.93956  0.82589  1.0000
  H   H1517     1.0  0.93654  0.72553  0.50782  1.0000
  C   C1912     1.0  0.76257  0.79927  0.76900  1.0000
  H   H1518     1.0  0.94614  0.98213  0.92708  1.0000
  C   C1913     1.0  0.88303  0.95526  0.84172  1.0000
  P   P63       1.0  0.84844  0.49364  0.71932  1.0000
  H   H1519     1.0  0.72128  0.82633  0.47031  1.0000
  H   H1520     1.0  0.83766  0.75434  0.47975  1.0000
  H   H1521     1.0  0.91340  0.81531  0.49822  1.0000
  H   H1522     1.0  0.96194  0.79529  0.83991  1.0000
  H   H1523     1.0  0.84870  0.49415  0.65391  1.0000
  C   C1914     1.0  0.96533  0.96930  0.91797  1.0000
  H   H1524     1.0  0.70153  0.63120  0.94090  1.0000
  Fe  Fe128     1.0  0.74436  0.50321  0.86532  1.0000
  C   C1915     1.0  0.00249  0.75106  0.59380  1.0000
  C   C1916     1.0  0.99029  0.64292  0.46788  1.0000
  C   C1917     1.0  0.96635  0.98114  0.76488  1.0000
  P   P64       1.0  0.93802  0.97904  0.86324  1.0000
  H   H1525     1.0  0.99666  0.94480  0.85290  1.0000
  H   H1526     1.0  0.67201  0.49723  0.92994  1.0000
  H   H1527     1.0  0.98356  0.55140  0.66972  1.0000
  S   S256      1.0  0.71957  0.49547  0.82215  1.0000
  H   H1528     1.0  0.86600  0.50474  0.87096  1.0000
  C   C1918     1.0  0.67530  0.54490  0.70222  1.0000
  H   H1529     1.0  0.91683  0.48945  0.88854  1.0000
  H   H1530     1.0  0.00192  0.50354  0.64331  1.0000
  C   C1919     1.0  0.67163  0.85029  0.65845  1.0000
  C   C1920     1.0  0.93873  0.62224  0.46778  1.0000
  H   H1531     1.0  0.67271  0.69667  0.66175  1.0000
  H   H1532     1.0  0.97606  0.57545  0.95716  1.0000
  H   H1533     1.0  0.97157  0.48922  0.80667  1.0000
  H   H1534     1.0  0.85853  0.97504  0.46863  1.0000
  H   H1535     1.0  0.00252  0.70342  0.65412  1.0000
  H   H1536     1.0  0.67120  0.95601  0.74862  1.0000
