data_image0
_chemical_formula_structural       SFeS2Fe2SFeS3C3HC3HC8H5C4PC4HCHCH2CH5CHC4HCH2CH3C2H3CH3CHC2SH4C2HC3HC5H2CHC2HC2SCPCH6CHC3H2C5HC3H2C3PHC3HC2H4C2HCHCH2C5HCHCHCHCHFeS2FeS2Fe2S3FeS2FeS2FeHFeS3HC2HC2HCH2C6H4C4HC3H3C3HC3HCHC4H3C2HC2H2CHCHCH4CHC4PC13HC2H3C2H11CH4C2PCH2C2H2C4H2CH3C2H2CHC2HC2FeS2FeS2FeSFeHS2H2CHC3HC2HCHC2HCSC6H4C3HC4HCPH5CHC2HC3H2C3H2PC2HCHCHCH2C3H2C5H2C3HC4HSH3CH11CH4C2HCHCH2C8HC2HC4PC2H2C2H3CHCH3C4HC4HCHCHC2HCHC4H2CHCHCHCH2C2HC2H2C2H2PHCH2C5HCHPHCH3CHPCH2FeS2FeSCFeSFeS3FeS2FeS2FeSFeHS2CHCHC5H4C4HC6H6C3HPH3C3H3C2H3C2HCHCH2CH4C2HC3PHC5H3CH2C4HC4HC2HCHC2HC2HC3H5CH2C2H4FeS2FeS2FeSFeS3FeS2FeS2FeSFeS3C2H2C3HC7H3C7H4CHCH2CHCHC7H3C6PC14HC2H16C5H2CH2CHCH4SCH3C4PC2H2C4H2CHC6HC5H2CH3CHCH5C4H2C2H2CH3CPHCHCHCHC3H3CHCHC4H2C3HC3HC5HPCH3C4H2CHCHCH2C3H2CHC2HCH2C2HC2H7CSHFeSCFeS2FeSFeHS3FeS2FeS2FeCFeS2C6H4C2HC6H4C4H2C9H4C6PC6H3CH6C6PC4HC9HCH6CPH8SHCHCHPHC2HC2HCHSC4H3CHC2H2CH3C3HSC2HCHC3H2C3HC2HCH3CHC2HCH3CH2C6HCHC2H2CHC3HCHSC2H2CH4C2H5CSPCHCHC2HC2H2C2HC2FeSCFeSFeSFeS3FeS2CSFeSFeS3C3HC7H4C2HC2H5C3H2CHC3HC2HC3HC4HCPC3H2CHC7HCHC6H6CH3CHC3HC6HCH2CH7C4HFePCH2CHCH2CH3CH5PHCHC8H2C2HCHCSH4CHCHC3H2C3HCH4C2HCH2CH2C4HC6HFeS2Fe2CFeCS2HC4HCHC7H5C4HC2H2CH2C3H2SC3H2C2H2C5H4C2H2C3HCH2CHSHC6SC3H6CPHCHSC2H2C2H2C2PC2H3SCHC2HC2H2C2H2FeSFeS2FeSFeS3FeS2FeS2FeHFeS3HCHC2HCH2C6H6C4H3PC8HCH6CHCH2CHC2H3CHCH3C3PC16H6C2H5CH2C2HC6H2C3H2CH2C4HCH4C2H4C3H3CHC3HC2H2C4H4CHCHFeS2FeS2FeSFeS3HC3HCH2CHC4HC7H4C3HC3HC2HCH3CSC2PC11H2C2H2CH9C2PC11H2CH3C2H6CPCHC3HCHCH2C2H2C2H3C3H4CHC2H2CH2CH2C5HC5HCH2CHCH
_chemical_formula_sum              "S128 Fe64 C960 H768 P32"
_cell_length_a       46.0269
_cell_length_b       46.15
_cell_length_c       39.5768
_cell_angle_alpha    92.4884
_cell_angle_beta     87.5106
_cell_angle_gamma    123.035

_space_group_name_H-M_alt    "P 1"
_space_group_IT_number       1

loop_
  _space_group_symop_operation_xyz
  'x, y, z'

loop_
  _atom_site_type_symbol
  _atom_site_label
  _atom_site_symmetry_multiplicity
  _atom_site_fract_x
  _atom_site_fract_y
  _atom_site_fract_z
  _atom_site_occupancy
  S   S1        1.0  0.33938  0.17005  0.29623  1.0000
  Fe  Fe1       1.0  0.30237  0.11261  0.10313  1.0000
  S   S2        1.0  0.33018  0.16927  0.09415  1.0000
  S   S3        1.0  0.28880  0.08730  0.15480  1.0000
  Fe  Fe2       1.0  0.29856  0.09496  0.02711  1.0000
  Fe  Fe3       1.0  0.36320  0.16096  0.05631  1.0000
  S   S4        1.0  0.42062  0.20408  0.06378  1.0000
  Fe  Fe4       1.0  0.29311  0.15633  0.05193  1.0000
  S   S5        1.0  0.26795  0.18817  0.05031  1.0000
  S   S6        1.0  0.33663  0.10422  0.06710  1.0000
  S   S7        1.0  0.26244  0.09953  0.06406  1.0000
  C   C1        1.0  0.13402  0.34801  0.01584  1.0000
  C   C2        1.0  0.46333  0.21258  0.05862  1.0000
  C   C3        1.0  0.26284  0.41797  0.16036  1.0000
  H   H1        1.0  0.29831  0.40418  0.08931  1.0000
  C   C4        1.0  0.47234  0.19540  0.26961  1.0000
  C   C5        1.0  0.25334  0.20303  0.01782  1.0000
  C   C6        1.0  0.38915  0.13576  0.17349  1.0000
  H   H2        1.0  0.31240  0.09772  0.27657  1.0000
  C   C7        1.0  0.37161  0.24891  0.01776  1.0000
  C   C8        1.0  0.41637  0.20582  0.18922  1.0000
  C   C9        1.0  0.32487  0.14610  0.25740  1.0000
  C   C10       1.0  0.32632  0.16333  0.22826  1.0000
  C   C11       1.0  0.31652  0.14597  0.19658  1.0000
  C   C12       1.0  0.30380  0.11072  0.19382  1.0000
  C   C13       1.0  0.30189  0.09331  0.22302  1.0000
  C   C14       1.0  0.31292  0.11104  0.25454  1.0000
  H   H3        1.0  0.33513  0.19030  0.23003  1.0000
  H   H4        1.0  0.31795  0.15966  0.17445  1.0000
  H   H5        1.0  0.29225  0.06607  0.22114  1.0000
  H   H6        1.0  0.23881  0.01119  0.05520  1.0000
  H   H7        1.0  0.10720  0.33401  0.00826  1.0000
  C   C15       1.0  0.14287  0.33866  0.04493  1.0000
  C   C16       1.0  0.17758  0.35592  0.05419  1.0000
  C   C17       1.0  0.20362  0.38299  0.03454  1.0000
  C   C18       1.0  0.15546  0.06044  0.30286  1.0000
  P   P1        1.0  0.24862  0.40362  0.04500  1.0000
  C   C19       1.0  0.08290  0.01663  0.30187  1.0000
  C   C20       1.0  0.25361  0.40831  0.09020  1.0000
  C   C21       1.0  0.23196  0.41467  0.11080  1.0000
  C   C22       1.0  0.23643  0.41924  0.14579  1.0000
  H   H8        1.0  0.32897  0.25526  0.01295  1.0000
  C   C23       1.0  0.44432  0.17521  0.29171  1.0000
  H   H9        1.0  0.42279  0.17866  0.29392  1.0000
  C   C24       1.0  0.25400  0.34627  0.04413  1.0000
  H   H10       1.0  0.08478  0.05573  0.27226  1.0000
  H   H11       1.0  0.21957  0.42403  0.16159  1.0000
  C   C25       1.0  0.46721  0.27075  0.26004  1.0000
  H   H12       1.0  0.25528  0.30019  0.04222  1.0000
  H   H13       1.0  0.42463  0.21277  0.13517  1.0000
  H   H14       1.0  0.09783  0.17178  0.13299  1.0000
  H   H15       1.0  0.23224  0.22374  0.05370  1.0000
  H   H16       1.0  0.21179  0.41636  0.09980  1.0000
  C   C26       1.0  0.26045  0.46744  0.02799  1.0000
  H   H17       1.0  0.29502  0.01322  0.02199  1.0000
  C   C27       1.0  0.41533  0.19457  0.15551  1.0000
  C   C28       1.0  0.39467  0.24220  0.00076  1.0000
  C   C29       1.0  0.99008  0.21868  0.02869  1.0000
  C   C30       1.0  0.02993  0.16913  0.17434  1.0000
  H   H18       1.0  0.21295  0.24691  0.01023  1.0000
  C   C31       1.0  0.20418  0.07473  0.23357  1.0000
  H   H19       1.0  0.37445  0.21686  0.15010  1.0000
  H   H20       1.0  0.32194  0.44769  0.02412  1.0000
  C   C32       1.0  0.43591  0.25862  0.24384  1.0000
  H   H21       1.0  0.06953  0.16148  0.18993  1.0000
  H   H22       1.0  0.01816  0.16469  0.19939  1.0000
  H   H23       1.0  0.41284  0.24018  0.01520  1.0000
  C   C33       1.0  0.40782  0.25368  0.29872  1.0000
  C   C34       1.0  0.40240  0.26136  0.18414  1.0000
  H   H24       1.0  0.37731  0.10851  0.16734  1.0000
  H   H25       1.0  0.18852  0.04772  0.24012  1.0000
  H   H26       1.0  0.45797  0.15217  0.14533  1.0000
  C   C35       1.0  0.35382  0.24845  0.14992  1.0000
  H   H27       1.0  0.38147  0.12833  0.22725  1.0000
  H   H28       1.0  0.40417  0.18931  0.24126  1.0000
  H   H29       1.0  0.33769  0.28432  0.15481  1.0000
  C   C36       1.0  0.13588  0.07003  0.28589  1.0000
  H   H30       1.0  0.39930  0.15111  0.12138  1.0000
  C   C37       1.0  0.22592  0.23390  0.00256  1.0000
  C   C38       1.0  0.04693  0.25077  0.99929  1.0000
  S   S8        1.0  0.09082  0.26224  0.99625  1.0000
  H   H31       1.0  0.12282  0.31715  0.05950  1.0000
  H   H32       1.0  0.33432  0.23189  0.13155  1.0000
  H   H33       1.0  0.23354  0.45694  0.03488  1.0000
  H   H34       1.0  0.05489  0.99966  0.30140  1.0000
  C   C39       1.0  0.01636  0.17672  0.14745  1.0000
  C   C40       1.0  0.40121  0.15963  0.14763  1.0000
  H   H35       1.0  0.38173  0.24045  0.25181  1.0000
  C   C41       1.0  0.24457  0.14407  0.21550  1.0000
  C   C42       1.0  0.23385  0.11801  0.19064  1.0000
  C   C43       1.0  0.21376  0.08337  0.19968  1.0000
  H   H36       1.0  0.38198  0.32196  0.19718  1.0000
  C   C44       1.0  0.21536  0.10075  0.25885  1.0000
  C   C45       1.0  0.23553  0.13557  0.24951  1.0000
  C   C46       1.0  0.47423  0.27726  0.17756  1.0000
  C   C47       1.0  0.43869  0.26474  0.31475  1.0000
  C   C48       1.0  0.13837  0.02859  0.31918  1.0000
  H   H37       1.0  0.18409  0.34764  0.07619  1.0000
  H   H38       1.0  0.47198  0.12772  0.32469  1.0000
  C   C49       1.0  0.27471  0.44730  0.02984  1.0000
  H   H39       1.0  0.07423  0.18535  0.08527  1.0000
  C   C50       1.0  0.40634  0.25041  0.26349  1.0000
  C   C51       1.0  0.37694  0.24009  0.16046  1.0000
  H   H40       1.0  0.47117  0.16979  0.20511  1.0000
  C   C52       1.0  0.39142  0.14693  0.20722  1.0000
  C   C53       1.0  0.47008  0.18904  0.04283  1.0000
  S   S9        1.0  0.32782  0.15174  0.01327  1.0000
  C   C54       1.0  0.26167  0.37571  0.02688  1.0000
  P   P2        1.0  0.43234  0.25078  0.19858  1.0000
  C   C55       1.0  0.25472  0.04089  0.31235  1.0000
  H   H41       1.0  0.26080  0.17092  0.20848  1.0000
  H   H42       1.0  0.24200  0.12462  0.16444  1.0000
  H   H43       1.0  0.20637  0.06330  0.18038  1.0000
  H   H44       1.0  0.38453  0.24622  0.31364  1.0000
  H   H45       1.0  0.24455  0.15632  0.26816  1.0000
  H   H46       1.0  0.26636  0.42164  0.18747  1.0000
  C   C56       1.0  0.40453  0.18173  0.21509  1.0000
  H   H47       1.0  0.44882  0.16393  0.03453  1.0000
  C   C57       1.0  0.35571  0.27799  0.16303  1.0000
  C   C58       1.0  0.23677  0.22053  0.02716  1.0000
  C   C59       1.0  0.05919  0.16733  0.16909  1.0000
  H   H48       1.0  0.04154  0.24587  0.13348  1.0000
  H   H49       1.0  0.21924  0.01596  0.11327  1.0000
  C   C60       1.0  0.26146  0.32301  0.02898  1.0000
  C   C61       1.0  0.06185  0.18072  0.11016  1.0000
  C   C62       1.0  0.40391  0.29092  0.19736  1.0000
  C   C63       1.0  0.19459  0.39118  0.00467  1.0000
  C   C64       1.0  0.38070  0.29918  0.18681  1.0000
  H   H50       1.0  0.42287  0.30746  0.21606  1.0000
  C   C65       1.0  0.07514  0.17313  0.13704  1.0000
  C   C66       1.0  0.01907  0.24451  0.12415  1.0000
  C   C67       1.0  0.44413  0.15066  0.31133  1.0000
  H   H51       1.0  0.24149  0.34079  0.06891  1.0000
  H   H52       1.0  0.04993  0.29337  0.09921  1.0000
  C   C68       1.0  0.03260  0.18246  0.11531  1.0000
  C   C69       1.0  0.02489  0.22824  0.02484  1.0000
  C   C70       1.0  0.28055  0.40783  0.10490  1.0000
  P   P3        1.0  0.20211  0.08878  0.30243  1.0000
  H   H53       1.0  0.26901  0.03309  0.29617  1.0000
  C   C71       1.0  0.10221  0.00682  0.31869  1.0000
  C   C72       1.0  0.28497  0.41240  0.13991  1.0000
  C   C73       1.0  0.02398  0.27179  0.10516  1.0000
  H   H54       1.0  0.03481  0.21793  0.04161  1.0000
  C   C74       1.0  0.20163  0.99462  0.09664  1.0000
  C   C75       1.0  0.47200  0.14644  0.30906  1.0000
  H   H55       1.0  0.30573  0.41188  0.15115  1.0000
  H   H56       1.0  0.14863  0.09438  0.27292  1.0000
  H   H57       1.0  0.24142  0.05996  0.27143  1.0000
  H   H58       1.0  0.02271  0.18845  0.09418  1.0000
  C   C76       1.0  0.09973  0.04821  0.28547  1.0000
  C   C77       1.0  0.46838  0.27345  0.29547  1.0000
  H   H59       1.0  0.37197  0.25174  0.04510  1.0000
  C   C78       1.0  0.31007  0.46229  0.02191  1.0000
  H   H60       1.0  0.47278  0.32339  0.17736  1.0000
  C   C79       1.0  0.23895  0.05620  0.29839  1.0000
  H   H61       1.0  0.47206  0.21402  0.25426  1.0000
  H   H62       1.0  0.99905  0.29140  0.07754  1.0000
  C   C80       1.0  0.27813  0.99679  0.00189  1.0000
  C   C81       1.0  0.21271  0.99195  0.06391  1.0000
  C   C82       1.0  0.15990  0.37414  0.99563  1.0000
  C   C83       1.0  0.99538  0.27087  0.09314  1.0000
  C   C84       1.0  0.22148  0.06753  0.31937  1.0000
  H   H63       1.0  0.99103  0.23998  0.19494  1.0000
  C   C85       1.0  0.27569  0.32843  0.99617  1.0000
  H   H64       1.0  0.39363  0.11907  0.00073  1.0000
  C   C86       1.0  0.27623  0.38110  0.99408  1.0000
  H   H65       1.0  0.42618  0.18207  0.99294  1.0000
  C   C87       1.0  0.34734  0.25079  0.99965  1.0000
  H   H66       1.0  0.48485  0.23683  0.17317  1.0000
  C   C88       1.0  0.48436  0.17110  0.15251  1.0000
  H   H67       1.0  0.27015  0.14711  0.32135  1.0000
  Fe  Fe5       1.0  0.32534  0.18210  0.42096  1.0000
  S   S10       1.0  0.29587  0.13358  0.38860  1.0000
  S   S11       1.0  0.30903  0.22021  0.43638  1.0000
  Fe  Fe6       1.0  0.39498  0.18587  0.40891  1.0000
  S   S12       1.0  0.36963  0.13746  0.37579  1.0000
  S   S13       1.0  0.45214  0.22549  0.42283  1.0000
  Fe  Fe7       1.0  0.34114  0.15812  0.35163  1.0000
  Fe  Fe8       1.0  0.32544  0.11502  0.41514  1.0000
  S   S14       1.0  0.29705  0.05634  0.42561  1.0000
  S   S15       1.0  0.36906  0.20753  0.38253  1.0000
  S   S16       1.0  0.35262  0.16260  0.44982  1.0000
  Fe  Fe9       1.0  0.19368  0.27860  0.55354  1.0000
  S   S17       1.0  0.14857  0.25828  0.59085  1.0000
  S   S18       1.0  0.20232  0.23607  0.53309  1.0000
  Fe  Fe10      1.0  0.21098  0.35382  0.56383  1.0000
  S   S19       1.0  0.16639  0.33758  0.60066  1.0000
  S   S20       1.0  0.25341  0.40946  0.54845  1.0000
  Fe  Fe11      1.0  0.18250  0.30490  0.62416  1.0000
  H   H68       1.0  0.98892  0.01230  0.52651  1.0000
  Fe  Fe12      1.0  0.13521  0.29182  0.56440  1.0000
  S   S21       1.0  0.07760  0.27006  0.55500  1.0000
  S   S22       1.0  0.22833  0.32280  0.58861  1.0000
  S   S23       1.0  0.17886  0.31036  0.52570  1.0000
  H   H69       1.0  0.05144  0.23025  0.43507  1.0000
  C   C89       1.0  0.28973  0.28388  0.61478  1.0000
  C   C90       1.0  0.21973  0.06292  0.35443  1.0000
  H   H70       1.0  0.26609  0.02570  0.35828  1.0000
  C   C91       1.0  0.11796  0.10194  0.48137  1.0000
  C   C92       1.0  0.27959  0.02557  0.45905  1.0000
  H   H71       1.0  0.00502  0.01618  0.58630  1.0000
  C   C93       1.0  0.28057  0.03519  0.49325  1.0000
  H   H72       1.0  0.15275  0.02026  0.33205  1.0000
  H   H73       1.0  0.29235  0.06218  0.50026  1.0000
  C   C94       1.0  0.27920  0.22389  0.46383  1.0000
  C   C95       1.0  0.28128  0.25556  0.46582  1.0000
  C   C96       1.0  0.25831  0.25995  0.48693  1.0000
  C   C97       1.0  0.23264  0.23257  0.50630  1.0000
  C   C98       1.0  0.23052  0.20088  0.50431  1.0000
  C   C99       1.0  0.25365  0.19656  0.48336  1.0000
  H   H74       1.0  0.30088  0.27692  0.45089  1.0000
  H   H75       1.0  0.26026  0.28441  0.48790  1.0000
  H   H76       1.0  0.21087  0.17951  0.51920  1.0000
  H   H77       1.0  0.25169  0.17210  0.48226  1.0000
  C   C100      1.0  0.06348  0.24730  0.48728  1.0000
  C   C101      1.0  0.05056  0.25019  0.51906  1.0000
  C   C102      1.0  0.01482  0.23685  0.52271  1.0000
  C   C103      1.0  0.00538  0.21858  0.46321  1.0000
  H   H78       1.0  0.09083  0.25748  0.48390  1.0000
  C   C104      1.0  0.29893  0.37787  0.64328  1.0000
  C   C105      1.0  0.24628  0.45586  0.59086  1.0000
  C   C106      1.0  0.26494  0.45133  0.56455  1.0000
  H   H79       1.0  0.27572  0.30504  0.55221  1.0000
  H   H80       1.0  0.22366  0.43345  0.60191  1.0000
  H   H81       1.0  0.30644  0.36355  0.62692  1.0000
  C   C107      1.0  0.38583  0.31232  0.62263  1.0000
  C   C108      1.0  0.28640  0.39595  0.62901  1.0000
  C   C109      1.0  0.32774  0.38892  0.52996  1.0000
  H   H82       1.0  0.38191  0.42240  0.54084  1.0000
  C   C110      1.0  0.29810  0.35569  0.53282  1.0000
  C   C111      1.0  0.99239  0.22117  0.49505  1.0000
  C   C112      1.0  0.36626  0.32691  0.61850  1.0000
  H   H83       1.0  0.24645  0.20431  0.39280  1.0000
  C   C113      1.0  0.27425  0.41253  0.64977  1.0000
  H   H84       1.0  0.27411  0.34956  0.52187  1.0000
  C   C114      1.0  0.04104  0.23174  0.45961  1.0000
  C   C115      1.0  0.09287  0.06650  0.47973  1.0000
  C   C116      1.0  0.00961  0.10774  0.44187  1.0000
  C   C117      1.0  0.35879  0.39676  0.54366  1.0000
  H   H85       1.0  0.00449  0.23905  0.54706  1.0000
  H   H86       1.0  0.32649  0.40847  0.51705  1.0000
  H   H87       1.0  0.20703  0.07207  0.37125  1.0000
  C   C118      1.0  0.32009  0.24289  0.57170  1.0000
  C   C119      1.0  0.20229  0.15905  0.37009  1.0000
  H   H88       1.0  0.28494  0.39618  0.60178  1.0000
  C   C120      1.0  0.29908  0.33061  0.55041  1.0000
  C   C121      1.0  0.05771  0.05469  0.48147  1.0000
  H   H89       1.0  0.16362  0.11246  0.34487  1.0000
  H   H90       1.0  0.20419  0.22112  0.60489  1.0000
  C   C122      1.0  0.35991  0.37165  0.56113  1.0000
  H   H91       1.0  0.42255  0.13517  0.32863  1.0000
  C   C123      1.0  0.23770  0.18284  0.37483  1.0000
  H   H92       1.0  0.14529  0.11120  0.48050  1.0000
  C   C124      1.0  0.25944  0.25680  0.59965  1.0000
  H   H93       1.0  0.31274  0.19371  0.55732  1.0000
  H   H94       1.0  0.26267  0.42448  0.63806  1.0000
  H   H95       1.0  0.10075  0.04822  0.47739  1.0000
  H   H96       1.0  0.35971  0.31354  0.52161  1.0000
  C   C125      1.0  0.99674  0.13908  0.48412  1.0000
  H   H97       1.0  0.02684  0.10064  0.43073  1.0000
  C   C126      1.0  0.28772  0.29418  0.64828  1.0000
  C   C127      1.0  0.04761  0.07834  0.48475  1.0000
  C   C128      1.0  0.07266  0.11408  0.48562  1.0000
  C   C129      1.0  0.10796  0.12563  0.48446  1.0000
  P   P4        1.0  0.05958  0.14462  0.49111  1.0000
  C   C130      1.0  0.05448  0.15069  0.53587  1.0000
  C   C131      1.0  0.09174  0.18472  0.47111  1.0000
  C   C132      1.0  0.08584  0.19272  0.43925  1.0000
  C   C133      1.0  0.11124  0.22314  0.42336  1.0000
  C   C134      1.0  0.14288  0.24559  0.43886  1.0000
  C   C135      1.0  0.14905  0.23773  0.47033  1.0000
  C   C136      1.0  0.12347  0.20776  0.48670  1.0000
  C   C137      1.0  0.06309  0.18305  0.54915  1.0000
  C   C138      1.0  0.05805  0.18730  0.58364  1.0000
  C   C139      1.0  0.04427  0.15932  0.60514  1.0000
  C   C140      1.0  0.03518  0.12688  0.59208  1.0000
  C   C141      1.0  0.04009  0.12251  0.55755  1.0000
  C   C142      1.0  0.01858  0.12848  0.47151  1.0000
  H   H98       1.0  0.26764  0.01785  0.54484  1.0000
  C   C143      1.0  0.25308  0.03669  0.34727  1.0000
  C   C144      1.0  0.22761  0.24113  0.61725  1.0000
  H   H99       1.0  0.46287  0.31989  0.40313  1.0000
  H   H100      1.0  0.18357  0.16230  0.38432  1.0000
  H   H101      1.0  0.03259  0.09714  0.54792  1.0000
  C   C145      1.0  0.23527  0.04736  0.36824  1.0000
  C   C146      1.0  0.19113  0.13086  0.34756  1.0000
  H   H102      1.0  0.02027  0.06873  0.48673  1.0000
  H   H103      1.0  0.12804  0.15285  0.48615  1.0000
  H   H104      1.0  0.06152  0.17601  0.42670  1.0000
  H   H105      1.0  0.10618  0.22950  0.39919  1.0000
  H   H106      1.0  0.16256  0.26924  0.42667  1.0000
  H   H107      1.0  0.17375  0.25498  0.48214  1.0000
  H   H108      1.0  0.12872  0.20246  0.51134  1.0000
  H   H109      1.0  0.07355  0.20508  0.53297  1.0000
  H   H110      1.0  0.06497  0.21249  0.59369  1.0000
  H   H111      1.0  0.04071  0.16293  0.63189  1.0000
  H   H112      1.0  0.37966  0.28883  0.60907  1.0000
  C   C147      1.0  0.25679  0.48950  0.60282  1.0000
  H   H113      1.0  0.34183  0.21322  0.50113  1.0000
  H   H114      1.0  0.38434  0.37813  0.57102  1.0000
  H   H115      1.0  0.02438  0.10516  0.60873  1.0000
  H   H116      1.0  0.47651  0.20209  0.36413  1.0000
  C   C148      1.0  0.22573  0.25226  0.65015  1.0000
  C   C149      1.0  0.32963  0.33875  0.56586  1.0000
  P   P5        1.0  0.32994  0.30664  0.59029  1.0000
  C   C150      1.0  0.33308  0.27681  0.56178  1.0000
  H   H117      1.0  0.30738  0.23402  0.59618  1.0000
  H   H118      1.0  0.03830  0.02718  0.48039  1.0000
  C   C151      1.0  0.26650  0.00986  0.51858  1.0000
  C   C152      1.0  0.29404  0.48110  0.55039  1.0000
  H   H119      1.0  0.36515  0.27287  0.48358  1.0000
  H   H120      1.0  0.26013  0.24840  0.57382  1.0000
  C   C153      1.0  0.34968  0.28766  0.53001  1.0000
  C   C154      1.0  0.35316  0.26484  0.50849  1.0000
  C   C155      1.0  0.33990  0.23105  0.51837  1.0000
  C   C156      1.0  0.32334  0.22006  0.54994  1.0000
  H   H121      1.0  0.30867  0.47813  0.52996  1.0000
  H   H122      1.0  0.23468  0.04468  0.39540  1.0000
  C   C157      1.0  0.26198  0.17862  0.35687  1.0000
  H   H123      1.0  0.00390  0.15663  0.50579  1.0000
  H   H124      1.0  0.28945  0.19677  0.36100  1.0000
  H   H125      1.0  0.36051  0.36916  0.63406  1.0000
  C   C158      1.0  0.37517  0.35740  0.63672  1.0000
  C   C159      1.0  0.25095  0.15044  0.33447  1.0000
  H   H126      1.0  0.29986  0.48048  0.65344  1.0000
  H   H127      1.0  0.13243  0.39529  0.65444  1.0000
  C   C160      1.0  0.21548  0.12639  0.32952  1.0000
  H   H128      1.0  0.43930  0.26591  0.34216  1.0000
  C   C161      1.0  0.26401  0.99009  0.45078  1.0000
  C   C162      1.0  0.41383  0.32803  0.64448  1.0000
  H   H129      1.0  0.42880  0.31662  0.64748  1.0000
  C   C163      1.0  0.03369  0.26379  0.97766  1.0000
  C   C164      1.0  0.28439  0.42373  0.80678  1.0000
  Fe  Fe13      1.0  0.20246  0.34999  0.92763  1.0000
  S   S24       1.0  0.14645  0.32653  0.91511  1.0000
  S   S25       1.0  0.24791  0.40705  0.92575  1.0000
  Fe  Fe14      1.0  0.19338  0.27809  0.93127  1.0000
  S   S26       1.0  0.13717  0.25043  0.91699  1.0000
  S   S27       1.0  0.22118  0.24899  0.93570  1.0000
  Fe  Fe15      1.0  0.15405  0.29197  0.87868  1.0000
  S   S28       1.0  0.12937  0.28146  0.82681  1.0000
  Fe  Fe16      1.0  0.13341  0.28662  0.95434  1.0000
  H   H130      1.0  0.21519  0.46157  0.76445  1.0000
  S   S29       1.0  0.21027  0.31678  0.88963  1.0000
  S   S30       1.0  0.18937  0.31293  0.97009  1.0000
  H   H131      1.0  0.98924  0.26520  0.96511  1.0000
  H   H132      1.0  0.20102  0.38661  0.75546  1.0000
  C   C165      1.0  0.99924  0.11953  0.81542  1.0000
  H   H133      1.0  0.44020  0.20709  0.82348  1.0000
  C   C166      1.0  0.19057  0.45852  0.77096  1.0000
  C   C167      1.0  0.23213  0.23067  0.96807  1.0000
  C   C168      1.0  0.24839  0.21287  0.95873  1.0000
  H   H134      1.0  0.43256  0.28474  0.90897  1.0000
  C   C169      1.0  0.27640  0.41299  0.68509  1.0000
  C   C170      1.0  0.25202  0.39932  0.82087  1.0000
  H   H135      1.0  0.25885  0.45513  0.85897  1.0000
  C   C171      1.0  0.04855  0.25229  0.88547  1.0000
  H   H136      1.0  0.30750  0.43368  0.82138  1.0000
  C   C172      1.0  0.06431  0.12751  0.93382  1.0000
  C   C173      1.0  0.30030  0.37723  0.67842  1.0000
  H   H137      1.0  0.07514  0.27153  0.87817  1.0000
  C   C174      1.0  0.44020  0.27644  0.85640  1.0000
  S   S31       1.0  0.19957  0.30794  0.67860  1.0000
  C   C175      1.0  0.17948  0.30117  0.71947  1.0000
  C   C176      1.0  0.19942  0.30716  0.74803  1.0000
  C   C177      1.0  0.18465  0.30151  0.78101  1.0000
  C   C178      1.0  0.14966  0.28987  0.78586  1.0000
  C   C179      1.0  0.12984  0.28435  0.75731  1.0000
  C   C180      1.0  0.14463  0.29002  0.72430  1.0000
  H   H138      1.0  0.22646  0.31602  0.74463  1.0000
  H   H139      1.0  0.20026  0.30590  0.80265  1.0000
  H   H140      1.0  0.10276  0.27536  0.76074  1.0000
  H   H141      1.0  0.12898  0.28539  0.70264  1.0000
  C   C181      1.0  0.35089  0.12064  0.93359  1.0000
  C   C182      1.0  0.25400  0.44869  0.92941  1.0000
  C   C183      1.0  0.22643  0.45334  0.93386  1.0000
  H   H142      1.0  0.31228  0.45385  0.76331  1.0000
  C   C184      1.0  0.00506  0.19406  0.90345  1.0000
  C   C185      1.0  0.03576  0.12597  0.92056  1.0000
  C   C186      1.0  0.16249  0.37803  0.67595  1.0000
  C   C187      1.0  0.22458  0.39780  0.76936  1.0000
  H   H143      1.0  0.30914  0.36251  0.68965  1.0000
  C   C188      1.0  0.28692  0.43527  0.77400  1.0000
  P   P6        1.0  0.26120  0.43543  0.71138  1.0000
  H   H144      1.0  0.36599  0.23291  0.92060  1.0000
  H   H145      1.0  0.34498  0.07954  0.96320  1.0000
  H   H146      1.0  0.44778  0.26184  0.80593  1.0000
  H   H147      1.0  0.04403  0.19634  0.96178  1.0000
  H   H148      1.0  0.16079  0.40653  0.75016  1.0000
  C   C189      1.0  0.43103  0.21442  0.87608  1.0000
  H   H149      1.0  0.42856  0.19081  0.88341  1.0000
  C   C190      1.0  0.28796  0.47817  0.92718  1.0000
  C   C191      1.0  0.21937  0.99612  0.84994  1.0000
  H   H150      1.0  0.25001  0.39036  0.84632  1.0000
  C   C192      1.0  0.39786  0.17878  0.94936  1.0000
  C   C193      1.0  0.36967  0.15636  0.92877  1.0000
  C   C194      1.0  0.03944  0.21923  0.89403  1.0000
  H   H151      1.0  0.21441  0.41031  0.98805  1.0000
  H   H152      1.0  0.21861  0.46648  0.83349  1.0000
  C   C195      1.0  0.19419  0.38800  0.68969  1.0000
  C   C196      1.0  0.22318  0.02668  0.86286  1.0000
  C   C197      1.0  0.12651  0.44969  0.78702  1.0000
  H   H153      1.0  0.23810  0.99441  0.75532  1.0000
  H   H154      1.0  0.24322  0.99428  0.69289  1.0000
  P   P7        1.0  0.42104  0.22496  0.94440  1.0000
  C   C198      1.0  0.02342  0.26044  0.88601  1.0000
  C   C199      1.0  0.39355  0.23714  0.96552  1.0000
  H   H155      1.0  0.19873  0.36828  0.69623  1.0000
  C   C200      1.0  0.34594  0.24569  0.96454  1.0000
  H   H156      1.0  0.14282  0.35079  0.67221  1.0000
  C   C201      1.0  0.21998  0.42311  0.69458  1.0000
  H   H157      1.0  0.36178  0.16649  0.90952  1.0000
  C   C202      1.0  0.00773  0.13480  0.84779  1.0000
  H   H158      1.0  0.01942  0.10519  0.90298  1.0000
  H   H159      1.0  0.19705  0.36734  0.81312  1.0000
  C   C203      1.0  0.21409  0.44814  0.68419  1.0000
  C   C204      1.0  0.42779  0.23570  0.90031  1.0000
  C   C205      1.0  0.35996  0.10716  0.95909  1.0000
  H   H160      1.0  0.28010  0.30963  0.98387  1.0000
  H   H161      1.0  0.23413  0.47532  0.68601  1.0000
  C   C206      1.0  0.18729  0.99627  0.80306  1.0000
  C   C207      1.0  0.22215  0.38658  0.80226  1.0000
  C   C208      1.0  0.26887  0.47950  0.84678  1.0000
  C   C209      1.0  0.43792  0.22371  0.84210  1.0000
  C   C210      1.0  0.28310  0.35750  0.97876  1.0000
  H   H162      1.0  0.32658  0.24646  0.95068  1.0000
  H   H163      1.0  0.40978  0.39650  0.67255  1.0000
  C   C211      1.0  0.40603  0.16509  0.97555  1.0000
  C   C212      1.0  0.25704  0.42228  0.75485  1.0000
  C   C213      1.0  0.20917  0.04209  0.84590  1.0000
  H   H164      1.0  0.30951  0.47498  0.92378  1.0000
  C   C214      1.0  0.47812  0.27906  0.97866  1.0000
  C   C215      1.0  0.43336  0.26722  0.89040  1.0000
  C   C216      1.0  0.28921  0.39481  0.69929  1.0000
  C   C217      1.0  0.07795  0.17851  0.96705  1.0000
  H   H165      1.0  0.01967  0.12419  0.79736  1.0000
  S   S32       1.0  0.27296  0.05224  0.98544  1.0000
  H   H166      1.0  0.10164  0.44616  0.79331  1.0000
  H   H167      1.0  0.18049  0.03895  0.80282  1.0000
  H   H168      1.0  0.29311  0.36118  0.95293  1.0000
  C   C218      1.0  0.36858  0.23834  0.94755  1.0000
  H   H169      1.0  0.21223  0.06582  0.85595  1.0000
  H   H170      1.0  0.23710  0.03847  0.88609  1.0000
  H   H171      1.0  0.03062  0.28615  0.87956  1.0000
  H   H172      1.0  0.10408  0.39862  0.76462  1.0000
  H   H173      1.0  0.25316  0.20990  0.93219  1.0000
  H   H174      1.0  0.05021  0.28116  0.95792  1.0000
  H   H175      1.0  0.23104  0.99689  0.93838  1.0000
  H   H176      1.0  0.25396  0.28755  0.69104  1.0000
  H   H177      1.0  0.03480  0.15154  0.85426  1.0000
  H   H178      1.0  0.10813  0.15567  0.96660  1.0000
  H   H179      1.0  0.44413  0.37045  0.67942  1.0000
  C   C219      1.0  0.04951  0.17704  0.95379  1.0000
  H   H180      1.0  0.09444  0.19917  0.98478  1.0000
  H   H181      1.0  0.46353  0.29111  0.98194  1.0000
  H   H182      1.0  0.28984  0.39317  0.72634  1.0000
  H   H183      1.0  0.05928  0.21339  0.89286  1.0000
  C   C220      1.0  0.02876  0.15132  0.92984  1.0000
  C   C221      1.0  0.25580  0.27857  0.66575  1.0000
  H   H184      1.0  0.20013  0.43103  0.93526  1.0000
  C   C222      1.0  0.29153  0.48182  0.70786  1.0000
  H   H185      1.0  0.32866  0.10334  0.91826  1.0000
  C   C223      1.0  0.46384  0.24683  0.96184  1.0000
  H   H186      1.0  0.07015  0.10839  0.92610  1.0000
  H   H187      1.0  0.27102  0.18534  0.97552  1.0000
  C   C224      1.0  0.18948  0.48561  0.78730  1.0000
  C   C225      1.0  0.12785  0.42289  0.77086  1.0000
  C   C226      1.0  0.42247  0.35835  0.66246  1.0000
  C   C227      1.0  0.23295  0.48702  0.93681  1.0000
  C   C228      1.0  0.44231  0.25461  0.83223  1.0000
  C   C229      1.0  0.19131  0.02693  0.81597  1.0000
  C   C230      1.0  0.99905  0.25472  0.98187  1.0000
  C   C231      1.0  0.24607  0.48608  0.83210  1.0000
  H   H188      1.0  0.47393  0.20814  0.94340  1.0000
  C   C232      1.0  0.38741  0.12941  0.98018  1.0000
  C   C233      1.0  0.15666  0.40309  0.66600  1.0000
  H   H189      1.0  0.44416  0.30067  0.84887  1.0000
  C   C234      1.0  0.15986  0.42733  0.76279  1.0000
  C   C235      1.0  0.25860  0.19888  0.98329  1.0000
  C   C236      1.0  0.26403  0.00943  0.98081  1.0000
  C   C237      1.0  0.08560  0.15399  0.95681  1.0000
  P   P8        1.0  0.99294  0.15070  0.91221  1.0000
  C   C238      1.0  0.98902  0.23536  0.89472  1.0000
  C   C239      1.0  0.18251  0.43815  0.67003  1.0000
  H   H190      1.0  0.20086  0.24114  0.66332  1.0000
  H   H191      1.0  0.28130  0.40291  0.97985  1.0000
  C   C240      1.0  0.15719  0.48101  0.79514  1.0000
  C   C241      1.0  0.48405  0.23260  0.95688  1.0000
  H   H192      1.0  0.15319  0.38051  0.97241  1.0000
  H   H193      1.0  0.17839  0.45758  0.66139  1.0000
  H   H194      1.0  0.31040  0.31467  0.66087  1.0000
  C   C242      1.0  0.40313  0.37301  0.65858  1.0000
  H   H195      1.0  0.15129  0.79921  0.05049  1.0000
  C   C243      1.0  0.01167  0.86600  0.04085  1.0000
  H   H196      1.0  0.11980  0.92272  0.09562  1.0000
  H   H197      1.0  0.03762  0.77133  0.03933  1.0000
  H   H198      1.0  0.33773  0.76523  0.11713  1.0000
  C   C244      1.0  0.16920  0.84636  0.02456  1.0000
  C   C245      1.0  0.33374  0.76953  0.06374  1.0000
  C   C246      1.0  0.40363  0.82346  0.06599  1.0000
  C   C247      1.0  0.03727  0.90014  0.04970  1.0000
  H   H199      1.0  0.28214  0.95367  0.01299  1.0000
  C   C248      1.0  0.28081  0.50140  0.01675  1.0000
  C   C249      1.0  0.26081  0.72248  0.01084  1.0000
  C   C250      1.0  0.29246  0.73086  0.99533  1.0000
  C   C251      1.0  0.07236  0.91215  0.04470  1.0000
  H   H200      1.0  0.25778  0.74254  0.02205  1.0000
  C   C252      1.0  0.33011  0.83688  0.00249  1.0000
  H   H201      1.0  0.20823  0.68191  0.02333  1.0000
  C   C253      1.0  0.15605  0.94005  0.05298  1.0000
  H   H202      1.0  0.35275  0.84678  0.01771  1.0000
  C   C254      1.0  0.19025  0.96449  0.04237  1.0000
  C   C255      1.0  0.23269  0.68809  0.01181  1.0000
  H   H203      1.0  0.39975  0.81293  0.11907  1.0000
  C   C256      1.0  0.02111  0.84407  0.02630  1.0000
  H   H204      1.0  0.43071  0.84433  0.06686  1.0000
  C   C257      1.0  0.35125  0.77890  0.09429  1.0000
  C   C258      1.0  0.05611  0.85612  0.02097  1.0000
  C   C259      1.0  0.35119  0.78687  0.03396  1.0000
  C   C260      1.0  0.08203  0.88986  0.03125  1.0000
  H   H205      1.0  0.04861  0.67130  0.04458  1.0000
  H   H206      1.0  0.06397  0.70756  0.09668  1.0000
  C   C261      1.0  0.16810  0.96958  0.10794  1.0000
  H   H207      1.0  0.00127  0.81761  0.01923  1.0000
  C   C262      1.0  0.16287  0.87190  0.01779  1.0000
  H   H208      1.0  0.09181  0.93881  0.05115  1.0000
  C   C263      1.0  0.13380  0.87050  0.03225  1.0000
  H   H209      1.0  0.40008  0.82826  0.01288  1.0000
  C   C264      1.0  0.14650  0.81918  0.04569  1.0000
  H   H210      1.0  0.19185  0.84778  0.01338  1.0000
  H   H211      1.0  0.33121  0.54194  0.99877  1.0000
  C   C265      1.0  0.27073  0.96291  0.99671  1.0000
  C   C266      1.0  0.01530  0.70392  0.10103  1.0000
  H   H212      1.0  0.15978  0.97136  0.13353  1.0000
  C   C267      1.0  0.11794  0.81805  0.06090  1.0000
  C   C268      1.0  0.99311  0.74685  0.00742  1.0000
  H   H213      1.0  0.10047  0.79718  0.07756  1.0000
  H   H214      1.0  0.33056  0.88387  0.00855  1.0000
  C   C269      1.0  0.02889  0.76441  0.01358  1.0000
  C   C270      1.0  0.03884  0.69694  0.08573  1.0000
  H   H215      1.0  0.26940  0.51644  0.01405  1.0000
  H   H216      1.0  0.02987  0.91728  0.06042  1.0000
  P   P9        1.0  0.12716  0.90475  0.02486  1.0000
  H   H217      1.0  0.30672  0.74864  0.06353  1.0000
  C   C271      1.0  0.33040  0.49633  0.01080  1.0000
  H   H218      1.0  0.06288  0.83897  0.00899  1.0000
  H   H219      1.0  0.09021  0.84311  0.06749  1.0000
  C   C272      1.0  0.23606  0.66173  0.99776  1.0000
  C   C273      1.0  0.14544  0.94222  0.08630  1.0000
  C   C274      1.0  0.11195  0.84397  0.05474  1.0000
  C   C275      1.0  0.31573  0.51582  0.00810  1.0000
  C   C276      1.0  0.38618  0.80579  0.09541  1.0000
  H   H220      1.0  0.18469  0.92256  0.31251  1.0000
  C   C277      1.0  0.38620  0.81417  0.03541  1.0000
  H   H221      1.0  0.02208  0.72007  0.12374  1.0000
  P   P10       1.0  0.32878  0.77546  0.99442  1.0000
  H   H222      1.0  0.19970  0.96242  0.01745  1.0000
  C   C278      1.0  0.03006  0.67645  0.05614  1.0000
  H   H223      1.0  0.99383  0.60439  0.06247  1.0000
  H   H224      1.0  0.21428  0.63509  0.99843  1.0000
  H   H225      1.0  0.18081  0.89287  0.00146  1.0000
  C   C279      1.0  0.99764  0.66290  0.04152  1.0000
  H   H226      1.0  0.35746  0.50755  0.00394  1.0000
  P   P11       1.0  0.98683  0.63665  0.00316  1.0000
  C   C280      1.0  0.31766  0.85805  0.99732  1.0000
  H   H227      1.0  0.15394  0.97076  0.99168  1.0000
  H   H228      1.0  0.08083  0.78681  0.99201  1.0000
  Fe  Fe17      1.0  0.40192  0.68799  0.57230  1.0000
  S   S33       1.0  0.34992  0.65099  0.54735  1.0000
  S   S34       1.0  0.45537  0.71642  0.54491  1.0000
  Fe  Fe18      1.0  0.36752  0.68576  0.63900  1.0000
  S   S35       1.0  0.31424  0.64892  0.62022  1.0000
  C   C281      1.0  0.12280  0.72203  0.63469  1.0000
  Fe  Fe19      1.0  0.33540  0.61934  0.59462  1.0000
  S   S36       1.0  0.29806  0.56101  0.60568  1.0000
  Fe  Fe20      1.0  0.33130  0.68248  0.57488  1.0000
  S   S37       1.0  0.28987  0.69168  0.55691  1.0000
  S   S38       1.0  0.38832  0.65451  0.61765  1.0000
  S   S39       1.0  0.38384  0.72127  0.59554  1.0000
  Fe  Fe21      1.0  0.21923  0.82439  0.55912  1.0000
  S   S40       1.0  0.22452  0.86697  0.59422  1.0000
  S   S41       1.0  0.26363  0.81541  0.56380  1.0000
  Fe  Fe22      1.0  0.15056  0.81030  0.53106  1.0000
  S   S42       1.0  0.15172  0.85112  0.56515  1.0000
  S   S43       1.0  0.10910  0.77681  0.49130  1.0000
  Fe  Fe23      1.0  0.20860  0.88495  0.55035  1.0000
  S   S44       1.0  0.23374  0.94376  0.54387  1.0000
  Fe  Fe24      1.0  0.16800  0.83041  0.60610  1.0000
  H   H229      1.0  0.33723  0.54309  0.64808  1.0000
  S   S45       1.0  0.20708  0.84491  0.51432  1.0000
  S   S46       1.0  0.16298  0.78708  0.57290  1.0000
  C   C282      1.0  0.25006  0.96477  0.47613  1.0000
  H   H230      1.0  0.24207  0.49256  0.62303  1.0000
  C   C283      1.0  0.04379  0.80169  0.40994  1.0000
  H   H231      1.0  0.23853  0.93780  0.46918  1.0000
  C   C284      1.0  0.00825  0.66644  0.55850  1.0000
  C   C285      1.0  0.13630  0.89710  0.38583  1.0000
  C   C286      1.0  0.04633  0.77056  0.50917  1.0000
  C   C287      1.0  0.06395  0.76011  0.48747  1.0000
  C   C288      1.0  0.04534  0.73596  0.46122  1.0000
  H   H232      1.0  0.47535  0.68032  0.47224  1.0000
  H   H233      1.0  0.06016  0.78912  0.52939  1.0000
  H   H234      1.0  0.05862  0.72767  0.44422  1.0000
  H   H235      1.0  0.37281  0.83125  0.62843  1.0000
  C   C289      1.0  0.28584  0.51926  0.58861  1.0000
  C   C290      1.0  0.25131  0.97446  0.51037  1.0000
  C   C291      1.0  0.30439  0.51475  0.56222  1.0000
  C   C292      1.0  0.02293  0.80959  0.59101  1.0000
  H   H236      1.0  0.32676  0.53719  0.55092  1.0000
  C   C293      1.0  0.28267  0.72618  0.56119  1.0000
  C   C294      1.0  0.24970  0.71939  0.55410  1.0000
  C   C295      1.0  0.24303  0.74598  0.55560  1.0000
  C   C296      1.0  0.26946  0.78003  0.56383  1.0000
  C   C297      1.0  0.30225  0.78672  0.57157  1.0000
  C   C298      1.0  0.30883  0.76008  0.57034  1.0000
  H   H237      1.0  0.22925  0.69338  0.54690  1.0000
  H   H238      1.0  0.21773  0.74028  0.54948  1.0000
  H   H239      1.0  0.32295  0.81288  0.57790  1.0000
  H   H240      1.0  0.33437  0.76593  0.57563  1.0000
  H   H241      1.0  0.18536  0.81698  0.43921  1.0000
  H   H242      1.0  0.16922  0.91615  0.45073  1.0000
  C   C299      1.0  0.06209  0.78489  0.61350  1.0000
  C   C300      1.0  0.15693  0.95667  0.37369  1.0000
  C   C301      1.0  0.05641  0.83280  0.60257  1.0000
  H   H243      1.0  0.06962  0.85234  0.53093  1.0000
  P   P12       1.0  0.00993  0.71528  0.60407  1.0000
  H   H244      1.0  0.12530  0.92988  0.41713  1.0000
  H   H245      1.0  0.10536  0.72441  0.53223  1.0000
  H   H246      1.0  0.00707  0.62812  0.52433  1.0000
  C   C302      1.0  0.09104  0.86671  0.51324  1.0000
  C   C303      1.0  0.12238  0.89541  0.52442  1.0000
  C   C304      1.0  0.22949  0.67434  0.65589  1.0000
  H   H247      1.0  0.12544  0.90345  0.55085  1.0000
  H   H248      1.0  0.39330  0.79419  0.64526  1.0000
  H   H249      1.0  0.06927  0.66541  0.50759  1.0000
  C   C305      1.0  0.01086  0.75727  0.50447  1.0000
  C   C306      1.0  0.99216  0.73302  0.47838  1.0000
  H   H250      1.0  0.27905  0.85684  0.62629  1.0000
  H   H251      1.0  0.05312  0.78937  0.42480  1.0000
  H   H252      1.0  0.23970  0.79451  0.63518  1.0000
  C   C307      1.0  0.02846  0.70023  0.57221  1.0000
  C   C308      1.0  0.16620  0.81455  0.42229  1.0000
  H   H253      1.0  0.16268  0.77223  0.39339  1.0000
  C   C309      1.0  0.15326  0.78920  0.39656  1.0000
  H   H254      1.0  0.21290  0.64664  0.65166  1.0000
  C   C310      1.0  0.07586  0.82041  0.61398  1.0000
  H   H255      1.0  0.07754  0.77585  0.62272  1.0000
  H   H256      1.0  0.07017  0.87814  0.37345  1.0000
  C   C311      1.0  0.05353  0.85165  0.38123  1.0000
  H   H257      1.0  0.16359  0.85490  0.44772  1.0000
  H   H258      1.0  0.15885  0.98059  0.38075  1.0000
  H   H259      1.0  0.02188  0.66280  0.62733  1.0000
  H   H260      1.0  0.06313  0.83335  0.47143  1.0000
  C   C312      1.0  0.14692  0.90244  0.46771  1.0000
  C   C313      1.0  0.11535  0.87386  0.45614  1.0000
  H   H261      1.0  0.99769  0.76593  0.52107  1.0000
  C   C314      1.0  0.02286  0.65397  0.53519  1.0000
  C   C315      1.0  0.05788  0.67483  0.52586  1.0000
  C   C316      1.0  0.17774  0.72705  0.63838  1.0000
  P   P13       1.0  0.11133  0.85982  0.41226  1.0000
  H   H262      1.0  0.46798  0.65662  0.52896  1.0000
  C   C317      1.0  0.07827  0.70811  0.53985  1.0000
  C   C318      1.0  0.00974  0.72246  0.45670  1.0000
  C   C319      1.0  0.02416  0.67932  0.64868  1.0000
  C   C320      1.0  0.36912  0.82288  0.65434  1.0000
  C   C321      1.0  0.27583  0.84679  0.65141  1.0000
  H   H263      1.0  0.06733  0.86037  0.60275  1.0000
  H   H264      1.0  0.10172  0.83835  0.62329  1.0000
  H   H265      1.0  0.07996  0.74716  0.57235  1.0000
  C   C322      1.0  0.06642  0.83606  0.40007  1.0000
  H   H266      1.0  0.15201  0.87189  0.34879  1.0000
  H   H267      1.0  0.14714  0.71009  0.59359  1.0000
  C   C323      1.0  0.15309  0.89532  0.35608  1.0000
  C   C324      1.0  0.11531  0.80700  0.37999  1.0000
  C   C325      1.0  0.00897  0.78308  0.40088  1.0000
  C   C326      1.0  0.15026  0.91326  0.50165  1.0000
  H   H268      1.0  0.48112  0.69944  0.60303  1.0000
  C   C327      1.0  0.12790  0.78550  0.37533  1.0000
  C   C328      1.0  0.14876  0.71838  0.61987  1.0000
  C   C329      1.0  0.15362  0.83603  0.42710  1.0000
  C   C330      1.0  0.02847  0.76131  0.60196  1.0000
  H   H269      1.0  0.27367  0.67813  0.63049  1.0000
  C   C331      1.0  0.08749  0.85594  0.47926  1.0000
  C   C332      1.0  0.12787  0.83227  0.40612  1.0000
  H   H270      1.0  0.31174  0.74133  0.63898  1.0000
  C   C333      1.0  0.99649  0.79860  0.38176  1.0000
  H   H271      1.0  0.17477  0.93513  0.51046  1.0000
  C   C334      1.0  0.06364  0.72097  0.56264  1.0000
  C   C335      1.0  0.17161  0.92402  0.33533  1.0000
  H   H272      1.0  0.00777  0.81912  0.58210  1.0000
  C   C336      1.0  0.26385  0.69202  0.64411  1.0000
  C   C337      1.0  0.13823  0.92797  0.39440  1.0000
  H   H273      1.0  0.19828  0.72563  0.62564  1.0000
  C   C338      1.0  0.28527  0.72780  0.64875  1.0000
  C   C339      1.0  0.00886  0.77401  0.59101  1.0000
  C   C340      1.0  0.01873  0.83288  0.37199  1.0000
  H   H274      1.0  0.10101  0.71655  0.61996  1.0000
  H   H275      1.0  0.26303  0.98213  0.42453  1.0000
  H   H276      1.0  0.99589  0.70365  0.43666  1.0000
  H   H277      1.0  0.99151  0.75663  0.40883  1.0000
  H   H278      1.0  0.09568  0.80377  0.36329  1.0000
  C   C341      1.0  0.01936  0.70657  0.64495  1.0000
  H   H279      1.0  0.11778  0.76574  0.35548  1.0000
  H   H280      1.0  0.00887  0.84482  0.35726  1.0000
  C   C342      1.0  0.17344  0.95462  0.34408  1.0000
  C   C343      1.0  0.25340  0.81134  0.65659  1.0000
  H   H281      1.0  0.98644  0.65865  0.36302  1.0000
  H   H282      1.0  0.08914  0.98222  0.33121  1.0000
  H   H283      1.0  0.47506  0.65202  0.65276  1.0000
  H   H284      1.0  0.18781  0.97679  0.32797  1.0000
  Fe  Fe25      1.0  0.33363  0.67724  0.89199  1.0000
  S   S47       1.0  0.31074  0.62386  0.86900  1.0000
  S   S48       1.0  0.31875  0.71570  0.87919  1.0000
  Fe  Fe26      1.0  0.39325  0.67570  0.92437  1.0000
  S   S49       1.0  0.37362  0.62141  0.90523  1.0000
  S   S50       1.0  0.44286  0.71416  0.95273  1.0000
  Fe  Fe27      1.0  0.36537  0.63960  0.85710  1.0000
  S   S51       1.0  0.38100  0.62589  0.80765  1.0000
  Fe  Fe28      1.0  0.31997  0.60884  0.91897  1.0000
  S   S52       1.0  0.27410  0.55840  0.94052  1.0000
  S   S53       1.0  0.38807  0.69424  0.87511  1.0000
  S   S54       1.0  0.33997  0.66187  0.94309  1.0000
  Fe  Fe29      1.0  0.18664  0.77928  0.90917  1.0000
  S   S55       1.0  0.14742  0.77200  0.87193  1.0000
  S   S56       1.0  0.19278  0.73405  0.91785  1.0000
  Fe  Fe30      1.0  0.20543  0.85307  0.92948  1.0000
  S   S57       1.0  0.16823  0.85066  0.89290  1.0000
  S   S58       1.0  0.24126  0.89871  0.96494  1.0000
  Fe  Fe31      1.0  0.13048  0.79676  0.91197  1.0000
  S   S59       1.0  0.07224  0.77561  0.91794  1.0000
  Fe  Fe32      1.0  0.18773  0.82597  0.85588  1.0000
  S   S60       1.0  0.21031  0.84289  0.80237  1.0000
  S   S61       1.0  0.16681  0.80014  0.95050  1.0000
  S   S62       1.0  0.22784  0.83209  0.89144  1.0000
  C   C344      1.0  0.24888  0.94099  0.97068  1.0000
  C   C345      1.0  0.22626  0.92619  0.85321  1.0000
  H   H285      1.0  0.20318  0.67913  0.92862  1.0000
  H   H286      1.0  0.42266  0.78964  0.88794  1.0000
  C   C346      1.0  0.28841  0.84594  0.97778  1.0000
  C   C347      1.0  0.04266  0.76486  0.95321  1.0000
  C   C348      1.0  0.00692  0.74741  0.94711  1.0000
  H   H287      1.0  0.36289  0.86547  0.85474  1.0000
  C   C349      1.0  0.15205  0.90457  0.81711  1.0000
  C   C350      1.0  0.16075  0.82364  0.69812  1.0000
  C   C351      1.0  0.13956  0.80900  0.72720  1.0000
  C   C352      1.0  0.15412  0.81454  0.75937  1.0000
  C   C353      1.0  0.19009  0.83542  0.76285  1.0000
  C   C354      1.0  0.21117  0.85033  0.73384  1.0000
  C   C355      1.0  0.19671  0.84417  0.70161  1.0000
  H   H288      1.0  0.11171  0.79318  0.72480  1.0000
  H   H289      1.0  0.13755  0.80272  0.78139  1.0000
  H   H290      1.0  0.23894  0.86685  0.73633  1.0000
  C   C356      1.0  0.23420  0.95338  0.95006  1.0000
  C   C357      1.0  0.37915  0.64919  0.77517  1.0000
  C   C358      1.0  0.38856  0.64516  0.74207  1.0000
  C   C359      1.0  0.38671  0.66353  0.71585  1.0000
  C   C360      1.0  0.37602  0.68632  0.72295  1.0000
  C   C361      1.0  0.36712  0.69067  0.75615  1.0000
  C   C362      1.0  0.36824  0.67181  0.78219  1.0000
  H   H291      1.0  0.39728  0.62787  0.73673  1.0000
  H   H292      1.0  0.15823  0.88537  0.75093  1.0000
  H   H293      1.0  0.35842  0.70790  0.76152  1.0000
  H   H294      1.0  0.36035  0.67459  0.80758  1.0000
  C   C363      1.0  0.23761  0.72867  0.67636  1.0000
  H   H295      1.0  0.99813  0.74085  0.92136  1.0000
  C   C364      1.0  0.28156  0.58703  0.69927  1.0000
  H   H296      1.0  0.32066  0.53412  0.92729  1.0000
  H   H297      1.0  0.38218  0.80829  0.87966  1.0000
  C   C365      1.0  0.11355  0.84415  0.83184  1.0000
  H   H298      1.0  0.25472  0.94185  0.77095  1.0000
  C   C366      1.0  0.29004  0.85607  0.71062  1.0000
  H   H299      1.0  0.12822  0.88229  0.90173  1.0000
  C   C367      1.0  0.19700  0.94018  0.75790  1.0000
  C   C368      1.0  0.22741  0.72881  0.90540  1.0000
  C   C369      1.0  0.25688  0.75407  0.88761  1.0000
  C   C370      1.0  0.28449  0.74960  0.87996  1.0000
  C   C371      1.0  0.28300  0.71978  0.88966  1.0000
  C   C372      1.0  0.25323  0.69423  0.90679  1.0000
  C   C373      1.0  0.22574  0.69881  0.91476  1.0000
  H   H300      1.0  0.25869  0.77732  0.88035  1.0000
  H   H301      1.0  0.30732  0.76961  0.86668  1.0000
  H   H302      1.0  0.25151  0.67104  0.91409  1.0000
  C   C374      1.0  0.27398  0.68467  0.79281  1.0000
  C   C375      1.0  0.26634  0.66497  0.76283  1.0000
  C   C376      1.0  0.28278  0.68103  0.73249  1.0000
  C   C377      1.0  0.30715  0.71670  0.73213  1.0000
  C   C378      1.0  0.31522  0.73672  0.76218  1.0000
  C   C379      1.0  0.29802  0.72038  0.79238  1.0000
  P   P14       1.0  0.34907  0.78236  0.76314  1.0000
  C   C380      1.0  0.38856  0.78884  0.77904  1.0000
  C   C381      1.0  0.35758  0.79931  0.72091  1.0000
  C   C382      1.0  0.34671  0.82088  0.71142  1.0000
  C   C383      1.0  0.12872  0.89225  0.95539  1.0000
  C   C384      1.0  0.30437  0.50460  0.84669  1.0000
  C   C385      1.0  0.27218  0.74616  0.66461  1.0000
  C   C386      1.0  0.37529  0.79070  0.69699  1.0000
  C   C387      1.0  0.38737  0.76714  0.80364  1.0000
  C   C388      1.0  0.41804  0.77264  0.81599  1.0000
  C   C389      1.0  0.45159  0.82237  0.78058  1.0000
  C   C390      1.0  0.42097  0.81678  0.76791  1.0000
  C   C391      1.0  0.33462  0.80428  0.79119  1.0000
  C   C392      1.0  0.30035  0.79568  0.78997  1.0000
  C   C393      1.0  0.28889  0.81243  0.81165  1.0000
  H   H303      1.0  0.47305  0.77970  0.69147  1.0000
  C   C394      1.0  0.34550  0.84609  0.83653  1.0000
  C   C395      1.0  0.35718  0.82969  0.81462  1.0000
  H   H304      1.0  0.26206  0.67236  0.81665  1.0000
  H   H305      1.0  0.24821  0.63722  0.76316  1.0000
  H   H306      1.0  0.27756  0.66579  0.70926  1.0000
  H   H307      1.0  0.32015  0.72804  0.70843  1.0000
  H   H308      1.0  0.30407  0.73513  0.81588  1.0000
  H   H309      1.0  0.33355  0.82847  0.72934  1.0000
  H   H310      1.0  0.31091  0.89671  0.67428  1.0000
  H   H311      1.0  0.12844  0.93444  0.82113  1.0000
  H   H312      1.0  0.38441  0.77459  0.70388  1.0000
  H   H313      1.0  0.36295  0.74569  0.81324  1.0000
  H   H314      1.0  0.42268  0.83431  0.74943  1.0000
  H   H315      1.0  0.28257  0.77609  0.77219  1.0000
  H   H316      1.0  0.26251  0.80597  0.81055  1.0000
  H   H317      1.0  0.24892  0.80310  0.94822  1.0000
  H   H318      1.0  0.38371  0.83681  0.81619  1.0000
  H   H319      1.0  0.21939  0.50651  0.72410  1.0000
  C   C396      1.0  0.13452  0.90169  0.92146  1.0000
  C   C397      1.0  0.46457  0.74031  0.76519  1.0000
  C   C398      1.0  0.14818  0.93596  0.91303  1.0000
  C   C399      1.0  0.08686  0.84943  0.83951  1.0000
  C   C400      1.0  0.09241  0.88204  0.83544  1.0000
  H   H320      1.0  0.06199  0.82824  0.84883  1.0000
  H   H321      1.0  0.09397  0.73271  0.95092  1.0000
  C   C401      1.0  0.08787  0.68380  0.93848  1.0000
  H   H322      1.0  0.17307  0.98471  0.78000  1.0000
  H   H323      1.0  0.07456  0.63161  0.92997  1.0000
  C   C402      1.0  0.17632  0.90960  0.73880  1.0000
  H   H324      1.0  0.16348  0.88616  0.68881  1.0000
  C   C403      1.0  0.38174  0.76981  0.96498  1.0000
  H   H325      1.0  0.31001  0.63132  0.73225  1.0000
  H   H326      1.0  0.44628  0.72797  0.78611  1.0000
  H   H327      1.0  0.15308  0.94334  0.88682  1.0000
  H   H328      1.0  0.21465  0.69444  0.80065  1.0000
  S   S63       1.0  0.37307  0.70938  0.69094  1.0000
  C   C404      1.0  0.25592  0.55185  0.69713  1.0000
  H   H329      1.0  0.19755  0.78057  0.75075  1.0000
  H   H330      1.0  0.23067  0.98506  0.86368  1.0000
  H   H331      1.0  0.02001  0.60551  0.96370  1.0000
  C   C405      1.0  0.14891  0.95130  0.97239  1.0000
  C   C406      1.0  0.29871  0.50412  0.73612  1.0000
  C   C407      1.0  0.20341  0.94031  0.68696  1.0000
  C   C408      1.0  0.35882  0.78051  0.96064  1.0000
  P   P15       1.0  0.22942  0.52619  0.79692  1.0000
  C   C409      1.0  0.25873  0.51780  0.81664  1.0000
  C   C410      1.0  0.24923  0.55009  0.75855  1.0000
  H   H332      1.0  0.34375  0.84886  0.67077  1.0000
  H   H333      1.0  0.16639  0.86707  0.81504  1.0000
  C   C411      1.0  0.29052  0.60398  0.73079  1.0000
  C   C412      1.0  0.40479  0.77326  0.93886  1.0000
  C   C413      1.0  0.27471  0.58567  0.76036  1.0000
  C   C414      1.0  0.29428  0.54344  0.81798  1.0000
  H   H334      1.0  0.24915  0.53891  0.67247  1.0000
  H   H335      1.0  0.21150  0.49028  0.94099  1.0000
  C   C415      1.0  0.14597  0.87157  0.82066  1.0000
  H   H336      1.0  0.03384  0.73798  0.72637  1.0000
  C   C416      1.0  0.22122  0.55217  0.82629  1.0000
  C   C417      1.0  0.21102  0.57346  0.81433  1.0000
  C   C418      1.0  0.20574  0.59448  0.83688  1.0000
  C   C419      1.0  0.21037  0.59417  0.87151  1.0000
  C   C420      1.0  0.21988  0.57256  0.88365  1.0000
  C   C421      1.0  0.22521  0.55155  0.86120  1.0000
  H   H337      1.0  0.42180  0.76415  0.94214  1.0000
  C   C422      1.0  0.32707  0.53217  0.67282  1.0000
  C   C423      1.0  0.04723  0.69042  0.97335  1.0000
  C   C424      1.0  0.03244  0.67336  0.68016  1.0000
  C   C425      1.0  0.38263  0.79836  0.90378  1.0000
  C   C426      1.0  0.20007  0.76069  0.76089  1.0000
  H   H338      1.0  0.30392  0.87343  0.73165  1.0000
  H   H339      1.0  0.11189  0.69522  0.92367  1.0000
  C   C427      1.0  0.15450  0.74246  0.68683  1.0000
  H   H340      1.0  0.28261  0.59938  0.78454  1.0000
  H   H341      1.0  0.30470  0.56877  0.80794  1.0000
  H   H342      1.0  0.43309  0.75437  0.74082  1.0000
  C   C428      1.0  0.32068  0.54001  0.73276  1.0000
  H   H343      1.0  0.39397  0.66039  0.69032  1.0000
  C   C429      1.0  0.33460  0.55398  0.70110  1.0000
  H   H344      1.0  0.20732  0.57393  0.78757  1.0000
  H   H345      1.0  0.19825  0.61117  0.82756  1.0000
  H   H346      1.0  0.20672  0.61076  0.88895  1.0000
  H   H347      1.0  0.22383  0.57246  0.91046  1.0000
  H   H348      1.0  0.23307  0.53543  0.87130  1.0000
  C   C430      1.0  0.26769  0.82058  0.71587  1.0000
  C   C431      1.0  0.03585  0.63327  0.96125  1.0000
  C   C432      1.0  0.27796  0.92503  0.84414  1.0000
  C   C433      1.0  0.31139  0.83750  0.83500  1.0000
  H   H349      1.0  0.01867  0.74843  0.67124  1.0000
  H   H350      1.0  0.21688  0.93679  0.93038  1.0000
  C   C434      1.0  0.05351  0.77329  0.98675  1.0000
  C   C435      1.0  0.21015  0.71261  0.78939  1.0000
  H   H351      1.0  0.34150  0.80245  0.92545  1.0000
  H   H352      1.0  0.10663  0.73887  0.67895  1.0000
  C   C436      1.0  0.45013  0.80028  0.80460  1.0000
  H   H353      1.0  0.29459  0.60104  0.67644  1.0000
  H   H354      1.0  0.18619  0.76882  0.81135  1.0000
  H   H355      1.0  0.15643  0.75282  0.71214  1.0000
  C   C437      1.0  0.21057  0.74254  0.73990  1.0000
  P   P16       1.0  0.19449  0.94001  0.80364  1.0000
  H   H356      1.0  0.35073  0.58177  0.69830  1.0000
  C   C438      1.0  0.38063  0.80203  0.66378  1.0000
  H   H357      1.0  0.32672  0.55728  0.75449  1.0000
  C   C439      1.0  0.47966  0.76948  0.71184  1.0000
  H   H358      1.0  0.22513  0.70488  0.73969  1.0000
  C   C440      1.0  0.25173  0.92210  0.86572  1.0000
  H   H359      1.0  0.19486  0.72596  0.83683  1.0000
  C   C441      1.0  0.15520  0.96072  0.93847  1.0000
  C   C442      1.0  0.02240  0.72735  0.67335  1.0000
  C   C443      1.0  0.19908  0.73039  0.80982  1.0000
  H   H360      1.0  0.07163  0.88607  0.84131  1.0000
  H   H361      1.0  0.41680  0.75517  0.83421  1.0000
  H   H362      1.0  0.03657  0.65259  0.68277  1.0000
  C   C444      1.0  0.03589  0.69446  0.70815  1.0000
  H   H363      1.0  0.04272  0.69008  0.73243  1.0000
  C   C445      1.0  0.21586  0.71855  0.75460  1.0000
  H   H364      1.0  0.29728  0.92122  0.85379  1.0000
  C   C446      1.0  0.06680  0.64796  0.94207  1.0000
  C   C447      1.0  0.12480  0.90948  0.82407  1.0000
  C   C448      1.0  0.35942  0.79480  0.92981  1.0000
  C   C449      1.0  0.40526  0.78758  0.90831  1.0000
  H   H365      1.0  0.25096  0.91630  0.89212  1.0000
  H   H366      1.0  0.30227  0.85014  0.85197  1.0000
  C   C450      1.0  0.27890  0.93231  0.81006  1.0000
  C   C451      1.0  0.19402  0.75439  0.79551  1.0000
  C   C452      1.0  0.23951  0.53351  0.72658  1.0000
  H   H367      1.0  0.29885  0.93391  0.79318  1.0000
  C   C453      1.0  0.22432  0.97076  0.70577  1.0000
  C   C454      1.0  0.26693  0.51648  0.93425  1.0000
  C   C455      1.0  0.22710  0.93377  0.81908  1.0000
  H   H368      1.0  0.21336  0.85581  0.67956  1.0000
  C   C456      1.0  0.31701  0.53670  0.83268  1.0000
  C   C457      1.0  0.25365  0.93676  0.79753  1.0000
  C   C458      1.0  0.29438  0.51180  0.92903  1.0000
  C   C459      1.0  0.28417  0.79159  0.96828  1.0000
  C   C460      1.0  0.03085  0.72142  0.70473  1.0000
  H   H369      1.0  0.10931  0.81889  0.83512  1.0000
  P   P17       1.0  0.21954  0.75203  0.69518  1.0000
  C   C461      1.0  0.45700  0.75499  0.73961  1.0000
  H   H370      1.0  0.47385  0.80420  0.81397  1.0000
  H   H371      1.0  0.32193  0.49957  0.85854  1.0000
  H   H372      1.0  0.20587  0.92348  0.87016  1.0000
  C   C462      1.0  0.27170  0.81270  0.96326  1.0000
  C   C463      1.0  0.12581  0.73428  0.66805  1.0000
  C   C464      1.0  0.24888  0.79794  0.68894  1.0000
  C   C465      1.0  0.17937  0.90982  0.70347  1.0000
  H   H373      1.0  0.27096  0.76596  0.95683  1.0000
  H   H374      1.0  0.26505  0.81116  0.74101  1.0000
  C   C466      1.0  0.35262  0.83270  0.67826  1.0000
  H   H375      1.0  0.34443  0.55663  0.83364  1.0000
  C   C467      1.0  0.22120  0.97074  0.74111  1.0000
  H   H376      1.0  0.11795  0.86548  0.96141  1.0000
  C   C468      1.0  0.07795  0.70497  0.95400  1.0000
  H   H377      1.0  0.27864  0.86227  0.97392  1.0000
  H   H378      1.0  0.31917  0.70973  0.96841  1.0000
  C   C469      1.0  0.18059  0.73850  0.67237  1.0000
  C   C470      1.0  0.29392  0.86920  0.67842  1.0000
  C   C471      1.0  0.21637  0.69256  0.67205  1.0000
  H   H379      1.0  0.18948  0.67864  0.68052  1.0000
  H   H380      1.0  0.47648  0.84363  0.77148  1.0000
  C   C472      1.0  0.26748  0.66977  0.98257  1.0000
  H   H381      1.0  0.27002  0.64936  0.97138  1.0000
  C   C473      1.0  0.13638  0.91716  0.98115  1.0000
  C   C474      1.0  0.24213  0.98748  0.95482  1.0000
  H   H382      1.0  0.20609  0.94016  0.65957  1.0000
  C   C475      1.0  0.31326  0.80334  0.98812  1.0000
  H   H383      1.0  0.15551  0.50137  0.80764  1.0000
  H   H384      1.0  0.28878  0.77394  0.66673  1.0000
  C   C476      1.0  0.30572  0.49635  0.67610  1.0000
  C   C477      1.0  0.20123  0.98051  0.81995  1.0000
  H   H385      1.0  0.47040  0.68019  0.90992  1.0000
  C   C478      1.0  0.29548  0.70419  0.98108  1.0000
  C   C479      1.0  0.02589  0.65450  0.97711  1.0000
  H   H386      1.0  0.38136  0.75811  0.98829  1.0000
  H   H387      1.0  0.98772  0.67373  0.94338  1.0000
  H   H388      1.0  0.16561  0.98729  0.93201  1.0000
  H   H389      1.0  0.28730  0.49402  0.76072  1.0000
  H   H390      1.0  0.47769  0.78732  0.88608  1.0000
  H   H391      1.0  0.03992  0.70716  0.98530  1.0000
  H   H392      1.0  0.48451  0.73984  0.86597  1.0000
  C   C480      1.0  0.48550  0.72350  0.94398  1.0000
  S   S64       1.0  0.14099  0.81699  0.65846  1.0000
  H   H393      1.0  0.63623  0.24717  0.30921  1.0000
  Fe  Fe33      1.0  0.82923  0.10715  0.05722  1.0000
  S   S65       1.0  0.83326  0.14583  0.02117  1.0000
  C   C481      1.0  0.66767  0.43863  0.13361  1.0000
  Fe  Fe34      1.0  0.85729  0.16115  0.11672  1.0000
  S   S66       1.0  0.86334  0.20304  0.08396  1.0000
  S   S67       1.0  0.87588  0.18107  0.17084  1.0000
  Fe  Fe35      1.0  0.81097  0.16273  0.06418  1.0000
  S   S68       1.0  0.76486  0.16924  0.06083  1.0000
  Fe  Fe36      1.0  0.88572  0.18373  0.04388  1.0000
  H   H394      1.0  0.83797  0.48212  0.26446  1.0000
  S   S69       1.0  0.80363  0.12138  0.09901  1.0000
  S   S70       1.0  0.88294  0.14457  0.07758  1.0000
  S   S71       1.0  0.75725  0.35331  0.29158  1.0000
  Fe  Fe37      1.0  0.68538  0.36195  0.07200  1.0000
  S   S72       1.0  0.63176  0.32689  0.09520  1.0000
  S   S73       1.0  0.69860  0.41704  0.06306  1.0000
  Fe  Fe38      1.0  0.70200  0.30514  0.07574  1.0000
  S   S74       1.0  0.64987  0.26696  0.09893  1.0000
  S   S75       1.0  0.74879  0.29941  0.07250  1.0000
  Fe  Fe39      1.0  0.62710  0.28438  0.06163  1.0000
  C   C482      1.0  0.83561  0.48366  0.29157  1.0000
  Fe  Fe40      1.0  0.65768  0.31182  0.13054  1.0000
  S   S76       1.0  0.64054  0.30436  0.18507  1.0000
  S   S77       1.0  0.71105  0.34940  0.11051  1.0000
  C   C483      1.0  0.72492  0.33753  0.26146  1.0000
  C   C484      1.0  0.73349  0.34028  0.22687  1.0000
  C   C485      1.0  0.70758  0.32933  0.20299  1.0000
  C   C486      1.0  0.67328  0.31607  0.21377  1.0000
  C   C487      1.0  0.66478  0.31280  0.24826  1.0000
  C   C488      1.0  0.69049  0.32334  0.27209  1.0000
  H   H395      1.0  0.76009  0.35103  0.21853  1.0000
  H   H396      1.0  0.71423  0.33128  0.17637  1.0000
  H   H397      1.0  0.63827  0.30248  0.25655  1.0000
  H   H398      1.0  0.68368  0.32095  0.29871  1.0000
  C   C489      1.0  0.53284  0.23067  0.04795  1.0000
  C   C490      1.0  0.52604  0.25361  0.06508  1.0000
  H   H399      1.0  0.54742  0.27870  0.07334  1.0000
  C   C491      1.0  0.76106  0.20582  0.06554  1.0000
  C   C492      1.0  0.78987  0.23974  0.06899  1.0000
  C   C493      1.0  0.78551  0.26784  0.07148  1.0000
  C   C494      1.0  0.75236  0.26260  0.07077  1.0000
  C   C495      1.0  0.72348  0.22864  0.06825  1.0000
  C   C496      1.0  0.72785  0.20054  0.06555  1.0000
  H   H400      1.0  0.81558  0.24436  0.06908  1.0000
  H   H401      1.0  0.69781  0.22404  0.06770  1.0000
  H   H402      1.0  0.70533  0.17450  0.06296  1.0000
  H   H403      1.0  0.91739  0.08040  0.07254  1.0000
  C   C497      1.0  0.87982  0.09485  0.14132  1.0000
  C   C498      1.0  0.95030  0.16163  0.25418  1.0000
  C   C499      1.0  0.52644  0.20561  0.19583  1.0000
  C   C500      1.0  0.89585  0.27206  0.19365  1.0000
  H   H404      1.0  0.90515  0.13845  0.17540  1.0000
  H   H405      1.0  0.50950  0.18034  0.02371  1.0000
  C   C501      1.0  0.73697  0.45964  0.06076  1.0000
  C   C502      1.0  0.94420  0.12332  0.10801  1.0000
  C   C503      1.0  0.95696  0.21563  0.11943  1.0000
  C   C504      1.0  0.85271  0.13312  0.27657  1.0000
  C   C505      1.0  0.87537  0.16875  0.27242  1.0000
  C   C506      1.0  0.88164  0.18295  0.24000  1.0000
  C   C507      1.0  0.86528  0.16183  0.21131  1.0000
  C   C508      1.0  0.84204  0.12632  0.21555  1.0000
  C   C509      1.0  0.83597  0.11208  0.24794  1.0000
  H   H406      1.0  0.88875  0.18522  0.29403  1.0000
  H   H407      1.0  0.89975  0.21044  0.23700  1.0000
  H   H408      1.0  0.82912  0.10974  0.19383  1.0000
  H   H409      1.0  0.81840  0.08448  0.25079  1.0000
  C   C510      1.0  0.78878  0.42171  0.12147  1.0000
  C   C511      1.0  0.81126  0.41802  0.14067  1.0000
  C   C512      1.0  0.81636  0.42905  0.17457  1.0000
  C   C513      1.0  0.79882  0.44359  0.18929  1.0000
  C   C514      1.0  0.77534  0.44640  0.17040  1.0000
  C   C515      1.0  0.77066  0.43558  0.13630  1.0000
  P   P18       1.0  0.75267  0.46537  0.18896  1.0000
  C   C516      1.0  0.70960  0.44168  0.17154  1.0000
  C   C517      1.0  0.49376  0.26315  0.16746  1.0000
  C   C518      1.0  0.74411  0.45003  0.30475  1.0000
  C   C519      1.0  0.64424  0.40406  0.14150  1.0000
  C   C520      1.0  0.65334  0.38813  0.16416  1.0000
  C   C521      1.0  0.68588  0.40668  0.17896  1.0000
  H   H410      1.0  0.78459  0.41292  0.09521  1.0000
  H   H411      1.0  0.82441  0.40631  0.12924  1.0000
  H   H412      1.0  0.83367  0.42604  0.18954  1.0000
  C   C522      1.0  0.91940  0.26609  0.32013  1.0000
  H   H413      1.0  0.75271  0.43749  0.12119  1.0000
  H   H414      1.0  0.70842  0.48420  0.06723  1.0000
  H   H415      1.0  0.61970  0.38928  0.12886  1.0000
  H   H416      1.0  0.63574  0.36093  0.16915  1.0000
  H   H417      1.0  0.69259  0.39297  0.19497  1.0000
  H   H418      1.0  0.57957  0.23728  0.17720  1.0000
  C   C523      1.0  0.78302  0.17908  0.15163  1.0000
  C   C524      1.0  0.78434  0.15970  0.17694  1.0000
  C   C525      1.0  0.77332  0.16169  0.20988  1.0000
  C   C526      1.0  0.76077  0.18291  0.21746  1.0000
  C   C527      1.0  0.75872  0.20201  0.19195  1.0000
  C   C528      1.0  0.77045  0.20025  0.15907  1.0000
  P   P19       1.0  0.74423  0.23103  0.20108  1.0000
  C   C529      1.0  0.70540  0.21878  0.17917  1.0000
  C   C530      1.0  0.73361  0.23146  0.24547  1.0000
  C   C531      1.0  0.70801  0.20045  0.26069  1.0000
  C   C532      1.0  0.69956  0.20010  0.29509  1.0000
  H   H419      1.0  0.56670  0.27930  0.19560  1.0000
  C   C533      1.0  0.74003  0.26203  0.29891  1.0000
  C   C534      1.0  0.74898  0.26247  0.26465  1.0000
  C   C535      1.0  0.68884  0.23642  0.18706  1.0000
  C   C536      1.0  0.65927  0.22814  0.16985  1.0000
  C   C537      1.0  0.64589  0.20206  0.14479  1.0000
  C   C538      1.0  0.66220  0.18438  0.13681  1.0000
  C   C539      1.0  0.69183  0.19262  0.15393  1.0000
  C   C540      1.0  0.77956  0.27300  0.18777  1.0000
  C   C541      1.0  0.81225  0.28770  0.20202  1.0000
  H   H420      1.0  0.80786  0.42826  0.29609  1.0000
  C   C542      1.0  0.77558  0.29004  0.16153  1.0000
  H   H421      1.0  0.79209  0.17800  0.12620  1.0000
  H   H422      1.0  0.79468  0.14377  0.17117  1.0000
  H   H423      1.0  0.77531  0.14733  0.22963  1.0000
  H   H424      1.0  0.75365  0.18478  0.24337  1.0000
  H   H425      1.0  0.77001  0.21535  0.13909  1.0000
  H   H426      1.0  0.69476  0.17650  0.24592  1.0000
  C   C543      1.0  0.84583  0.29369  0.31357  1.0000
  P   P20       1.0  0.85938  0.26379  0.30528  1.0000
  H   H427      1.0  0.49032  0.27706  0.24548  1.0000
  H   H428      1.0  0.76733  0.28711  0.25331  1.0000
  H   H429      1.0  0.69912  0.25707  0.20609  1.0000
  H   H430      1.0  0.64707  0.24237  0.17565  1.0000
  H   H431      1.0  0.62330  0.19604  0.13106  1.0000
  H   H432      1.0  0.65236  0.16479  0.11676  1.0000
  H   H433      1.0  0.70415  0.17882  0.14689  1.0000
  H   H434      1.0  0.81592  0.27449  0.22171  1.0000
  S   S78       1.0  0.67917  0.31995  0.03513  1.0000
  H   H435      1.0  0.75108  0.27888  0.14904  1.0000
  C   C544      1.0  0.54706  0.27459  0.27987  1.0000
  H   H436      1.0  0.85466  0.08434  0.15365  1.0000
  C   C545      1.0  0.73894  0.42747  0.24748  1.0000
  H   H437      1.0  0.90448  0.27347  0.16748  1.0000
  P   P21       1.0  0.53724  0.21876  0.23972  1.0000
  H   H438      1.0  0.58376  0.33907  0.20640  1.0000
  C   C546      1.0  0.49210  0.18124  0.18647  1.0000
  C   C547      1.0  0.74931  0.45977  0.23449  1.0000
  H   H439      1.0  0.91771  0.25495  0.29508  1.0000
  C   C548      1.0  0.52475  0.28265  0.14885  1.0000
  C   C549      1.0  0.53711  0.31672  0.14096  1.0000
  H   H440      1.0  0.97347  0.20101  0.04820  1.0000
  C   C550      1.0  0.51066  0.18519  0.12766  1.0000
  H   H441      1.0  0.80810  0.29390  0.07345  1.0000
  S   S79       1.0  0.57586  0.24182  0.03793  1.0000
  C   C551      1.0  0.77010  0.46567  0.05548  1.0000
  C   C552      1.0  0.58182  0.19522  0.23127  1.0000
  C   C553      1.0  0.73630  0.42271  0.28237  1.0000
  C   C554      1.0  0.80381  0.32152  0.15008  1.0000
  H   H442      1.0  0.53898  0.27112  0.14007  1.0000
  H   H443      1.0  0.56093  0.33151  0.12613  1.0000
  H   H444      1.0  0.52797  0.35778  0.14542  1.0000
  C   C555      1.0  0.94131  0.13991  0.13742  1.0000
  H   H445      1.0  0.73382  0.40603  0.23083  1.0000
  C   C556      1.0  0.90866  0.12561  0.15361  1.0000
  C   C557      1.0  0.84049  0.31917  0.19044  1.0000
  H   H446      1.0  0.78386  0.22998  0.30149  1.0000
  H   H447      1.0  0.55666  0.31791  0.31154  1.0000
  C   C558      1.0  0.70027  0.45729  0.14824  1.0000
  H   H448      1.0  0.80049  0.33399  0.12931  1.0000
  H   H449      1.0  0.56654  0.17992  0.20985  1.0000
  H   H450      1.0  0.66134  0.45048  0.11467  1.0000
  C   C559      1.0  0.55279  0.21911  0.17062  1.0000
  C   C560      1.0  0.81862  0.45290  0.30948  1.0000
  C   C561      1.0  0.57345  0.21615  0.25050  1.0000
  H   H451      1.0  0.57897  0.35896  0.26442  1.0000
  S   S80       1.0  0.81666  0.05178  0.04622  1.0000
  C   C562      1.0  0.59291  0.23424  0.27905  1.0000
  C   C563      1.0  0.57320  0.32106  0.22693  1.0000
  H   H452      1.0  0.77301  0.44397  0.05268  1.0000
  C   C564      1.0  0.85276  0.31885  0.29005  1.0000
  H   H453      1.0  0.61713  0.17831  0.22434  1.0000
  C   C565      1.0  0.55787  0.30909  0.28606  1.0000
  C   C566      1.0  0.57053  0.33223  0.25955  1.0000
  C   C567      1.0  0.97380  0.22217  0.24542  1.0000
  H   H454      1.0  0.93091  0.19435  0.12512  1.0000
  H   H455      1.0  0.52222  0.32051  0.00513  1.0000
  C   C568      1.0  0.54930  0.26298  0.24705  1.0000
  C   C569      1.0  0.83626  0.33608  0.16448  1.0000
  C   C570      1.0  0.95891  0.19402  0.26689  1.0000
  H   H456      1.0  0.50457  0.17729  0.10140  1.0000
  C   C571      1.0  0.96191  0.24302  0.10066  1.0000
  C   C572      1.0  0.82330  0.22048  0.31411  1.0000
  H   H457      1.0  0.53737  0.25712  0.30083  1.0000
  C   C573      1.0  0.54486  0.20921  0.13668  1.0000
  H   H458      1.0  0.86698  0.32154  0.26675  1.0000
  H   H459      1.0  0.86578  0.33007  0.20112  1.0000
  H   H460      1.0  0.85820  0.36013  0.15503  1.0000
  C   C574      1.0  0.95689  0.15741  0.22008  1.0000
  H   H461      1.0  0.58657  0.24969  0.29505  1.0000
  C   C575      1.0  0.91522  0.09269  0.09561  1.0000
  C   C576      1.0  0.84079  0.34073  0.29624  1.0000
  H   H462      1.0  0.49194  0.28152  0.30830  1.0000
  C   C577      1.0  0.65155  0.40385  0.30012  1.0000
  H   H463      1.0  0.65704  0.36678  0.27050  1.0000
  H   H464      1.0  0.65273  0.21283  0.27342  1.0000
  H   H465      1.0  0.63173  0.32300  0.31546  1.0000
  C   C578      1.0  0.56307  0.28676  0.22079  1.0000
  H   H466      1.0  0.66280  0.42298  0.28053  1.0000
  H   H467      1.0  0.72857  0.39783  0.29213  1.0000
  C   C579      1.0  0.61033  0.19394  0.23958  1.0000
  C   C580      1.0  0.76122  0.17787  0.31721  1.0000
  C   C581      1.0  0.75825  0.48746  0.25740  1.0000
  C   C582      1.0  0.71581  0.23085  0.31425  1.0000
  C   C583      1.0  0.88308  0.07835  0.11237  1.0000
  C   C584      1.0  0.85256  0.24109  0.23776  1.0000
  H   H468      1.0  0.97986  0.24711  0.25518  1.0000
  C   C585      1.0  0.63031  0.21316  0.26729  1.0000
  H   H469      1.0  0.93978  0.24224  0.09112  1.0000
  C   C586      1.0  0.79134  0.01738  0.01627  1.0000
  C   C587      1.0  0.90601  0.29518  0.25110  1.0000
  H   H470      1.0  0.96850  0.13407  0.09415  1.0000
  H   H471      1.0  0.80333  0.45216  0.21547  1.0000
  C   C588      1.0  0.87361  0.26678  0.26158  1.0000
  H   H472      1.0  0.95333  0.19705  0.29324  1.0000
  C   C589      1.0  0.62125  0.23281  0.28730  1.0000
  C   C590      1.0  0.64849  0.37224  0.29449  1.0000
  C   C591      1.0  0.78909  0.21130  0.30995  1.0000
  H   H473      1.0  0.94226  0.31940  0.20931  1.0000
  C   C592      1.0  0.86356  0.24396  0.20389  1.0000
  H   H474      1.0  0.92270  0.31525  0.26919  1.0000
  S   S81       1.0  0.93319  0.22115  0.01068  1.0000
  C   C593      1.0  0.91709  0.29774  0.21725  1.0000
  C   C594      1.0  0.49155  0.24474  0.07000  1.0000
  H   H475      1.0  0.56524  0.22012  0.11725  1.0000
  H   H476      1.0  0.82795  0.21860  0.24528  1.0000
  C   C595      1.0  0.50460  0.19833  0.03694  1.0000
  H   H477      1.0  0.86044  0.05510  0.10224  1.0000
  H   H478      1.0  0.52154  0.16316  0.28603  1.0000
  H   H479      1.0  0.84753  0.22385  0.18560  1.0000
  H   H480      1.0  0.84568  0.35974  0.27788  1.0000
  C   C596      1.0  0.51847  0.33138  0.15175  1.0000
  C   C597      1.0  0.97166  0.18552  0.19823  1.0000
  H   H481      1.0  0.73492  0.17109  0.31487  1.0000
  H   H482      1.0  0.94979  0.13205  0.21060  1.0000
  H   H483      1.0  0.68006  0.17612  0.30691  1.0000
  H   H484      1.0  0.93784  0.13965  0.27069  1.0000
  H   H485      1.0  0.92152  0.14985  0.00958  1.0000
  C   C598      1.0  0.50053  0.19144  0.26727  1.0000
  S   S82       1.0  0.84519  0.11334  0.31648  1.0000
  P   P22       1.0  0.97876  0.17955  0.15380  1.0000
  C   C599      1.0  0.98008  0.21797  0.21120  1.0000
  H   H486      1.0  0.48673  0.26320  0.08224  1.0000
  C   C600      1.0  0.73383  0.48839  0.06351  1.0000
  H   H487      1.0  0.75146  0.28602  0.31352  1.0000
  C   C601      1.0  0.97693  0.23210  0.00734  1.0000
  C   C602      1.0  0.63429  0.34765  0.31977  1.0000
  H   H488      1.0  0.88203  0.08600  0.00953  1.0000
  C   C603      1.0  0.50012  0.16670  0.28711  1.0000
  C   C604      1.0  0.75518  0.48240  0.29231  1.0000
  H   H489      1.0  0.71842  0.48338  0.13996  1.0000
  H   H490      1.0  0.55679  0.29401  0.99769  1.0000
  C   C605      1.0  0.98547  0.21558  0.13036  1.0000
  C   C606      1.0  0.77021  0.01881  0.99285  1.0000
  H   H491      1.0  0.76897  0.04153  0.99236  1.0000
  C   C607      1.0  0.82910  0.19553  0.32496  1.0000
  C   C608      1.0  0.48710  0.31174  0.16991  1.0000
  Fe  Fe41      1.0  0.91982  0.17459  0.42211  1.0000
  S   S83       1.0  0.88246  0.17001  0.46308  1.0000
  C   C609      1.0  0.83947  0.02226  0.59663  1.0000
  Fe  Fe42      1.0  0.86157  0.13752  0.36973  1.0000
  S   S84       1.0  0.82038  0.13026  0.40823  1.0000
  Fe  Fe43      1.0  0.85934  0.18541  0.42381  1.0000
  S   S85       1.0  0.85136  0.22968  0.43591  1.0000
  Fe  Fe44      1.0  0.84660  0.11490  0.44395  1.0000
  S   S86       1.0  0.82151  0.07392  0.48543  1.0000
  S   S87       1.0  0.89917  0.19338  0.38362  1.0000
  S   S88       1.0  0.88528  0.11879  0.40470  1.0000
  Fe  Fe45      1.0  0.72821  0.36552  0.41317  1.0000
  S   S89       1.0  0.68871  0.31100  0.43154  1.0000
  S   S90       1.0  0.75343  0.41591  0.44507  1.0000
  C   C610      1.0  0.82641  0.29069  0.34308  1.0000
  S   S91       1.0  0.69245  0.28519  0.35527  1.0000
  Fe  Fe46      1.0  0.66158  0.30381  0.38266  1.0000
  S   S92       1.0  0.60415  0.26976  0.36751  1.0000
  Fe  Fe47      1.0  0.72199  0.29547  0.40257  1.0000
  S   S93       1.0  0.72704  0.24934  0.40997  1.0000
  S   S94       1.0  0.69934  0.35889  0.36615  1.0000
  S   S95       1.0  0.76313  0.35000  0.38856  1.0000
  C   C611      1.0  0.55751  0.27246  0.41345  1.0000
  C   C612      1.0  0.56221  0.25729  0.38411  1.0000
  C   C613      1.0  0.53262  0.23185  0.36650  1.0000
  H   H492      1.0  0.57988  0.29192  0.42737  1.0000
  C   C614      1.0  0.81526  0.45379  0.34467  1.0000
  C   C615      1.0  0.81774  0.23564  0.42551  1.0000
  C   C616      1.0  0.78819  0.21032  0.40833  1.0000
  C   C617      1.0  0.76108  0.21533  0.40302  1.0000
  C   C618      1.0  0.76346  0.24597  0.41415  1.0000
  C   C619      1.0  0.79358  0.27178  0.43025  1.0000
  C   C620      1.0  0.82043  0.26655  0.43598  1.0000
  H   H493      1.0  0.78573  0.18642  0.40018  1.0000
  H   H494      1.0  0.73786  0.19509  0.39071  1.0000
  H   H495      1.0  0.79569  0.29529  0.43934  1.0000
  H   H496      1.0  0.84317  0.28632  0.44931  1.0000
  C   C621      1.0  0.80110  0.02815  0.48848  1.0000
  C   C622      1.0  0.77021  0.04575  0.37933  1.0000
  H   H497      1.0  0.94109  0.01868  0.51223  1.0000
  C   C623      1.0  0.79310  0.01356  0.52080  1.0000
  C   C624      1.0  0.87733  0.01093  0.51331  1.0000
  H   H498      1.0  0.79965  0.03028  0.54299  1.0000
  H   H499      1.0  0.66956  0.42487  0.49419  1.0000
  H   H500      1.0  0.72548  0.06355  0.32713  1.0000
  H   H501      1.0  0.71425  0.01598  0.56508  1.0000
  H   H502      1.0  0.92294  0.29918  0.41254  1.0000
  C   C625      1.0  0.74984  0.46188  0.40467  1.0000
  C   C626      1.0  0.76606  0.45760  0.43133  1.0000
  C   C627      1.0  0.62626  0.38631  0.35674  1.0000
  H   H503      1.0  0.72927  0.43936  0.39160  1.0000
  H   H504      1.0  0.67066  0.39133  0.41157  1.0000
  C   C628      1.0  0.52374  0.26230  0.42489  1.0000
  H   H505      1.0  0.55590  0.32522  0.37287  1.0000
  C   C629      1.0  0.89120  0.03074  0.48408  1.0000
  C   C630      1.0  0.56374  0.37264  0.39534  1.0000
  C   C631      1.0  0.59053  0.00859  0.44417  1.0000
  H   H506      1.0  0.91123  0.05794  0.48592  1.0000
  C   C632      1.0  0.89654  0.28582  0.36527  1.0000
  C   C633      1.0  0.94259  0.10120  0.56707  1.0000
  H   H507      1.0  0.61292  0.33548  0.37024  1.0000
  C   C634      1.0  0.91016  0.07607  0.55374  1.0000
  C   C635      1.0  0.95725  0.10777  0.43839  1.0000
  C   C636      1.0  0.66178  0.03579  0.44769  1.0000
  H   H508      1.0  0.79960  0.31012  0.37209  1.0000
  C   C637      1.0  0.93511  0.14671  0.55067  1.0000
  C   C638      1.0  0.93812  0.02755  0.59813  1.0000
  C   C639      1.0  0.89065  0.08682  0.53865  1.0000
  C   C640      1.0  0.51049  0.36879  0.41331  1.0000
  H   H509      1.0  0.49749  0.38021  0.42575  1.0000
  C   C641      1.0  0.71673  0.05765  0.38116  1.0000
  P   P23       1.0  0.70712  0.05188  0.45127  1.0000
  C   C642      1.0  0.49411  0.23672  0.40735  1.0000
  C   C643      1.0  0.64023  0.41080  0.33098  1.0000
  C   C644      1.0  0.87882  0.01565  0.45219  1.0000
  H   H510      1.0  0.52052  0.27423  0.44763  1.0000
  H   H511      1.0  0.97240  0.02578  0.63214  1.0000
  C   C645      1.0  0.72640  0.05023  0.41116  1.0000
  H   H512      1.0  0.93403  0.10062  0.42523  1.0000
  C   C646      1.0  0.62052  0.45939  0.38828  1.0000
  C   C647      1.0  0.73240  0.09655  0.46538  1.0000
  C   C648      1.0  0.76406  0.10954  0.48118  1.0000
  C   C649      1.0  0.78489  0.14456  0.49042  1.0000
  C   C650      1.0  0.77420  0.16685  0.48403  1.0000
  C   C651      1.0  0.74279  0.15419  0.46814  1.0000
  C   C652      1.0  0.72223  0.11930  0.45826  1.0000
  H   H513      1.0  0.64957  0.46505  0.50060  1.0000
  C   C653      1.0  0.63317  0.44096  0.40227  1.0000
  H   H514      1.0  0.95854  0.09396  0.57852  1.0000
  C   C654      1.0  0.66558  0.45948  0.41776  1.0000
  C   C655      1.0  0.73304  0.05805  0.35033  1.0000
  C   C656      1.0  0.90299  0.12192  0.53719  1.0000
  C   C657      1.0  0.92887  0.02538  0.56433  1.0000
  C   C658      1.0  0.50759  0.31961  0.38556  1.0000
  C   C659      1.0  0.64566  0.04679  0.47103  1.0000
  H   H515      1.0  0.67697  0.44643  0.42745  1.0000
  H   H516      1.0  0.77302  0.09276  0.48574  1.0000
  H   H517      1.0  0.80971  0.15459  0.50189  1.0000
  H   H518      1.0  0.79074  0.19416  0.49054  1.0000
  H   H519      1.0  0.79831  0.01663  0.43505  1.0000
  H   H520      1.0  0.69880  0.11040  0.44464  1.0000
  C   C660      1.0  0.71165  0.03195  0.51551  1.0000
  H   H521      1.0  0.70910  0.23062  0.34088  1.0000
  H   H522      1.0  0.82677  0.48617  0.38925  1.0000
  H   H523      1.0  0.98007  0.15577  0.57554  1.0000
  C   C661      1.0  0.92268  0.29106  0.38636  1.0000
  H   H524      1.0  0.94470  0.17394  0.54946  1.0000
  C   C662      1.0  0.97494  0.01688  0.54646  1.0000
  C   C663      1.0  0.96556  0.02434  0.60598  1.0000
  C   C664      1.0  0.82898  0.48548  0.36196  1.0000
  H   H525      1.0  0.80518  0.48434  0.46908  1.0000
  C   C665      1.0  0.61968  0.37639  0.43083  1.0000
  C   C666      1.0  0.59512  0.35966  0.45723  1.0000
  C   C667      1.0  0.60197  0.34505  0.48350  1.0000
  C   C668      1.0  0.63351  0.34742  0.48393  1.0000
  C   C669      1.0  0.65822  0.36448  0.45814  1.0000
  C   C670      1.0  0.65127  0.37859  0.43150  1.0000
  H   H526      1.0  0.86589  0.06797  0.52782  1.0000
  C   C671      1.0  0.81481  0.31284  0.34935  1.0000
  H   H527      1.0  0.96417  0.26527  0.33234  1.0000
  H   H528      1.0  0.71585  0.05628  0.52493  1.0000
  C   C672      1.0  0.64162  0.01007  0.42339  1.0000
  H   H529      1.0  0.56131  0.41288  0.42312  1.0000
  H   H530      1.0  0.57035  0.35718  0.45748  1.0000
  H   H531      1.0  0.58258  0.33139  0.50327  1.0000
  H   H532      1.0  0.63880  0.33587  0.50410  1.0000
  H   H533      1.0  0.81981  0.27086  0.36108  1.0000
  H   H534      1.0  0.84520  0.04661  0.58751  1.0000
  H   H535      1.0  0.73496  0.17177  0.46264  1.0000
  C   C673      1.0  0.75383  0.04515  0.41013  1.0000
  C   C674      1.0  0.54676  0.38747  0.41121  1.0000
  C   C675      1.0  0.85918  0.00861  0.58564  1.0000
  C   C676      1.0  0.70749  0.02336  0.48081  1.0000
  H   H536      1.0  0.69689  0.06347  0.38163  1.0000
  Fe  Fe48      1.0  0.73156  0.33999  0.34308  1.0000
  P   P24       1.0  0.89399  0.03044  0.55443  1.0000
  C   C677      1.0  0.54376  0.33834  0.38296  1.0000
  H   H537      1.0  0.74237  0.44626  0.33174  1.0000
  H   H538      1.0  0.79182  0.04246  0.37874  1.0000
  C   C678      1.0  0.60619  0.99675  0.42148  1.0000
  H   H539      1.0  0.96514  0.21154  0.49822  1.0000
  C   C679      1.0  0.62343  0.35471  0.35081  1.0000
  H   H540      1.0  0.59657  0.44597  0.37455  1.0000
  H   H541      1.0  0.73117  0.44626  0.50274  1.0000
  C   C680      1.0  0.72236  0.46376  0.50629  1.0000
  H   H542      1.0  0.88878  0.03132  0.42986  1.0000
  H   H543      1.0  0.66037  0.06545  0.49097  1.0000
  H   H544      1.0  0.65313  0.99996  0.40617  1.0000
  C   C681      1.0  0.95497  0.13637  0.56548  1.0000
  H   H545      1.0  0.59798  0.04226  0.48695  1.0000
  H   H546      1.0  0.94995  0.13783  0.47678  1.0000
  H   H547      1.0  0.53578  0.21955  0.34404  1.0000
  H   H548      1.0  0.87718  0.29024  0.37575  1.0000
  H   H549      1.0  0.68281  0.36668  0.45884  1.0000
  P   P25       1.0  0.61045  0.39447  0.39634  1.0000
  H   H550      1.0  0.88762  0.12982  0.52534  1.0000
  C   C682      1.0  0.75974  0.05208  0.34942  1.0000
  H   H551      1.0  0.56304  0.99815  0.44277  1.0000
  C   C683      1.0  0.61023  0.03348  0.46902  1.0000
  C   C684      1.0  0.98395  0.01897  0.58016  1.0000
  C   C685      1.0  0.68765  0.45171  0.50124  1.0000
  C   C686      1.0  0.94571  0.27170  0.34121  1.0000
  C   C687      1.0  0.96610  0.12854  0.46770  1.0000
  C   C688      1.0  0.94733  0.28415  0.37434  1.0000
  C   C689      1.0  0.49887  0.22170  0.37792  1.0000
  C   C690      1.0  0.89491  0.27372  0.33180  1.0000
  H   H552      1.0  0.79596  0.01446  0.62726  1.0000
  H   H553      1.0  0.76323  0.04173  0.43326  1.0000
  C   C691      1.0  0.79241  0.48728  0.44841  1.0000
  C   C692      1.0  0.67641  0.47437  0.50494  1.0000
  H   H554      1.0  0.80200  0.42994  0.35858  1.0000
  C   C693      1.0  0.94762  0.02026  0.53849  1.0000
  H   H555      1.0  0.97228  0.08174  0.40241  1.0000
  C   C694      1.0  0.79198  0.00601  0.46007  1.0000
  S   S96       1.0  0.97839  0.19899  0.42725  1.0000
  H   H556      1.0  0.92413  0.03180  0.61840  1.0000
  H   H557      1.0  0.96695  0.28732  0.39110  1.0000
  H   H558      1.0  0.64271  0.43539  0.33452  1.0000
  H   H559      1.0  0.74573  0.12747  0.33386  1.0000
  C   C695      1.0  0.97888  0.09721  0.42556  1.0000
  H   H560      1.0  0.81261  0.35473  0.33063  1.0000
  C   C696      1.0  0.71038  0.00901  0.53843  1.0000
  H   H561      1.0  0.49248  0.29270  0.37726  1.0000
  C   C697      1.0  0.49093  0.33485  0.40053  1.0000
  C   C698      1.0  0.81139  0.00407  0.61927  1.0000
  C   C699      1.0  0.82207  0.33792  0.32599  1.0000
  H   H562      1.0  0.85508  0.20181  0.32858  1.0000
  H   H563      1.0  0.80587  0.14283  0.33974  1.0000
  C   C700      1.0  0.76727  0.15324  0.32798  1.0000
  C   C701      1.0  0.80117  0.16199  0.33157  1.0000
  C   C702      1.0  0.70105  0.99111  0.46955  1.0000
  H   H564      1.0  0.77301  0.05325  0.32568  1.0000
  C   C703      1.0  0.93834  0.09386  0.82913  1.0000
  H   H565      1.0  0.97008  0.17782  0.96819  1.0000
  H   H566      1.0  0.95800  0.08728  0.78098  1.0000
  H   H567      1.0  0.91147  0.07847  0.82173  1.0000
  H   H568      1.0  0.94022  0.07786  0.92607  1.0000
  C   C704      1.0  0.97977  0.20217  0.90303  1.0000
  C   C705      1.0  0.75044  0.99067  0.97007  1.0000
  H   H569      1.0  0.89164  0.05008  0.96805  1.0000
  C   C706      1.0  0.95288  0.14999  0.96750  1.0000
  H   H570      1.0  0.92618  0.10604  0.87848  1.0000
  H   H571      1.0  0.96950  0.24165  0.89519  1.0000
  C   C707      1.0  0.95757  0.13007  0.94283  1.0000
  H   H572      1.0  0.95288  0.18296  0.90915  1.0000
  H   H573      1.0  0.73422  0.99221  0.95222  1.0000
  C   C708      1.0  0.90882  0.07800  0.96778  1.0000
  C   C709      1.0  0.93611  0.09384  0.94387  1.0000
  C   C710      1.0  0.96455  0.09889  0.80615  1.0000
  C   C711      1.0  0.94676  0.10922  0.86149  1.0000
  H   H574      1.0  0.53262  0.23812  0.96692  1.0000
  C   C712      1.0  0.51744  0.24966  0.96976  1.0000
  C   C713      1.0  0.53114  0.28128  0.98717  1.0000
  C   C714      1.0  0.98149  0.12910  0.87132  1.0000
  C   C715      1.0  0.51154  0.29603  0.99153  1.0000
  C   C716      1.0  0.90341  0.09818  0.99130  1.0000
  C   C717      1.0  0.92561  0.13414  0.99131  1.0000
  H   H575      1.0  0.96150  0.56642  0.20392  1.0000
  Fe  Fe49      1.0  0.85089  0.67800  0.11080  1.0000
  S   S97       1.0  0.80680  0.63999  0.07736  1.0000
  S   S98       1.0  0.83496  0.67978  0.16633  1.0000
  Fe  Fe50      1.0  0.90424  0.70169  0.05109  1.0000
  Fe  Fe51      1.0  0.82988  0.68235  0.03873  1.0000
  C   C718      1.0  0.97414  0.66999  0.05712  1.0000
  Fe  Fe52      1.0  0.84297  0.62513  0.05576  1.0000
  C   C719      1.0  0.86408  0.53196  0.21870  1.0000
  S   S99       1.0  0.87170  0.72139  0.07365  1.0000
  S   S100      1.0  0.88600  0.66119  0.09102  1.0000
  H   H576      1.0  0.83683  0.52237  0.22237  1.0000
  C   C720      1.0  0.71776  0.71773  0.05769  1.0000
  C   C721      1.0  0.79621  0.52854  0.05513  1.0000
  C   C722      1.0  0.80174  0.52446  0.15320  1.0000
  C   C723      1.0  0.76318  0.52256  0.06101  1.0000
  H   H577      1.0  0.76014  0.54422  0.06291  1.0000
  C   C724      1.0  0.93427  0.55665  0.20809  1.0000
  H   H578      1.0  0.81082  0.50913  0.14150  1.0000
  C   C725      1.0  0.80305  0.78234  0.99583  1.0000
  C   C726      1.0  0.88548  0.68969  0.26849  1.0000
  C   C727      1.0  0.85338  0.68621  0.26734  1.0000
  C   C728      1.0  0.83851  0.68338  0.23588  1.0000
  C   C729      1.0  0.85534  0.68376  0.20514  1.0000
  C   C730      1.0  0.88726  0.68682  0.20628  1.0000
  C   C731      1.0  0.90227  0.68994  0.23775  1.0000
  H   H579      1.0  0.84022  0.68618  0.29067  1.0000
  H   H580      1.0  0.81384  0.68105  0.23538  1.0000
  H   H581      1.0  0.90054  0.68714  0.18294  1.0000
  H   H582      1.0  0.92716  0.69275  0.23828  1.0000
  H   H583      1.0  0.72168  0.67399  0.04505  1.0000
  C   C732      1.0  0.77417  0.51024  0.17709  1.0000
  C   C733      1.0  0.91854  0.61564  0.99209  1.0000
  C   C734      1.0  0.77891  0.82851  0.05384  1.0000
  C   C735      1.0  0.67736  0.75724  0.17354  1.0000
  H   H584      1.0  0.82474  0.50400  0.04794  1.0000
  C   C736      1.0  0.79008  0.88059  0.02830  1.0000
  C   C737      1.0  0.84944  0.51569  0.30876  1.0000
  H   H585      1.0  0.76179  0.50367  0.30987  1.0000
  H   H586      1.0  0.76802  0.69072  0.08549  1.0000
  C   C738      1.0  0.80207  0.58350  0.30566  1.0000
  H   H587      1.0  0.78801  0.61056  0.27388  1.0000
  H   H588      1.0  0.79018  0.74352  0.12164  1.0000
  C   C739      1.0  0.91096  0.53909  0.18198  1.0000
  C   C740      1.0  0.90843  0.58837  0.31017  1.0000
  C   C741      1.0  0.64154  0.74112  0.06368  1.0000
  H   H589      1.0  0.86200  0.59021  0.23037  1.0000
  H   H590      1.0  0.85800  0.51302  0.16700  1.0000
  S   S101      1.0  0.79211  0.68845  0.00738  1.0000
  C   C742      1.0  0.70006  0.81735  0.16322  1.0000
  C   C743      1.0  0.68588  0.75285  0.14018  1.0000
  C   C744      1.0  0.76099  0.53020  0.18887  1.0000
  H   H591      1.0  0.82923  0.86984  0.03634  1.0000
  H   H592      1.0  0.83221  0.76435  0.01895  1.0000
  C   C745      1.0  0.70163  0.78074  0.11807  1.0000
  C   C746      1.0  0.98298  0.69034  0.08681  1.0000
  H   H593      1.0  0.65867  0.88800  0.01502  1.0000
  H   H594      1.0  0.82185  0.80923  0.00195  1.0000
  C   C747      1.0  0.68445  0.78948  0.18506  1.0000
  C   C748      1.0  0.61275  0.72695  0.04293  1.0000
  C   C749      1.0  0.75712  0.70635  0.08387  1.0000
  C   C750      1.0  0.70866  0.81307  0.12985  1.0000
  C   C751      1.0  0.80283  0.59881  0.27568  1.0000
  H   H595      1.0  0.76629  0.77994  0.11705  1.0000
  H   H596      1.0  0.76813  0.51317  0.24882  1.0000
  H   H597      1.0  0.69798  0.71015  0.03931  1.0000
  H   H598      1.0  0.70396  0.76219  0.00248  1.0000
  C   C752      1.0  0.79943  0.49983  0.05266  1.0000
  C   C753      1.0  0.84451  0.58688  0.25120  1.0000
  H   H599      1.0  0.78872  0.81322  0.06132  1.0000
  H   H600      1.0  0.73838  0.51921  0.20560  1.0000
  C   C754      1.0  0.75485  0.86827  0.03133  1.0000
  C   C755      1.0  0.84339  0.57081  0.28103  1.0000
  C   C756      1.0  0.73162  0.83607  0.04546  1.0000
  H   H601      1.0  0.80790  0.90519  0.01658  1.0000
  C   C757      1.0  0.87591  0.52668  0.18732  1.0000
  H   H602      1.0  0.66538  0.73565  0.19049  1.0000
  H   H603      1.0  0.63773  0.74242  0.09070  1.0000
  C   C758      1.0  0.80906  0.75688  0.00551  1.0000
  H   H604      1.0  0.74537  0.88332  0.02208  1.0000
  S   S102      1.0  0.83412  0.57097  0.04969  1.0000
  H   H605      1.0  0.70567  0.84240  0.17217  1.0000
  C   C759      1.0  0.80210  0.86074  0.03958  1.0000
  C   C760      1.0  0.82406  0.60050  0.24853  1.0000
  C   C761      1.0  0.81699  0.55848  0.14279  1.0000
  C   C762      1.0  0.80437  0.57839  0.15542  1.0000
  C   C763      1.0  0.77617  0.56414  0.17821  1.0000
  C   C764      1.0  0.76977  0.73628  0.10400  1.0000
  S   S103      1.0  0.96350  0.73836  0.04218  1.0000
  C   C765      1.0  0.82238  0.56971  0.30839  1.0000
  C   C766      1.0  0.79245  0.98742  0.01626  1.0000
  C   C767      1.0  0.97834  0.58433  0.04395  1.0000
  H   H606      1.0  0.94114  0.57551  0.25936  1.0000
  H   H607      1.0  0.67795  0.79292  0.21094  1.0000
  H   H608      1.0  0.72094  0.83514  0.11359  1.0000
  H   H609      1.0  0.81594  0.60464  0.14694  1.0000
  H   H610      1.0  0.76597  0.57949  0.18726  1.0000
  H   H611      1.0  0.94923  0.66058  0.04628  1.0000
  C   C768      1.0  0.92254  0.56180  0.23959  1.0000
  P   P26       1.0  0.87188  0.55578  0.28595  1.0000
  H   H612      1.0  0.82579  0.61370  0.22582  1.0000
  C   C769      1.0  0.88733  0.54950  0.24517  1.0000
  H   H613      1.0  0.83792  0.56914  0.12399  1.0000
  S   S104      1.0  0.86345  0.66464  0.01434  1.0000
  C   C770      1.0  0.75633  0.75690  0.10113  1.0000
  C   C771      1.0  0.91892  0.62316  0.30932  1.0000
  H   H614      1.0  0.68024  0.72769  0.13162  1.0000
  H   H615      1.0  0.70434  0.82674  0.04713  1.0000
  C   C772      1.0  0.97091  0.59245  0.01301  1.0000
  C   C773      1.0  0.73089  0.69691  0.06104  1.0000
  H   H616      1.0  0.96498  0.69638  0.09824  1.0000
  H   H617      1.0  0.91158  0.59994  0.01428  1.0000
  C   C774      1.0  0.67475  0.75398  0.04932  1.0000
  C   C775      1.0  0.67857  0.75212  0.01406  1.0000
  P   P27       1.0  0.71276  0.77447  0.07520  1.0000
  C   C776      1.0  0.73050  0.74802  0.07765  1.0000
  C   C777      1.0  0.74346  0.81598  0.05699  1.0000
  H   H618      1.0  0.92006  0.53520  0.15754  1.0000
  H   H619      1.0  0.58723  0.71748  0.05395  1.0000
  H   H620      1.0  0.93477  0.49674  0.03397  1.0000
  S   S105      1.0  0.90622  0.69488  0.30740  1.0000
  C   C778      1.0  0.61687  0.72543  0.00783  1.0000
  H   H621      1.0  0.90533  0.63106  0.29434  1.0000
  C   C779      1.0  0.96543  0.54992  0.05140  1.0000
  C   C780      1.0  0.77286  0.95940  0.99335  1.0000
  H   H622      1.0  0.97110  0.54376  0.07535  1.0000
  C   C781      1.0  0.94501  0.52342  0.02809  1.0000
  C   C782      1.0  0.78537  0.72194  0.99739  1.0000
  H   H623      1.0  0.80871  0.98592  0.03409  1.0000
  H   H624      1.0  0.77453  0.93697  0.99343  1.0000
  C   C783      1.0  0.93761  0.53132  0.99721  1.0000
  C   C784      1.0  0.64974  0.73783  0.99344  1.0000
  H   H625      1.0  0.98449  0.85652  0.04501  1.0000
  H   H626      1.0  0.59468  0.71498  0.99167  1.0000
  Fe  Fe53      1.0  0.88297  0.68477  0.36135  1.0000
  S   S106      1.0  0.82653  0.65617  0.37554  1.0000
  Fe  Fe54      1.0  0.90414  0.69096  0.43549  1.0000
  S   S107      1.0  0.84784  0.66134  0.45411  1.0000
  S   S108      1.0  0.94657  0.71519  0.47594  1.0000
  Fe  Fe55      1.0  0.83710  0.62481  0.40917  1.0000
  S   S109      1.0  0.79702  0.56649  0.39959  1.0000
  Fe  Fe56      1.0  0.84111  0.69450  0.41935  1.0000
  S   S110      1.0  0.80783  0.71787  0.42838  1.0000
  S   S111      1.0  0.89349  0.65207  0.39322  1.0000
  S   S112      1.0  0.89752  0.72563  0.40255  1.0000
  Fe  Fe57      1.0  0.66532  0.80536  0.57522  1.0000
  S   S113      1.0  0.69109  0.86224  0.58788  1.0000
  S   S114      1.0  0.60822  0.76345  0.58803  1.0000
  Fe  Fe58      1.0  0.73641  0.81258  0.56082  1.0000
  S   S115      1.0  0.76639  0.86984  0.57387  1.0000
  S   S116      1.0  0.76327  0.78251  0.55199  1.0000
  Fe  Fe59      1.0  0.72816  0.85627  0.61773  1.0000
  H   H627      1.0  0.81533  0.93358  0.62972  1.0000
  Fe  Fe60      1.0  0.72733  0.87175  0.54318  1.0000
  S   S117      1.0  0.74201  0.90923  0.49939  1.0000
  S   S118      1.0  0.70125  0.79940  0.60708  1.0000
  S   S119      1.0  0.69884  0.81474  0.52818  1.0000
  H   H628      1.0  0.80224  0.62681  0.57592  1.0000
  C   C785      1.0  0.76597  0.95527  0.49633  1.0000
  H   H629      1.0  0.76645  0.95303  0.44180  1.0000
  C   C786      1.0  0.73471  0.52131  0.51953  1.0000
  C   C787      1.0  0.78642  0.52506  0.41217  1.0000
  H   H630      1.0  0.59075  0.97698  0.40262  1.0000
  C   C788      1.0  0.80292  0.52078  0.43855  1.0000
  H   H631      1.0  0.69089  0.52646  0.51643  1.0000
  H   H632      1.0  0.82379  0.54317  0.45134  1.0000
  C   C789      1.0  0.79674  0.73666  0.46310  1.0000
  C   C790      1.0  0.80647  0.73751  0.49635  1.0000
  C   C791      1.0  0.79612  0.75174  0.52297  1.0000
  C   C792      1.0  0.77630  0.76583  0.51688  1.0000
  C   C793      1.0  0.76675  0.76517  0.48360  1.0000
  C   C794      1.0  0.77670  0.75051  0.45705  1.0000
  H   H633      1.0  0.82184  0.72706  0.50159  1.0000
  H   H634      1.0  0.80370  0.75203  0.54853  1.0000
  H   H635      1.0  0.75142  0.77567  0.47835  1.0000
  H   H636      1.0  0.76893  0.75005  0.43152  1.0000
  H   H637      1.0  0.81927  0.59418  0.47814  1.0000
  H   H638      1.0  0.61753  0.73307  0.33641  1.0000
  C   C795      1.0  0.52706  0.75760  0.54149  1.0000
  C   C796      1.0  0.56106  0.76874  0.55069  1.0000
  C   C797      1.0  0.56634  0.75403  0.57799  1.0000
  C   C798      1.0  0.53718  0.72938  0.59705  1.0000
  H   H639      1.0  0.52333  0.76827  0.51953  1.0000
  H   H640      1.0  0.58320  0.78810  0.53625  1.0000
  H   H641      1.0  0.54097  0.71787  0.61821  1.0000
  P   P28       1.0  0.76442  0.56617  0.53150  1.0000
  C   C799      1.0  0.75948  0.59168  0.50155  1.0000
  C   C800      1.0  0.75898  0.62096  0.51184  1.0000
  C   C801      1.0  0.75569  0.64040  0.48791  1.0000
  C   C802      1.0  0.75282  0.63080  0.45367  1.0000
  C   C803      1.0  0.75295  0.60158  0.44329  1.0000
  C   C804      1.0  0.75597  0.58197  0.46715  1.0000
  C   C805      1.0  0.82244  0.95857  0.62068  1.0000
  C   C806      1.0  0.75588  0.57522  0.57437  1.0000
  H   H642      1.0  0.78667  0.58333  0.32727  1.0000
  C   C807      1.0  0.72666  0.55034  0.59297  1.0000
  H   H643      1.0  0.76129  0.62920  0.53805  1.0000
  H   H644      1.0  0.75604  0.66341  0.49571  1.0000
  H   H645      1.0  0.75122  0.64647  0.43510  1.0000
  H   H646      1.0  0.75179  0.59473  0.41661  1.0000
  H   H647      1.0  0.75666  0.55976  0.45866  1.0000
  H   H648      1.0  0.84030  0.95934  0.53176  1.0000
  C   C808      1.0  0.63935  0.49552  0.39092  1.0000
  H   H649      1.0  0.68617  0.54161  0.40846  1.0000
  C   C809      1.0  0.77402  0.96985  0.46401  1.0000
  H   H650      1.0  0.87956  0.60989  0.47689  1.0000
  H   H651      1.0  0.67647  0.73710  0.55233  1.0000
  C   C810      1.0  0.96366  0.69213  0.59855  1.0000
  H   H652      1.0  0.90318  0.59882  0.52635  1.0000
  C   C811      1.0  0.67130  0.51360  0.40686  1.0000
  C   C812      1.0  0.89224  0.66026  0.58949  1.0000
  H   H653      1.0  0.69721  0.98365  0.44301  1.0000
  H   H654      1.0  0.79156  0.63978  0.63465  1.0000
  H   H655      1.0  0.70968  0.50951  0.43154  1.0000
  C   C813      1.0  0.85173  0.97549  0.50994  1.0000
  H   H656      1.0  0.82221  0.55905  0.33223  1.0000
  C   C814      1.0  0.86347  0.59869  0.49945  1.0000
  H   H657      1.0  0.70388  0.95954  0.54458  1.0000
  H   H658      1.0  0.62773  0.75679  0.39465  1.0000
  H   H659      1.0  0.74667  0.49823  0.37502  1.0000
  C   C815      1.0  0.56414  0.65831  0.37821  1.0000
  C   C816      1.0  0.56983  0.67160  0.41141  1.0000
  C   C817      1.0  0.59249  0.70723  0.41779  1.0000
  P   P29       1.0  0.60000  0.72364  0.46092  1.0000
  C   C818      1.0  0.55826  0.70203  0.48289  1.0000
  C   C819      1.0  0.63047  0.71646  0.48009  1.0000
  C   C820      1.0  0.64206  0.72968  0.51279  1.0000
  C   C821      1.0  0.66723  0.72632  0.52725  1.0000
  C   C822      1.0  0.68145  0.71021  0.50897  1.0000
  C   C823      1.0  0.67035  0.69722  0.47626  1.0000
  C   C824      1.0  0.64488  0.70021  0.46183  1.0000
  C   C825      1.0  0.92700  0.57929  0.32965  1.0000
  C   C826      1.0  0.60416  0.71590  0.35735  1.0000
  C   C827      1.0  0.61929  0.76989  0.46143  1.0000
  C   C828      1.0  0.59925  0.78405  0.46837  1.0000
  C   C829      1.0  0.61495  0.81994  0.46981  1.0000
  C   C830      1.0  0.65066  0.84194  0.46402  1.0000
  C   C831      1.0  0.67063  0.82808  0.45632  1.0000
  C   C832      1.0  0.65509  0.79223  0.45509  1.0000
  C   C833      1.0  0.49289  0.66834  0.51573  1.0000
  H   H660      1.0  0.55650  0.65412  0.43215  1.0000
  H   H661      1.0  0.63206  0.74320  0.52696  1.0000
  H   H662      1.0  0.51233  0.62839  0.64849  1.0000
  H   H663      1.0  0.70172  0.70862  0.51995  1.0000
  H   H664      1.0  0.68212  0.68551  0.46188  1.0000
  H   H665      1.0  0.63722  0.69054  0.43626  1.0000
  C   C834      1.0  0.91518  0.67308  0.56169  1.0000
  C   C835      1.0  0.82931  0.59030  0.50044  1.0000
  H   H666      1.0  0.57172  0.76772  0.47367  1.0000
  H   H667      1.0  0.59949  0.83068  0.47623  1.0000
  H   H668      1.0  0.69846  0.84524  0.45254  1.0000
  H   H669      1.0  0.67123  0.78204  0.44996  1.0000
  H   H670      1.0  0.84291  0.96886  0.42457  1.0000
  C   C836      1.0  0.68446  0.49556  0.42006  1.0000
  H   H671      1.0  0.80589  0.55830  0.57993  1.0000
  H   H672      1.0  0.57504  0.69075  0.52822  1.0000
  C   C837      1.0  0.87672  0.59237  0.52727  1.0000
  C   C838      1.0  0.80280  0.97218  0.63117  1.0000
  H   H673      1.0  0.86497  0.96529  0.58974  1.0000
  C   C839      1.0  0.82179  0.56981  0.55741  1.0000
  C   C840      1.0  0.80838  0.57637  0.52960  1.0000
  C   C841      1.0  0.55370  0.68827  0.51511  1.0000
  C   C842      1.0  0.75979  0.49535  0.39536  1.0000
  C   C843      1.0  0.77946  0.60734  0.58982  1.0000
  C   C844      1.0  0.85056  0.97670  0.59810  1.0000
  H   H674      1.0  0.69820  0.53855  0.64051  1.0000
  H   H675      1.0  0.86605  0.57262  0.57766  1.0000
  C   C845      1.0  0.72085  0.55779  0.62629  1.0000
  C   C846      1.0  0.69968  0.96822  0.49255  1.0000
  C   C847      1.0  0.94049  0.67940  0.62644  1.0000
  H   H676      1.0  0.90561  0.67130  0.53657  1.0000
  H   H677      1.0  0.81913  0.93325  0.47579  1.0000
  C   C848      1.0  0.58127  0.68046  0.35118  1.0000
  H   H678      1.0  0.91975  0.55270  0.33028  1.0000
  H   H679      1.0  0.77031  0.96685  0.54979  1.0000
  C   C849      1.0  0.77352  0.61475  0.62307  1.0000
  C   C850      1.0  0.85582  0.57774  0.55618  1.0000
  C   C851      1.0  0.74585  0.49841  0.51549  1.0000
  C   C852      1.0  0.60986  0.72929  0.39052  1.0000
  H   H680      1.0  0.66309  0.86976  0.46611  1.0000
  C   C853      1.0  0.69987  0.50909  0.51389  1.0000
  H   H681      1.0  0.54641  0.63083  0.37346  1.0000
  H   H682      1.0  0.96902  0.59741  0.36398  1.0000
  H   H683      1.0  0.85564  0.54047  0.35818  1.0000
  H   H684      1.0  0.69563  0.94373  0.48372  1.0000
  C   C854      1.0  0.83974  0.96039  0.47799  1.0000
  C   C855      1.0  0.50319  0.71893  0.58850  1.0000
  H   H685      1.0  0.86476  0.64817  0.58588  1.0000
  H   H686      1.0  0.51802  0.66199  0.55668  1.0000
  H   H687      1.0  0.96811  0.69882  0.54430  1.0000
  H   H688      1.0  0.62950  0.50959  0.38006  1.0000
  C   C856      1.0  0.95505  0.60457  0.34864  1.0000
  C   C857      1.0  0.84556  0.51625  0.34416  1.0000
  C   C858      1.0  0.52112  0.67148  0.53137  1.0000
  H   H689      1.0  0.57683  0.67015  0.32545  1.0000
  H   H690      1.0  0.53240  0.70892  0.44248  1.0000
  H   H691      1.0  0.88706  0.65350  0.64341  1.0000
  C   C859      1.0  0.85307  0.98048  0.44915  1.0000
  H   H692      1.0  0.77264  0.50710  0.51895  1.0000
  C   C860      1.0  0.95068  0.68874  0.56614  1.0000
  C   C861      1.0  0.74419  0.59000  0.64130  1.0000
  C   C862      1.0  0.90485  0.66327  0.62183  1.0000
  H   H693      1.0  0.70837  0.52512  0.58208  1.0000
  C   C863      1.0  0.70436  0.97716  0.52695  1.0000
  C   C864      1.0  0.52956  0.69835  0.46720  1.0000
  H   H694      1.0  0.98126  0.64952  0.56592  1.0000
  H   H695      1.0  0.98273  0.75673  0.58233  1.0000
  C   C865      1.0  0.77623  0.97750  0.52476  1.0000
  C   C866      1.0  0.96497  0.63907  0.34804  1.0000
  C   C867      1.0  0.49780  0.73244  0.56013  1.0000
  C   C868      1.0  0.94704  0.64835  0.32821  1.0000
  H   H696      1.0  0.65195  0.81169  0.64677  1.0000
  H   H697      1.0  0.78073  0.95774  0.64832  1.0000
  H   H698      1.0  0.95450  0.67507  0.32780  1.0000
  H   H699      1.0  0.96952  0.78404  0.37459  1.0000
  C   C869      1.0  0.49712  0.68185  0.48372  1.0000
  H   H700      1.0  0.94984  0.68211  0.65174  1.0000
  C   C870      1.0  0.71819  0.72374  0.87530  1.0000
  H   H701      1.0  0.72260  0.74630  0.86288  1.0000
  Fe  Fe61      1.0  0.72852  0.81460  0.93925  1.0000
  S   S120      1.0  0.75140  0.86004  0.90436  1.0000
  S   S121      1.0  0.76763  0.80717  0.96624  1.0000
  Fe  Fe62      1.0  0.65312  0.79401  0.92563  1.0000
  S   S122      1.0  0.67193  0.83815  0.89061  1.0000
  S   S123      1.0  0.59662  0.74714  0.92642  1.0000
  Fe  Fe63      1.0  0.70886  0.82464  0.86826  1.0000
  S   S124      1.0  0.70878  0.80823  0.81264  1.0000
  Fe  Fe64      1.0  0.71322  0.87079  0.92949  1.0000
  S   S125      1.0  0.72582  0.92602  0.94059  1.0000
  S   S126      1.0  0.68860  0.77898  0.90176  1.0000
  S   S127      1.0  0.69184  0.82699  0.96621  1.0000
  H   H702      1.0  0.52894  0.84641  0.89365  1.0000
  C   C871      1.0  0.75149  0.96069  0.97014  1.0000
  C   C872      1.0  0.86819  0.73543  0.86925  1.0000
  C   C873      1.0  0.60855  0.78466  0.68142  1.0000
  H   H703      1.0  0.49966  0.72786  0.78276  1.0000
  C   C874      1.0  0.64611  0.84704  0.67897  1.0000
  H   H704      1.0  0.88673  0.73330  0.85336  1.0000
  H   H705      1.0  0.65174  0.86492  0.77376  1.0000
  C   C875      1.0  0.67894  0.67118  0.90563  1.0000
  H   H706      1.0  0.72608  0.73101  0.95707  1.0000
  C   C876      1.0  0.53260  0.82623  0.88443  1.0000
  C   C877      1.0  0.59234  0.95061  0.84797  1.0000
  C   C878      1.0  0.80465  0.75289  0.75432  1.0000
  C   C879      1.0  0.63696  0.81425  0.66712  1.0000
  H   H707      1.0  0.60210  0.75972  0.67138  1.0000
  C   C880      1.0  0.75659  0.70347  0.79971  1.0000
  C   C881      1.0  0.73284  0.86148  0.70964  1.0000
  C   C882      1.0  0.71210  0.82545  0.71184  1.0000
  C   C883      1.0  0.70454  0.80972  0.74361  1.0000
  C   C884      1.0  0.71728  0.82970  0.77364  1.0000
  C   C885      1.0  0.73772  0.86572  0.77152  1.0000
  C   C886      1.0  0.74538  0.88148  0.73972  1.0000
  H   H708      1.0  0.70222  0.80966  0.68903  1.0000
  H   H709      1.0  0.68888  0.78183  0.74487  1.0000
  H   H710      1.0  0.74823  0.88139  0.79430  1.0000
  H   H711      1.0  0.76157  0.90935  0.73835  1.0000
  C   C887      1.0  0.54792  0.76035  0.95458  1.0000
  C   C888      1.0  0.55436  0.73965  0.93278  1.0000
  C   C889      1.0  0.52599  0.71055  0.91698  1.0000
  H   H712      1.0  0.56894  0.78173  0.96825  1.0000
  C   C890      1.0  0.50995  0.76929  0.70954  1.0000
  C   C891      1.0  0.51380  0.75235  0.96007  1.0000
  C   C892      1.0  0.75372  0.69604  0.76490  1.0000
  H   H713      1.0  0.64315  0.93480  0.93256  1.0000
  C   C893      1.0  0.95058  0.56568  0.98962  1.0000
  C   C894      1.0  0.59797  0.82075  0.71938  1.0000
  H   H714      1.0  0.66502  0.70554  0.88835  1.0000
  C   C895      1.0  0.77759  0.72081  0.74220  1.0000
  H   H715      1.0  0.88008  0.63534  0.93383  1.0000
  H   H716      1.0  0.63342  0.87580  0.71380  1.0000
  H   H717      1.0  0.73764  0.68404  0.81681  1.0000
  C   C896      1.0  0.84501  0.73666  0.92493  1.0000
  S   S128      1.0  0.74420  0.88269  0.67010  1.0000
  C   C897      1.0  0.78328  0.73594  0.81202  1.0000
  C   C898      1.0  0.80765  0.76038  0.78909  1.0000
  P   P30       1.0  0.78651  0.74647  0.85679  1.0000
  C   C899      1.0  0.79719  0.79037  0.86213  1.0000
  C   C900      1.0  0.50715  0.76594  0.86862  1.0000
  C   C901      1.0  0.50334  0.79278  0.87991  1.0000
  C   C902      1.0  0.90048  0.63547  0.94667  1.0000
  C   C903      1.0  0.81749  0.81160  0.88915  1.0000
  C   C904      1.0  0.82722  0.84606  0.89194  1.0000
  C   C905      1.0  0.81691  0.85966  0.86777  1.0000
  C   C906      1.0  0.79578  0.83847  0.84145  1.0000
  C   C907      1.0  0.78569  0.80392  0.83877  1.0000
  C   C908      1.0  0.81933  0.74219  0.87514  1.0000
  C   C909      1.0  0.84348  0.73949  0.85461  1.0000
  H   H718      1.0  0.82300  0.77220  0.73671  1.0000
  H   H719      1.0  0.88781  0.73054  0.91582  1.0000
  C   C910      1.0  0.59300  0.90769  0.88088  1.0000
  C   C911      1.0  0.82050  0.74094  0.91039  1.0000
  H   H720      1.0  0.59501  0.80965  0.86379  1.0000
  H   H721      1.0  0.82858  0.78549  0.79809  1.0000
  C   C912      1.0  0.56958  0.80561  0.86742  1.0000
  H   H722      1.0  0.58326  0.82364  0.73982  1.0000
  H   H723      1.0  0.82549  0.80174  0.90848  1.0000
  H   H724      1.0  0.84208  0.86196  0.91335  1.0000
  H   H725      1.0  0.82413  0.88626  0.87020  1.0000
  H   H726      1.0  0.78648  0.84856  0.82349  1.0000
  H   H727      1.0  0.76872  0.78788  0.81850  1.0000
  H   H728      1.0  0.84330  0.74033  0.82738  1.0000
  H   H729      1.0  0.66665  0.93961  0.98868  1.0000
  H   H730      1.0  0.58541  0.70987  0.71470  1.0000
  C   C913      1.0  0.56602  0.83305  0.87778  1.0000
  C   C914      1.0  0.63067  0.86965  0.82200  1.0000
  P   P31       1.0  0.55417  0.74983  0.72900  1.0000
  C   C915      1.0  0.56921  0.74539  0.76884  1.0000
  C   C916      1.0  0.54042  0.71108  0.70368  1.0000
  C   C917      1.0  0.61588  0.85046  0.94193  1.0000
  C   C918      1.0  0.69972  0.91687  0.83924  1.0000
  C   C919      1.0  0.63833  0.88520  0.85451  1.0000
  C   C920      1.0  0.60085  0.77226  0.78224  1.0000
  C   C921      1.0  0.61250  0.76802  0.81255  1.0000
  C   C922      1.0  0.59296  0.73694  0.82964  1.0000
  C   C923      1.0  0.56167  0.70995  0.81639  1.0000
  C   C924      1.0  0.54989  0.71407  0.78605  1.0000
  C   C925      1.0  0.57664  0.95767  0.87525  1.0000
  H   H731      1.0  0.67992  0.92154  0.88757  1.0000
  H   H732      1.0  0.73265  0.67123  0.75551  1.0000
  C   C926      1.0  0.61990  0.87946  0.92695  1.0000
  H   H733      1.0  0.61281  0.92080  0.82931  1.0000
  H   H734      1.0  0.94138  0.67271  0.91385  1.0000
  H   H735      1.0  0.77497  0.71528  0.71521  1.0000
  C   C927      1.0  0.65746  0.87740  0.79855  1.0000
  C   C928      1.0  0.70508  0.66456  0.90690  1.0000
  H   H736      1.0  0.53041  0.69391  0.90055  1.0000
  H   H737      1.0  0.61716  0.79631  0.76927  1.0000
  H   H738      1.0  0.63705  0.78872  0.82260  1.0000
  H   H739      1.0  0.60216  0.73382  0.85314  1.0000
  H   H740      1.0  0.65367  0.65355  0.91706  1.0000
  H   H741      1.0  0.52576  0.69274  0.77595  1.0000
  C   C929      1.0  0.57692  0.91473  0.90808  1.0000
  P   P32       1.0  0.60406  0.87597  0.88499  1.0000
  C   C930      1.0  0.62939  0.85343  0.97380  1.0000
  H   H742      1.0  0.95504  0.72518  0.96869  1.0000
  C   C931      1.0  0.51791  0.75472  0.73521  1.0000
  C   C932      1.0  0.86888  0.73392  0.90439  1.0000
  C   C933      1.0  0.50915  0.69434  0.68614  1.0000
  H   H743      1.0  0.80226  0.74310  0.92665  1.0000
  C   C934      1.0  0.93493  0.65644  0.93544  1.0000
  H   H744      1.0  0.60324  0.82572  0.92865  1.0000
  C   C935      1.0  0.74477  0.71756  0.87690  1.0000
  H   H745      1.0  0.54314  0.75123  0.85510  1.0000
  H   H746      1.0  0.92157  0.51075  0.97922  1.0000
  C   C936      1.0  0.62639  0.85031  0.70485  1.0000
  C   C937      1.0  0.49492  0.74018  0.76308  1.0000
  H   H747      1.0  0.73670  0.68614  0.97368  1.0000
  H   H748      1.0  0.60412  0.85160  0.81470  1.0000
  C   C938      1.0  0.52002  0.65124  0.66409  1.0000
  C   C939      1.0  0.58914  0.78766  0.70808  1.0000
  H   H749      1.0  0.49250  0.70418  0.68718  1.0000
  H   H750      1.0  0.59856  0.96471  0.82477  1.0000
  H   H751      1.0  0.71259  0.90739  0.78882  1.0000
  C   C940      1.0  0.63813  0.91164  0.94417  1.0000
  C   C941      1.0  0.73779  0.68747  0.89239  1.0000
  C   C942      1.0  0.54023  0.77237  0.86243  1.0000
  H   H752      1.0  0.65289  0.73690  0.96619  1.0000
  H   H753      1.0  0.70014  0.64180  0.91940  1.0000
  H   H754      1.0  0.50924  0.76839  0.97729  1.0000
  H   H755      1.0  0.75749  0.68157  0.89341  1.0000
  C   C943      1.0  0.67308  0.90907  0.86281  1.0000
  H   H756      1.0  0.84527  0.73520  0.95222  1.0000
  C   C944      1.0  0.60046  0.92568  0.85069  1.0000
  C   C945      1.0  0.68542  0.70059  0.88961  1.0000
  H   H757      1.0  0.54655  0.68586  0.82973  1.0000
  H   H758      1.0  0.55687  0.94530  0.92650  1.0000
  C   C946      1.0  0.74918  0.73845  0.97055  1.0000
  H   H759      1.0  0.52644  0.77926  0.68705  1.0000
  H   H760      1.0  0.86559  0.59891  0.98381  1.0000
  C   C947      1.0  0.95326  0.63651  0.98088  1.0000
  H   H761      1.0  0.56747  0.65747  0.67955  1.0000
  H   H762      1.0  0.72647  0.93486  0.84620  1.0000
  C   C948      1.0  0.96127  0.65701  0.95245  1.0000
  C   C949      1.0  0.49902  0.66451  0.66650  1.0000
  C   C950      1.0  0.56115  0.69730  0.70147  1.0000
  C   C951      1.0  0.56886  0.93968  0.90526  1.0000
  C   C952      1.0  0.49185  0.70267  0.92225  1.0000
  H   H763      1.0  0.57082  0.90107  0.93156  1.0000
  C   C953      1.0  0.65150  0.91452  0.97608  1.0000
  C   C954      1.0  0.69191  0.90117  0.80709  1.0000
  C   C955      1.0  0.75535  0.71301  0.97996  1.0000
  C   C956      1.0  0.77316  0.77344  0.97821  1.0000
  C   C957      1.0  0.64720  0.88544  0.99086  1.0000
  H   H764      1.0  0.57070  0.97726  0.87322  1.0000
  C   C958      1.0  0.55105  0.66760  0.68160  1.0000
  H   H765      1.0  0.94452  0.57134  0.96559  1.0000
  H   H766      1.0  0.62681  0.83106  0.98487  1.0000
  C   C959      1.0  0.98233  0.73831  0.97394  1.0000
  H   H767      1.0  0.73953  0.59577  0.66705  1.0000
  C   C960      1.0  0.89230  0.61498  0.97487  1.0000
  H   H768      1.0  0.66857  0.86981  0.66801  1.0000
