data_image0
_chemical_formula_structural       SC2FeS2FeS2FeSFeS3CHPCFeH2FeHSFeS3Fe2S2FeS2FeSFeS3HSHCSC2SFeSC2FeHSHCFe2C2SC3HC2H3C2HCH2C7H4C6HC2HC6H3PHCFeH2C7H2CH2CH2C6H4C6H4C6HCH2CHCH4CHC2SC8PHC3HC3SCHCPH5C2SC2HSCH2C2H2C2H2CHC7HCH2C3H5SH2CH2CH2CH2FeHFeHC2HCFeCH2CHC5PHCHCH3SC2HC2HCFeSCH5CSH2CH2C5H2C2HC2SHC2H4SCHCH4C4HC2H2CHS2FeSCSCHC2H2CHPC17H2C2H2CH2SC2H6C2HC2H2C4HC2SCH4CH5CPH2CHFeHCHPC3HCHC12HC2H2C2HC2H6CH3C6PC18H18SHC2H3C3H2C2SHCH2C3H3C4H2CH2C2H3C2H4CSC3HPCH3CHC3HC2H2CH3CHSHC4H3C7HC2HPC2HCSHC7H2CH2C3SHCH4CHCH2CH2CH3CHC3HCH4C4HFeH3C2PCH3C2H2CSC2HCHSCH2CH3CSCFeSHFeSFeS2H3FeS2FeS2FeSFeS2H2FeSFeSCFeSFeS2C2FeSHFeSCH3CHCH3C2HCHC6H6CSC6H4C4HC4H2C6H4C2HC2H3FeHCFeCH2CFePHC2H2C3HC3SCHC2HC2FeHC2H2CHC4H3C2H2SCPCS2C2HC2H2CH2C8PC3HCHCHC4H6CH4C2H3FeHC4HCHC5HC5HC3H2C2HSCH2C2HC2HC3H3CH2C6HCFeS2CHC2SH2SH6C2HC3PC19SH15CH5FeC4HC2H3CH4CSCH2CHCH2CH2C6PC9HC8H2SH4CH2C2H9C2H3SC9SCHC2H4CHCH3CH8CH4CHC3HC2PCHC2HC8SH3CHSH4FeHCH4C2PC3PC16H3CH3C4HC2HCHC2HC5HCH2C2HSHCHCH6SC2H2CHC2H2FeS2C2HCHCFeHSFeCH2FeS3FeS2FeS2FeSFeS3FeSHCFeSCFeS2FeSFeS2HFeCSCH2C4HFeC6H4SHC2HC2H4CHC8H3C7H8C4H2CHC4H2CH2C2HC2SH2C6H5CH2CHCH2C7HSCFeCSH6C6H3CHCSC7HCFeHCHCH2CH3C2SH2CHC5HC2H3C2H3CHCH2CFeH5CSC2H3C2HCHCHPH2CHC4HC2SC6PC14H11C2H5C7H4CH2PH4C3H2C4H4C2PCHCPC6HC9PC4H3C7HC3H7C2SH7C2HC3H2CHPH2CHC3H2C2H2C5FeC3H5C5PC4FeCHC6HCHCHC3H5CH7CS2CHCH3CHC7HC2S2CH2CHCHC2H2CHC3HCSHC3SHC3H2C2H2C5H2CHP2HSC3HS2HFeCHC3H4C2HC2H4CH3C2HC3H2C2HCHCH5CHCHPC2H3C2HC3H2C2H3SC2FeH3CFeSHFeS2FeHFeS3CHCH2C2H3CSFeS2FeS2Fe2S3H3C3H2CHCHC3PHSC2H3C6H5CH2CH3CHCH4C2SCHC2H2CH4C6H4C4H2CH2C6H2C2HC2FeCH4SHCH2C5HSHCH2CHC2H2CHCHPHCHC2HSC4H2C2HC2HC2HCH2C3HC6HCPHCHC4H2PSHC3HC2HCHC2HC2HCPCHCHCH3CHCHC2H2SHC2HC6SC2HCHC5FeH2CH2C3HC3H9PH2C7PC16HCH16CH2CH2CHC2HCHCH2SC8PHC4SHCH3CSCH2CH2CH2C2H3C4HC3PCSHCHCHCHC8HC2HC2H2CHC2HPC3HCH5C2HC2H2CH2CHC2H3C4HC3HC2HC5H2CH2CH3C5HCHC2HCHC2HCPCHC2H2CHCHCH3CHC2HFeCHC3HCH2C5SH3FeS2FeS2FeSFeS2CH2FeS2FeSHCS2FeS2FeS2FeSFeS3FeS2FeS2FeSFeS3H2FeS2FeSFeS3CHSC6H4C8H4C2HC2H2C6H4C6H7C13H4C6H5C4HC2HSC3HC5HC8HC2HCH2C4HCHCSCHCH2C3H2C8H4CH7C2H2C2FeHC2PHC9HC7H2C2H5C4H2CH6SH2CHCH2CHSC2H2C8H2CHCH7FeCHC3H2C3HCH7C2HCH3C3PH4C3FeH4CH2CHC6HC2H2C4HC2H2C2H2PC15H9CH2FeC5PHCHCHC2HCFePHC3H2PS2H2C4H5C2HC2H5C5H2CHC2HC3H2C2HC6PC9PCPC6H7CH5CH9C2SCHCSCHCHCH3C4HC4H4CH4C3H2C2H4C2H3CH2C2HC3HC2H2SH3C2PC18SH17C3H3C4PC11HC3H9C2H2CHCH2C2H4C2HSC2H2C10H2CH2CHCHC2H2CH3C2HC3HC2HCHC3HPC2HC2SHCHCSH3CHCH4FeHC2HCFe2HCHC4HC2SCSCHCHCFeS2FeSHSFe2S2CFeS3FeCHCFeS2FeSCFeSFeS2FeS2FeS2FeCFeS3FeS2HSC2H2SFeCSHSHC3PSFeS2C7H4CH2C6H5CHC3HCHC6H8C3HCH2CH2CPC2HCHC3HC3H3C6H4C6H3C2HC4H2C6H5C6H5SC2HCHC2HCHC4H6CHC2HSH2C6PC6H2C8H6CH2C3H5SCHCHPCH6CHPCHCH2C11H2C3H2C2H3C2HC4FeC4H5CH4C3HCPH4C4H3C2HCH4C3SH3CH2C3HC6HCHC3H4CH4C2PC14SH4CH10SH2PCHCHC3HCFe2HCSHC7H3SC4SCHC2HCH2CHCHCSC2H2C3FeCHCFeCHCFeH2FeCHCH2CHPHC3HCHCH3CH2C4H2CSC2H3CH2FeC3H2C3HCFeHCSCH2CSH2CH2SHCH2C2HCH4CS4H3C8HC8HCHC2HCH2CH5FeC3HC2SHC2HCH2C2H2C2HCH2SC4HCHCFeC2S2C2SHSPCSHSHFeS2FeS2FeSFeS3C2FeSCFeS2HC2H7C2SHC4H5CH2CHC2HC2HC6H4C3H2C2HCH2CH2CH2C3HC3HC2Fe2HCHC2H3C6H3SFeC2H6CH2CHC2PHCHC2HCSHC2H3C3FeH3C3H2C3HPCH2C3H2C2PC13HCHCH3CH4C2H7CHCHS2CHC5HCH2C3H2CH6C2FeH2C2HCHC2H2FeHC3FeHC3SCH3CH2C5HC2H2C3H3SC2FeCHC3SCHC3H2SCSH6C3PC3HSCH2C7HCHC3H6CH4PC12HSH3SH2CH3C4HC2H2CHCH2CHCH2CH3SC2HCHC3HC5H2CHCHC3HCHC2HC2HCFeCHCH3C2HCHSCFeS2FeSFeSFeS3FeS2CSCFeSHSCFeS2FeCSH4S2CSH2CH2SH2C2HC2HCH2C6H4C6H4C6H4C8H2C5H4C3HC3H4CHCH4SHC3HCHCH2C3H4C4HCHC2HC2H2C2HC7H2C8HC4FeC2H3CHC2PHCH2CHC2HC2PHC2PH2C3HPHC4H2C4HCHC2H4C3HCH5C4HC6HCH8C2HCH2C2H2C2HCH5C3H2CFeSCHCHC2HC2HC3HC3PC16H7CH5C9HCHCH2CHC7PCH3CSCHC2HCHC2H2C7PCHCH2SC2H2C4SPH5FeCH6PH4CSHCH2C2H2CHC5H2C9H5CH2CH2CH2CHCH2CHC2HCH3CH4C2HFeH2CSC4H3FeS2FeS2FeSFeS3HC6HFeHSHSCSCFeSH2S2FeS2FeS2Fe2S3CFeHC2H3CHSH2CFeSH2C2H2CHFeHC3HC2H2CHC7H4CHC2H3CH2C4FeHCHSCSC3H2SCHC7H4C6HCHCHCSH7C4H4CHC2HCPCH4C11PC2HC5H3CH2C3HCSC2FeHC4HCH3C2HC4PC8SHCHC6H10CH4C4H4C3PC5HCHCH3C3HCH2PH3CH3CSHCH2CH3CHCH2C3PH3CH4C6PCH4CH6SC2HC2HCH5C4H4CHPC3HCHC5HC2HFeHC4HC3HC9H3C3HPHCHCH5C2FePC7PC7HCFeH2C6H12C2H6CHC4H3C3H2C7HC5HC2H2C2HC5FeH3CHCHC2SHCH3CH2C2HC2HCSCH2C2SC2HCFeCHCH3CHCHC4HC5SHC2HCH3CHCH4C5HC3HPCHCH3C2SC4H4C3H2C3H2CH2FeS2FeS2FeSFeS3FeC3FeS2FeS2FeSFeS3HC6H4C4H3C4H3C6HCH2C6H2PHC6H2C7H3C7H2CHCHC3HC3SH3CSCHCH4C2H3C2H3CHCH2C2SC4HC4H2C2HC3SC2H3PH2CH3CH5CH4C7HSC4H2CHCHC3HCH2C2H2CH2C2H2C2HC2HCHCHC2H3CH2SCHCH2PCH2C6PC4HC4SHC7H6CH4CH7SHCHCH2C7HCHC2HC2HC2HCH2C2H5C3H3Fe2H2CHCH2PC3PC6H2C6H2FeHCSCH12C3H2CPC13HCHC5H9CH4CHFeH5CHCS2HCHC4H4C6PC12H6C4HCH2C2H2CH2C3HCFeS2FeS2FeSFeS3FeS2FeS2FeSFeCS2H2CFeCH2CH3CHC2SCHCHCFeC2HS2H2SH4CHFeHC6FeC5H6CHC8H2CH2C4H2C3H2C7H2C3H3C5S2HC2HC6HCH4CHC3H2C3HSHCHCHCHC2H3C2HC2H3C3HC2HCHSC2H2C2H3C2PHCHCHC8FeHCHCHCHCHSCH2C2H5CH3C3H4C4HC4HCHC3HC2HC2H2C5H2SC3H5C2H4C2SCHC2H2C2HC2PC4H4PHC7H4C6HC2HC2H3C2H2SH5S2H2CHPC5HC12HCH6C2H11CHCPC3H2CHC7HCH4C9PC17H16CHC3HC2HCHC3H3CSP2CHCHC4HC3H2C2HC2HCH3CHPCH4CHC2HCPH6CHFeH4C2HC2FeH2C4HC2FeS2FeSFeSHSFeCSFeS2CHCS2HCH4CFeS2CFeC2H3C2SFeHSFeS2HFeS3HC2H2C2H4CHCSCHC3FeHC2FeC4H4CHC6H6C2H2C2HSC5H2C6H4C6H2C9H4C7HCH2CHC6PC5HC2H2C8H5C2H4C2H7SHPH2SCHC6PC3H2CHCH2CH3CHC2HC6PC14H3CH16C3HSHC3H3SHC2HC3HC8PC8HC9H20C3PC9H4CH4PC4HPC5FeHC5HC2H3CH3CFeH4SC3HCH2C2HCHFeCHC3HC3FeC3HCH3PHCH7C2HSCHCH2C4HS2HC4HSHC7HC6SHC2HC2H3CHCFeH2C2SHCH2C2PCHCSHCHCSC2H3CHC2HCHC2HCHCHCHC2HSC2HC2HCHC2H2CHCH3CH2C2HC3HC3HSCH2FeH3FeCSC2HSHCH2C2HCH2C2HC2HCH3CHS2CHCHC2H2CHCHCFeC5H3CH2CH4C2HCH2CHCPHCHFeHSFeS2C2FeS2FeS2Fe2S3FeS2FeS2FeSFeHS2H2SCFeSPCHC3HCH2CPHCH2FeSCHCHCH3C2HSFeHCHCSH2C3SHFeCHC6H3C8H5C8H9CHC2HCH2C8H4C6H7PSCHCH2C2PCH2C3SC3HCHCH2FeC5SHCH2PH2C2H3CHCH2CH2CHCH2C3SHCHFeHC2H2C2HCHC2HC2SC3H2CHSC4H2SCH3C2H4C4H2C2HCHC2HC3H4CHCHSCH2C2H4CHFeC2HCH3CHC2H3C8HC4H3CHC2H3C2HCH3CHCH3C5HC5H2C2HC4SHC4HC3HC4HC5HCH2C4SH4CPC2HC3H2C2HCHCH2CHCSCHCH3C2HC4PC5HCH3CFeHC3HC2SHCHPHCSHC4H4CHC6HCFeS2FeS2FeSFeCS2FeS3FeHFeS2CFe2S2CHSCHC2HFeH3SHSCSC2HSHC2HC6H6C3HSCHC3H5C2HC12H2C6H4CHCH2SCHC2H3CHCHCHC7H5C2H5C2HC6H2FeH4C5H2CH4C5H3C3HCHCSHFeHS3HS2CFeC5H2CH2CH2C4HSH2SCH2CH2PC3HCHCH2C3HCHC2HC2HCHC6PSC3HC2H2CHCHCH3CH4CH4C4H4CHCH2SHC7PC4HC3HC5H2CH3C3H5C2HFeHC2H3FeCH2CFeSC6HC2HCHFeH2C2HC5SC6PCHCH3CH3CH2FeC3H6PCH3C2H3C2H2C4HCH3CH2C6HPHC3H2CHCH4CH2SCFeS2FeSFeSFeS2HFeS2HSFeCH2CHSHC2H4FeS2FeS2FeHFeS3FeHSCHCHCS2C2HCH2C6H4SC5H3C3SHCHC2H5C6H4C6H4C6H4C3HC2HCHCHC2HC2HCPHCH2CH3C2H4C3HCHC2HC9PCH6CHCHC11HPC3HCFeH5C3SCSC2HCH3C2HC2HC4HCHCS2CH2C2H3C2HCH3CH2C3H2C3H4CH3PC3FeHCH2CHCHC2SH4C6PC3H2C10HC3HCHCH4CH5CHC7H8C2H2C8HC2HC2H12CH2C2H3C3HC4SC2HCH3CH2C5HC4H4C2HCHCH2C2HFeC3HCHSH2C2H2SC3HCHCHC2HCHC2HC7PCHPH2CHCHC5H5C5PC2H3C6PC18H11C3HCH2CH2C2HCH3CH3CHCH2CHC2HCH2CHC5HCH4C2SFeS2FeSFeS3PFeSFeS2FeSFeS3FeS2FeS2FeSFeS3CSCSHS2FeSC2HCH3SHCHC2HFeSHSC3HFeHCFeS2H2CHCSC7H4C2HC2HCHCHCSHCSCHPCH2C4HCHCFeCHC3H3C4H4C8H4C6H4C6H6C2H2SCH2C6H4C6HSH2S2C2H2CH3C2H2C2HC7PC10HC5H3CFeH3CH3CH3C2HCHC2HCH2FeHCS2H3C2P2C4PHC3HC2HCH4C2H9CHCHSC3HC3PC9H2C3SC3HFeCH7C3H3CH3C3HC7H4C3H2FeC7PC14HCH16CH2C6HFeCHC6PC19H12CH2SH6CH2C3HCH3FeSCH3C7PC3HC14H6C2H9CH2CH7CFeSH2C4H4CH2FeCHC2PHCHCHC2SHCHC2HCH2SHCH3CHCSC7HC2HC2HC2H3C2H2C2HCHC2H2C5HFeCHCHC2H3C2HCFeC3H2CH2FeCSH2CHC3HCHCSC3HC5SC2HCH2C2HC4H4PSH4C2HC2FeS4FeHFeSH2CFeS2FeSFeSHSFeSC2HFeS3HFeS2CHC2FeS2CFeH2S2C6H5CSCH2C3HCHFeH3C2S2CHPSHSC7H4FeC3H2C4H2C6H4C3HC9H2CH4C2HC2SHCH4CH6SHCH2CFeSHC2H2CPC7HC3HCS2H4C2H2SC2H3C4H3CH2C2FeC2HC2HCPC2HC5PC7H2CHC2HCH3CH2CH4SHC7H2C6H3SHC4HC2H3C3HFeHC2H2CHFeH2SC2HC4H2FeC3PHCHC3HCHC2HC3HCHFeC2H2CH3CFeH2CH5CH3FeCHSHCH2PSC6H2CHCHCFeC2HC2HFeHC2H2PH3C4HCHC2HSHC8H2C2H7CH2SHCH2C4HCPHC2H2C8H4C2HC2H3CSFeSCFeSFeSC2SFeS2FeS2FeSFeS3CSHCS2FeS3C2HFeSFeS3HC3H5C2SFeH2CHCH5C8HCH2CHCPCHC2HCHSC4H3C7H4C6H4C6H4C3H2C2FeC6H4CSHC3HCH2SC4HC2HC3HFeHCHSCH2C6PC4HC11HCH8CH7C2H3SC4HCH2CHCH3CHSHPHFeCHSC4HC2FeHC2H2CH2SH2C2HC2HC2HCPHC5FeHC4H2C2HC2HCH2CHC2HCH3CHC8SC2HCHC2H6C2H2C4H2CHC3HC2HCHSHC3H7C3H5C5H2C3HPCHSCHCHC5HC4SC4HCHC2H4C4H3CHC3HC5H4C2HCHSHFeHCSCHC4H2C4H2CSCHC2HCH2C4H2CH2C2HCHFeHC4HCHCH2C4HC2HC5HCH2C3HC2SPSC6PC5HC12H5CH7CPH2FeHC5H2SCHSC3HPH2CSCPCHCHCH2C2HC2HCH2FeCFeC3H4C2HCH2CH6C3SCH2CH3C2PC3H8CH3CHCH2C2HC2H2FeS3H2FeS2FeS2H3FeS2FeHSFeSCHS2H2SC3SCHCHSC3HC2H3SCH2CH5FeS2C3FeCHCS3H2C4SCHPC2HFeHC4HC2HCHC4HSHC2HSH2CHCH4CHC3H3C2HCH3CHCHCHC3FeHSC2FeHC3HC7H2C5H2C6H6C5FeC2H3CHCHC2H2CHC3H3CSHC2HC3HSC2HC2H2SCH3SCHC8PC2SHCHC2HC5H2C2H3CH4CHCHC7PC18H11CH7CH2CH2FeC2PC8HC9HCH9CH2CH2CHC5PC8H3C7SCH2CH6C3H6C6PC5PCHC2H9FeSHCHCHC5PCSH2CSC7HCHC2H4C2H2FeH3C2FeC2HCHCH2CHCFeH4CHC2H4C3H3CHC6SHCPCSHCHCHC7H3C2HC6SH4C2H3CHCHSC2H2C2HCH3FeS2FeS2FeSFeS3H2CH2C2H3C2FeHS2CFeSFeS2FeHFeS3CSC3HCH2S3H6C3HC2HC2PHCH3CH5CHC7HC6H5C3HCHC6H2CHPCH2C3H2C6H4C4HCH4CHC3HCHSC2H2SC2H6C2HSHCHSC2HCHC2HC5HC2HCHCPC13H2CSCH4CHCHC4PC18HCH19CHSC4HPHCH2CHCHC7PC5HC12H7C2H8CH2CHC3H3SPH4C2HCH2C2PC2HCSHC2HC3HC3HSC5HCSHC2H4CHSC4H4C2HC4H5C4H2CHCH4CSCHCHC3H4C3HC2SC3H2CHSC2HCSC2H2C6SHCH4C3H2C2SCSCFeHFe2SCH5CSC3FeH2C3H2C2H2CHC3HCFeC2HC2FeHCH2C2PHFeHCH4FeC2SC3HC2HCHCFeHCH4CSCH5C2H2CH2CHFeHCH2C3HC3H3CHCHCH2C6HCHCHC10H2CH2C2FeHC3HCH3C2SHC3HSC2H2CH2C3PH
_chemical_formula_sum              "S768 C5760 Fe384 H4608 P192"
_cell_length_a       69.2462
_cell_length_b       70.2422
_cell_length_c       70.865
_cell_angle_alpha    75.8694
_cell_angle_beta     75.1093
_cell_angle_gamma    75.9057

_space_group_name_H-M_alt    "P 1"
_space_group_IT_number       1

loop_
  _space_group_symop_operation_xyz
  'x, y, z'

loop_
  _atom_site_type_symbol
  _atom_site_label
  _atom_site_symmetry_multiplicity
  _atom_site_fract_x
  _atom_site_fract_y
  _atom_site_fract_z
  _atom_site_occupancy
  S   S1        1.0  0.28725  0.98807  0.29207  1.0000
  C   C1        1.0  0.15690  0.16119  0.98026  1.0000
  C   C2        1.0  0.06551  0.15508  0.02645  1.0000
  Fe  Fe1       1.0  0.38499  0.08529  0.34868  1.0000
  S   S2        1.0  0.40806  0.06834  0.36702  1.0000
  S   S3        1.0  0.39165  0.08412  0.31603  1.0000
  Fe  Fe2       1.0  0.35673  0.10313  0.38322  1.0000
  S   S4        1.0  0.37709  0.08750  0.40439  1.0000
  S   S5        1.0  0.32778  0.12363  0.39405  1.0000
  Fe  Fe3       1.0  0.40235  0.09646  0.37924  1.0000
  S   S6        1.0  0.42877  0.10804  0.38289  1.0000
  Fe  Fe4       1.0  0.38077  0.06109  0.39038  1.0000
  S   S7        1.0  0.37622  0.03110  0.40897  1.0000
  S   S8        1.0  0.38160  0.11418  0.35879  1.0000
  S   S9        1.0  0.35811  0.07607  0.37117  1.0000
  C   C3        1.0  0.38488  0.99237  0.40447  1.0000
  H   H1        1.0  0.23471  0.04609  0.40121  1.0000
  P   P1        1.0  0.36549  0.07397  0.46695  1.0000
  C   C4        1.0  0.10043  0.01643  0.24661  1.0000
  Fe  Fe5       1.0  0.30314  0.00463  0.26345  1.0000
  H   H2        1.0  0.42204  0.04196  0.30790  1.0000
  H   H3        1.0  0.28729  0.00601  0.19616  1.0000
  Fe  Fe6       1.0  0.29035  0.01244  0.30603  1.0000
  H   H4        1.0  0.32310  0.98604  0.19771  1.0000
  S   S10       1.0  0.26356  0.02836  0.32576  1.0000
  Fe  Fe7       1.0  0.33362  0.01342  0.28435  1.0000
  S   S11       1.0  0.36153  0.02769  0.27627  1.0000
  S   S12       1.0  0.47194  0.00485  0.09814  1.0000
  S   S13       1.0  0.30381  0.03034  0.27678  1.0000
  Fe  Fe8       1.0  0.46695  0.06070  0.10049  1.0000
  Fe  Fe9       1.0  0.04700  0.10389  0.17850  1.0000
  S   S14       1.0  0.02080  0.10293  0.20500  1.0000
  S   S15       1.0  0.04002  0.12152  0.14883  1.0000
  Fe  Fe10      1.0  0.07660  0.07504  0.20220  1.0000
  S   S16       1.0  0.05262  0.07175  0.23018  1.0000
  S   S17       1.0  0.10831  0.05923  0.20578  1.0000
  Fe  Fe11      1.0  0.03249  0.06970  0.21064  1.0000
  S   S18       1.0  0.01276  0.04584  0.22179  1.0000
  Fe  Fe12      1.0  0.04336  0.10508  0.22203  1.0000
  S   S19       1.0  0.03537  0.12470  0.24522  1.0000
  S   S20       1.0  0.05745  0.07038  0.18318  1.0000
  S   S21       1.0  0.06852  0.10870  0.19504  1.0000
  H   H5        1.0  0.31209  0.14389  0.43669  1.0000
  S   S22       1.0  0.08215  0.15218  0.32335  1.0000
  H   H6        1.0  0.04202  0.14525  0.42996  1.0000
  C   C5        1.0  0.32230  0.13083  0.44264  1.0000
  S   S23       1.0  0.12804  0.16344  0.30883  1.0000
  C   C6        1.0  0.39320  0.04572  0.00621  1.0000
  C   C7        1.0  0.08946  0.00098  0.25417  1.0000
  S   S24       1.0  0.10531  0.15540  0.26584  1.0000
  Fe  Fe13      1.0  0.10744  0.15256  0.33771  1.0000
  S   S25       1.0  0.11896  0.12556  0.35951  1.0000
  C   C8        1.0  0.23770  0.05735  0.38786  1.0000
  C   C9        1.0  0.42626  0.01456  0.20274  1.0000
  Fe  Fe14      1.0  0.26457  0.04348  0.45313  1.0000
  H   H7        1.0  0.42431  0.15356  0.98932  1.0000
  S   S26       1.0  0.25930  0.07711  0.44843  1.0000
  H   H8        1.0  0.01413  0.05780  0.17916  1.0000
  C   C10       1.0  0.07805  0.01547  0.20322  1.0000
  Fe  Fe15      1.0  0.35416  0.00277  0.99189  1.0000
  Fe  Fe16      1.0  0.25638  0.00863  0.43968  1.0000
  C   C11       1.0  0.04260  0.99267  0.12808  1.0000
  C   C12       1.0  0.39701  0.01740  0.13458  1.0000
  S   S27       1.0  0.28324  0.02367  0.43178  1.0000
  C   C13       1.0  0.48168  0.02960  0.99355  1.0000
  C   C14       1.0  0.10908  0.12385  0.38526  1.0000
  C   C15       1.0  0.10062  0.14082  0.39383  1.0000
  H   H9        1.0  0.43025  0.06881  0.18842  1.0000
  C   C16       1.0  0.10303  0.10274  0.41811  1.0000
  C   C17       1.0  0.11042  0.10485  0.39751  1.0000
  H   H10       1.0  0.11698  0.09169  0.39098  1.0000
  H   H11       1.0  0.32096  0.08514  0.47225  1.0000
  H   H12       1.0  0.34943  0.14213  0.42677  1.0000
  C   C18       1.0  0.35404  0.01262  0.10508  1.0000
  C   C19       1.0  0.42573  0.99248  0.38646  1.0000
  H   H13       1.0  0.45579  0.05554  0.33798  1.0000
  C   C20       1.0  0.42664  0.06201  0.42227  1.0000
  H   H14       1.0  0.01525  0.11748  0.39693  1.0000
  H   H15       1.0  0.40039  0.09423  0.45295  1.0000
  C   C21       1.0  0.08678  0.15124  0.02357  1.0000
  C   C22       1.0  0.05542  0.13118  0.25217  1.0000
  C   C23       1.0  0.05130  0.13982  0.26906  1.0000
  C   C24       1.0  0.06661  0.14671  0.27387  1.0000
  C   C25       1.0  0.08621  0.14484  0.26190  1.0000
  C   C26       1.0  0.09053  0.13525  0.24569  1.0000
  C   C27       1.0  0.07524  0.12859  0.24071  1.0000
  H   H16       1.0  0.03623  0.14127  0.27842  1.0000
  H   H17       1.0  0.06317  0.15380  0.28659  1.0000
  H   H18       1.0  0.10586  0.13281  0.23704  1.0000
  H   H19       1.0  0.07882  0.12157  0.22794  1.0000
  C   C28       1.0  0.25903  0.01957  0.35168  1.0000
  C   C29       1.0  0.27449  0.01480  0.36254  1.0000
  C   C30       1.0  0.26981  0.00858  0.38343  1.0000
  C   C31       1.0  0.24987  0.00642  0.39322  1.0000
  C   C32       1.0  0.23475  0.01061  0.38219  1.0000
  C   C33       1.0  0.23916  0.01773  0.36164  1.0000
  H   H20       1.0  0.28988  0.01616  0.35489  1.0000
  C   C34       1.0  0.39890  0.00205  0.04438  1.0000
  C   C35       1.0  0.41107  0.01408  0.22008  1.0000
  H   H21       1.0  0.22721  0.02136  0.35333  1.0000
  C   C36       1.0  0.14926  0.01876  0.16374  1.0000
  C   C37       1.0  0.12891  0.02641  0.16225  1.0000
  C   C38       1.0  0.11618  0.03908  0.17488  1.0000
  C   C39       1.0  0.12374  0.04382  0.18930  1.0000
  C   C40       1.0  0.14404  0.03596  0.19091  1.0000
  C   C41       1.0  0.15675  0.02336  0.17824  1.0000
  H   H22       1.0  0.12301  0.02247  0.15134  1.0000
  H   H23       1.0  0.10058  0.04511  0.17350  1.0000
  H   H24       1.0  0.48301  0.03690  0.31505  1.0000
  P   P2        1.0  0.43574  0.07444  0.01220  1.0000
  H   H25       1.0  0.02911  0.14434  0.20137  1.0000
  C   C42       1.0  0.48636  0.03418  0.19969  1.0000
  Fe  Fe17      1.0  0.19488  0.98664  0.15540  1.0000
  H   H26       1.0  0.23328  0.07841  0.41870  1.0000
  H   H27       1.0  0.49348  0.16564  0.35193  1.0000
  C   C43       1.0  0.31677  0.04313  0.35473  1.0000
  C   C44       1.0  0.49244  0.16556  0.07107  1.0000
  C   C45       1.0  0.07815  0.16135  0.12898  1.0000
  C   C46       1.0  0.06918  0.14496  0.13993  1.0000
  C   C47       1.0  0.05209  0.14160  0.13515  1.0000
  C   C48       1.0  0.04419  0.15459  0.11924  1.0000
  C   C49       1.0  0.32754  0.09744  0.46247  1.0000
  H   H28       1.0  0.09139  0.16388  0.13273  1.0000
  H   H29       1.0  0.07542  0.13499  0.15209  1.0000
  C   C50       1.0  0.49094  0.16070  0.00513  1.0000
  H   H30       1.0  0.01003  0.99780  0.13058  1.0000
  H   H31       1.0  0.18185  0.12671  0.41608  1.0000
  C   C51       1.0  0.20606  0.10114  0.41805  1.0000
  H   H32       1.0  0.99924  0.17937  0.37910  1.0000
  H   H33       1.0  0.26530  0.98754  0.25885  1.0000
  C   C52       1.0  0.38162  0.06857  0.30625  1.0000
  C   C53       1.0  0.36712  0.05701  0.31763  1.0000
  C   C54       1.0  0.36028  0.04455  0.30873  1.0000
  C   C55       1.0  0.36805  0.04363  0.28854  1.0000
  C   C56       1.0  0.38239  0.05528  0.27739  1.0000
  C   C57       1.0  0.38903  0.06768  0.28611  1.0000
  H   H34       1.0  0.36130  0.05752  0.33324  1.0000
  H   H35       1.0  0.34933  0.03546  0.31747  1.0000
  H   H36       1.0  0.38840  0.05481  0.26182  1.0000
  H   H37       1.0  0.40020  0.07649  0.27720  1.0000
  C   C58       1.0  0.30932  0.11021  0.40961  1.0000
  C   C59       1.0  0.28961  0.12062  0.41586  1.0000
  C   C60       1.0  0.27461  0.11029  0.42821  1.0000
  C   C61       1.0  0.27906  0.08945  0.43407  1.0000
  C   C62       1.0  0.29886  0.07901  0.42819  1.0000
  C   C63       1.0  0.31405  0.08941  0.41599  1.0000
  H   H38       1.0  0.28590  0.13666  0.41106  1.0000
  H   H39       1.0  0.25935  0.11843  0.43286  1.0000
  H   H40       1.0  0.30242  0.06295  0.43301  1.0000
  H   H41       1.0  0.32936  0.08134  0.41150  1.0000
  C   C64       1.0  0.41661  0.15671  0.41999  1.0000
  C   C65       1.0  0.09399  0.13870  0.41464  1.0000
  C   C66       1.0  0.48793  0.11787  0.24153  1.0000
  C   C67       1.0  0.42359  0.12674  0.39733  1.0000
  C   C68       1.0  0.40371  0.13460  0.40638  1.0000
  C   C69       1.0  0.40025  0.14946  0.41779  1.0000
  H   H42       1.0  0.36911  0.99235  0.41169  1.0000
  C   C70       1.0  0.46799  0.06267  0.32825  1.0000
  H   H43       1.0  0.39103  0.12928  0.40453  1.0000
  H   H44       1.0  0.38486  0.15550  0.42473  1.0000
  C   C71       1.0  0.34787  0.00195  0.07748  1.0000
  H   H45       1.0  0.45525  0.12769  0.39323  1.0000
  C   C72       1.0  0.03408  0.15928  0.39275  1.0000
  H   H46       1.0  0.10740  0.18136  0.97739  1.0000
  H   H47       1.0  0.33797  0.02549  0.05416  1.0000
  H   H48       1.0  0.41670  0.03619  0.41950  1.0000
  H   H49       1.0  0.15007  0.10793  0.06547  1.0000
  C   C73       1.0  0.41246  0.06923  0.00910  1.0000
  H   H50       1.0  0.41685  0.10965  0.98543  1.0000
  C   C74       1.0  0.48104  0.17885  0.99528  1.0000
  C   C75       1.0  0.21122  0.13491  0.40231  1.0000
  S   S28       1.0  0.46177  0.09361  0.10101  1.0000
  C   C76       1.0  0.06066  0.01655  0.19619  1.0000
  C   C77       1.0  0.27692  0.13729  0.35652  1.0000
  C   C78       1.0  0.45326  0.13545  0.28855  1.0000
  C   C79       1.0  0.43783  0.12508  0.29955  1.0000
  C   C80       1.0  0.43069  0.12539  0.31978  1.0000
  C   C81       1.0  0.43907  0.13586  0.32910  1.0000
  C   C82       1.0  0.45497  0.14587  0.31829  1.0000
  C   C83       1.0  0.46179  0.14587  0.29782  1.0000
  P   P3        1.0  0.46542  0.15936  0.33078  1.0000
  H   H51       1.0  0.39734  0.14692  0.01951  1.0000
  C   C84       1.0  0.45966  0.03990  0.02982  1.0000
  C   C85       1.0  0.09735  0.16716  0.01747  1.0000
  C   C86       1.0  0.40117  0.01519  0.05549  1.0000
  H   H52       1.0  0.08819  0.15166  0.42140  1.0000
  C   C87       1.0  0.48333  0.17370  0.31358  1.0000
  C   C88       1.0  0.04478  0.12255  0.37999  1.0000
  C   C89       1.0  0.33268  0.03461  0.46279  1.0000
  S   S29       1.0  0.41196  0.17573  0.43390  1.0000
  C   C90       1.0  0.39444  0.08377  0.01074  1.0000
  H   H53       1.0  0.37627  0.11878  0.97926  1.0000
  C   C91       1.0  0.13582  0.16722  0.98692  1.0000
  P   P4        1.0  0.47716  0.14704  0.02737  1.0000
  H   H54       1.0  0.45848  0.13549  0.27279  1.0000
  H   H55       1.0  0.43123  0.11693  0.29243  1.0000
  H   H56       1.0  0.41866  0.11741  0.32825  1.0000
  H   H57       1.0  0.43316  0.13609  0.34480  1.0000
  H   H58       1.0  0.47345  0.15402  0.28888  1.0000
  C   C92       1.0  0.02261  0.99127  0.13809  1.0000
  C   C93       1.0  0.42839  0.01101  0.30505  1.0000
  S   S30       1.0  0.32027  0.99697  0.31447  1.0000
  C   C94       1.0  0.41381  0.00261  0.13854  1.0000
  C   C95       1.0  0.37559  0.06051  0.00699  1.0000
  H   H59       1.0  0.44161  0.99250  0.37966  1.0000
  S   S31       1.0  0.44190  0.04362  0.11532  1.0000
  C   C96       1.0  0.39493  0.05198  0.44087  1.0000
  H   H60       1.0  0.01311  0.15599  0.17196  1.0000
  H   H61       1.0  0.20316  0.08100  0.46241  1.0000
  C   C97       1.0  0.17062  0.06156  0.44793  1.0000
  C   C98       1.0  0.02441  0.15324  0.32196  1.0000
  H   H62       1.0  0.36649  0.03135  0.14611  1.0000
  H   H63       1.0  0.20229  0.16106  0.46585  1.0000
  C   C99       1.0  0.48952  0.13800  0.23711  1.0000
  C   C100      1.0  0.16406  0.06808  0.42979  1.0000
  H   H64       1.0  0.42610  0.00674  0.19135  1.0000
  H   H65       1.0  0.10790  0.99877  0.20612  1.0000
  C   C101      1.0  0.47946  0.14261  0.34857  1.0000
  H   H66       1.0  0.20497  0.16245  0.35365  1.0000
  C   C102      1.0  0.15651  0.10256  0.45831  1.0000
  C   C103      1.0  0.14117  0.11135  0.44741  1.0000
  C   C104      1.0  0.13764  0.13193  0.43980  1.0000
  C   C105      1.0  0.14858  0.14409  0.44391  1.0000
  C   C106      1.0  0.16295  0.13569  0.45577  1.0000
  C   C107      1.0  0.16704  0.11505  0.46284  1.0000
  C   C108      1.0  0.47532  0.02304  0.02953  1.0000
  H   H67       1.0  0.45612  0.09058  0.33825  1.0000
  C   C109      1.0  0.02575  0.12773  0.39222  1.0000
  H   H68       1.0  0.28417  0.18463  0.42280  1.0000
  H   H69       1.0  0.00955  0.01812  0.26215  1.0000
  C   C110      1.0  0.37757  0.00591  0.16760  1.0000
  C   C111      1.0  0.00825  0.98701  0.27436  1.0000
  C   C112      1.0  0.20285  0.16115  0.43525  1.0000
  H   H70       1.0  0.44045  0.05993  0.41095  1.0000
  H   H71       1.0  0.13149  0.10247  0.44517  1.0000
  H   H72       1.0  0.12596  0.13857  0.43123  1.0000
  H   H73       1.0  0.14540  0.16014  0.43855  1.0000
  H   H74       1.0  0.17045  0.14535  0.45998  1.0000
  S   S32       1.0  0.22206  0.99658  0.15893  1.0000
  H   H75       1.0  0.37271  0.11211  0.43937  1.0000
  H   H76       1.0  0.01581  0.16471  0.25753  1.0000
  C   C113      1.0  0.23232  0.12766  0.39813  1.0000
  H   H77       1.0  0.13516  0.12575  0.99776  1.0000
  H   H78       1.0  0.39436  0.09822  0.01363  1.0000
  C   C114      1.0  0.35209  0.05348  0.47289  1.0000
  H   H79       1.0  0.45398  0.16990  0.37085  1.0000
  H   H80       1.0  0.34580  0.02043  0.38922  1.0000
  C   C115      1.0  0.05936  0.00151  0.18706  1.0000
  H   H81       1.0  0.24276  0.13775  0.39102  1.0000
  H   H82       1.0  0.36144  0.05708  0.00604  1.0000
  Fe  Fe18      1.0  0.08542  0.14077  0.46850  1.0000
  H   H83       1.0  0.42481  0.03805  0.00697  1.0000
  Fe  Fe19      1.0  0.44867  0.03091  0.08759  1.0000
  H   H84       1.0  0.49847  0.00480  0.01129  1.0000
  C   C116      1.0  0.13482  0.13706  0.02371  1.0000
  C   C117      1.0  0.15098  0.09723  0.03920  1.0000
  H   H85       1.0  0.37795  0.17769  0.46653  1.0000
  C   C118      1.0  0.34874  0.03262  0.09590  1.0000
  Fe  Fe20      1.0  0.29134  0.00275  0.45935  1.0000
  C   C119      1.0  0.45498  0.10695  0.16411  1.0000
  H   H86       1.0  0.34036  0.01679  0.35689  1.0000
  H   H87       1.0  0.33883  0.05275  0.07042  1.0000
  C   C120      1.0  0.45197  0.14678  0.02471  1.0000
  H   H88       1.0  0.49751  0.02104  0.22687  1.0000
  C   C121      1.0  0.27811  0.99786  0.22804  1.0000
  C   C122      1.0  0.35381  0.99714  0.09587  1.0000
  C   C123      1.0  0.41707  0.14289  0.03981  1.0000
  C   C124      1.0  0.43666  0.14296  0.04170  1.0000
  C   C125      1.0  0.22707  0.09408  0.41382  1.0000
  P   P5        1.0  0.16108  0.07579  0.46773  1.0000
  H   H89       1.0  0.47691  0.08310  0.99675  1.0000
  C   C126      1.0  0.02187  0.17432  0.42967  1.0000
  H   H90       1.0  0.38859  0.02708  0.05945  1.0000
  C   C127      1.0  0.00565  0.17667  0.25006  1.0000
  H   H91       1.0  0.36230  0.09072  0.01063  1.0000
  H   H92       1.0  0.48675  0.09446  0.37419  1.0000
  H   H93       1.0  0.13597  0.14278  0.05213  1.0000
  S   S33       1.0  0.46994  0.17881  0.42964  1.0000
  C   C128      1.0  0.01467  0.16292  0.47133  1.0000
  C   C129      1.0  0.46820  0.08247  0.32836  1.0000
  H   H94       1.0  0.25646  0.10167  0.40045  1.0000
  C   C130      1.0  0.24016  0.10726  0.40362  1.0000
  C   C131      1.0  0.09863  0.15686  0.18106  1.0000
  H   H95       1.0  0.42714  0.09948  0.16259  1.0000
  C   C132      1.0  0.19814  0.12148  0.41239  1.0000
  Fe  Fe21      1.0  0.10147  0.16538  0.29501  1.0000
  S   S34       1.0  0.08613  0.11631  0.45271  1.0000
  C   C133      1.0  0.29066  0.10256  0.35353  1.0000
  H   H96       1.0  0.10386  0.08797  0.42739  1.0000
  H   H97       1.0  0.44915  0.15418  0.41261  1.0000
  H   H98       1.0  0.09484  0.13589  0.02611  1.0000
  H   H99       1.0  0.05734  0.14281  0.03111  1.0000
  H   H100      1.0  0.12311  0.17643  0.37681  1.0000
  C   C134      1.0  0.03310  0.15720  0.19026  1.0000
  S   S35       1.0  0.24292  0.99827  0.41914  1.0000
  H   H101      1.0  0.04319  0.18212  0.25190  1.0000
  H   H102      1.0  0.38468  0.00393  0.03986  1.0000
  C   C135      1.0  0.49209  0.15005  0.35649  1.0000
  H   H103      1.0  0.16611  0.06178  0.40098  1.0000
  H   H104      1.0  0.04559  0.00015  0.11263  1.0000
  C   C136      1.0  0.45791  0.18260  0.06931  1.0000
  C   C137      1.0  0.19188  0.03208  0.43578  1.0000
  C   C138      1.0  0.31441  0.11466  0.45530  1.0000
  C   C139      1.0  0.35118  0.98746  0.20509  1.0000
  C   C140      1.0  0.31024  0.10580  0.35217  1.0000
  H   H105      1.0  0.39466  0.99343  0.29626  1.0000
  H   H106      1.0  0.19104  0.02995  0.40624  1.0000
  C   C141      1.0  0.21768  0.17215  0.37382  1.0000
  C   C142      1.0  0.14660  0.10228  0.02021  1.0000
  H   H107      1.0  0.39896  0.00600  0.22226  1.0000
  C   C143      1.0  0.17134  0.05668  0.41488  1.0000
  C   C144      1.0  0.42778  0.15038  0.00397  1.0000
  S   S36       1.0  0.34630  0.03616  0.98173  1.0000
  H   H108      1.0  0.03821  0.17779  0.02552  1.0000
  C   C145      1.0  0.05306  0.15403  0.38033  1.0000
  C   C146      1.0  0.32240  0.04662  0.39133  1.0000
  H   H109      1.0  0.07920  0.02744  0.20986  1.0000
  H   H110      1.0  0.43991  0.13988  0.05645  1.0000
  H   H111      1.0  0.19597  0.09086  0.42588  1.0000
  H   H112      1.0  0.11862  0.12806  0.18115  1.0000
  S   S37       1.0  0.32410  0.98801  0.45813  1.0000
  C   C147      1.0  0.13162  0.17944  0.02521  1.0000
  H   H113      1.0  0.04912  0.10831  0.37519  1.0000
  C   C148      1.0  0.49645  0.10467  0.25683  1.0000
  H   H114      1.0  0.43227  0.08869  0.42795  1.0000
  H   H115      1.0  0.26968  0.05120  0.38681  1.0000
  H   H116      1.0  0.03523  0.13528  0.46632  1.0000
  H   H117      1.0  0.15005  0.03978  0.20187  1.0000
  C   C149      1.0  0.40758  0.02368  0.33419  1.0000
  C   C150      1.0  0.45522  0.05202  0.01198  1.0000
  C   C151      1.0  0.45868  0.17332  0.05370  1.0000
  C   C152      1.0  0.11476  0.14194  0.18658  1.0000
  H   H118      1.0  0.45720  0.09552  0.02899  1.0000
  C   C153      1.0  0.13104  0.99233  0.23743  1.0000
  C   C154      1.0  0.49315  0.15606  0.05567  1.0000
  H   H119      1.0  0.99894  0.04620  0.15683  1.0000
  H   H120      1.0  0.20643  0.06598  0.38499  1.0000
  C   C155      1.0  0.43084  0.08159  0.03605  1.0000
  H   H121      1.0  0.10846  0.17442  0.05209  1.0000
  S   S38       1.0  0.49154  0.03693  0.11197  1.0000
  S   S39       1.0  0.47158  0.05053  0.07164  1.0000
  Fe  Fe22      1.0  0.46685  0.01891  0.12467  1.0000
  S   S40       1.0  0.33436  0.98915  0.26828  1.0000
  C   C156      1.0  0.09493  0.11966  0.42674  1.0000
  S   S41       1.0  0.26573  0.98627  0.46584  1.0000
  C   C157      1.0  0.41941  0.01284  0.06180  1.0000
  H   H122      1.0  0.32477  0.04787  0.40546  1.0000
  C   C158      1.0  0.44003  0.09520  0.16976  1.0000
  C   C159      1.0  0.46672  0.09429  0.98853  1.0000
  H   H123      1.0  0.04825  0.02924  0.19752  1.0000
  H   H124      1.0  0.03587  0.14992  0.33086  1.0000
  C   C160      1.0  0.44392  0.17563  0.34303  1.0000
  H   H125      1.0  0.20274  0.01813  0.43806  1.0000
  P   P6        1.0  0.46264  0.04875  0.21100  1.0000
  C   C161      1.0  0.45897  0.07187  0.19318  1.0000
  C   C162      1.0  0.44234  0.03527  0.21458  1.0000
  C   C163      1.0  0.44186  0.02503  0.20003  1.0000
  C   C164      1.0  0.48379  0.09179  0.31566  1.0000
  C   C165      1.0  0.20112  0.17018  0.45132  1.0000
  C   C166      1.0  0.41128  0.02435  0.23455  1.0000
  C   C167      1.0  0.42668  0.03510  0.23176  1.0000
  C   C168      1.0  0.44191  0.07777  0.18436  1.0000
  C   C169      1.0  0.03654  0.99867  0.24987  1.0000
  C   C170      1.0  0.47403  0.08363  0.18722  1.0000
  C   C171      1.0  0.46280  0.05398  0.23482  1.0000
  C   C172      1.0  0.46474  0.03824  0.25126  1.0000
  C   C173      1.0  0.46300  0.04222  0.27010  1.0000
  C   C174      1.0  0.45851  0.06195  0.27290  1.0000
  C   C175      1.0  0.45626  0.07771  0.25677  1.0000
  C   C176      1.0  0.45846  0.07380  0.23782  1.0000
  C   C177      1.0  0.41325  0.04872  0.42700  1.0000
  H   H126      1.0  0.15329  0.08181  0.42692  1.0000
  H   H127      1.0  0.40070  0.03609  0.34185  1.0000
  C   C178      1.0  0.00810  0.17543  0.29598  1.0000
  C   C179      1.0  0.12122  0.01205  0.23845  1.0000
  H   H128      1.0  0.45347  0.02510  0.18653  1.0000
  H   H129      1.0  0.44955  0.99519  0.06160  1.0000
  C   C180      1.0  0.02282  0.17085  0.30763  1.0000
  H   H130      1.0  0.39939  0.02404  0.24793  1.0000
  H   H131      1.0  0.42620  0.04323  0.24308  1.0000
  S   S42       1.0  0.16519  0.00404  0.14690  1.0000
  C   C181      1.0  0.27684  0.99884  0.20830  1.0000
  C   C182      1.0  0.26197  0.99077  0.20416  1.0000
  H   H132      1.0  0.46721  0.02289  0.24959  1.0000
  H   H133      1.0  0.46519  0.02999  0.28251  1.0000
  H   H134      1.0  0.45671  0.06507  0.28755  1.0000
  H   H135      1.0  0.45270  0.09301  0.25896  1.0000
  H   H136      1.0  0.45636  0.08634  0.22572  1.0000
  H   H137      1.0  0.13658  0.04690  0.46693  1.0000
  C   C183      1.0  0.42199  0.07825  0.43183  1.0000
  C   C184      1.0  0.40373  0.08150  0.44578  1.0000
  H   H138      1.0  0.25869  0.11665  0.35698  1.0000
  C   C185      1.0  0.17588  0.16552  0.39123  1.0000
  C   C186      1.0  0.49074  0.03456  0.17908  1.0000
  H   H139      1.0  0.39249  0.03078  0.00510  1.0000
  H   H140      1.0  0.40539  0.13976  0.05303  1.0000
  C   C187      1.0  0.44120  0.09564  0.05911  1.0000
  C   C188      1.0  0.42491  0.09011  0.07409  1.0000
  C   C189      1.0  0.41154  0.08031  0.07013  1.0000
  C   C190      1.0  0.41453  0.07595  0.05125  1.0000
  H   H141      1.0  0.16331  0.02094  0.06609  1.0000
  C   C191      1.0  0.35655  0.11255  0.44416  1.0000
  C   C192      1.0  0.41261  0.01030  0.39081  1.0000
  S   S43       1.0  0.42082  0.02895  0.07700  1.0000
  C   C193      1.0  0.39226  0.01011  0.40028  1.0000
  H   H142      1.0  0.47890  0.01397  0.04341  1.0000
  H   H143      1.0  0.07337  0.13143  0.36506  1.0000
  H   H144      1.0  0.29875  0.15479  0.35596  1.0000
  H   H145      1.0  0.45926  0.15203  0.99244  1.0000
  C   C194      1.0  0.44416  0.09151  0.04014  1.0000
  H   H146      1.0  0.45191  0.10257  0.06246  1.0000
  H   H147      1.0  0.42310  0.09281  0.08893  1.0000
  H   H148      1.0  0.39945  0.07517  0.08197  1.0000
  H   H149      1.0  0.40467  0.06727  0.04897  1.0000
  H   H150      1.0  0.48455  0.11817  0.06408  1.0000
  C   C195      1.0  0.47611  0.15949  0.04719  1.0000
  P   P7        1.0  0.20122  0.16142  0.39607  1.0000
  H   H151      1.0  0.41843  0.02396  0.38752  1.0000
  H   H152      1.0  0.32512  0.98882  0.41086  1.0000
  C   C196      1.0  0.47709  0.10385  0.11079  1.0000
  H   H153      1.0  0.35859  0.00919  0.11923  1.0000
  Fe  Fe23      1.0  0.07092  0.18380  0.32799  1.0000
  H   H154      1.0  0.09042  0.15443  0.17101  1.0000
  C   C197      1.0  0.46614  0.04660  0.99381  1.0000
  H   H155      1.0  0.45105  0.04339  0.04400  1.0000
  P   P8        1.0  0.35525  0.01016  0.18718  1.0000
  C   C198      1.0  0.35880  0.02750  0.20054  1.0000
  C   C199      1.0  0.04778  0.16673  0.19221  1.0000
  C   C200      1.0  0.33353  0.17941  0.39772  1.0000
  H   H156      1.0  0.46794  0.11624  0.34951  1.0000
  C   C201      1.0  0.34441  0.04938  0.45809  1.0000
  H   H157      1.0  0.32464  0.08452  0.32097  1.0000
  C   C202      1.0  0.39439  0.99072  0.17118  1.0000
  C   C203      1.0  0.37366  0.03946  0.19230  1.0000
  C   C204      1.0  0.37644  0.05253  0.20304  1.0000
  C   C205      1.0  0.36434  0.05384  0.22196  1.0000
  C   C206      1.0  0.34941  0.04218  0.23009  1.0000
  C   C207      1.0  0.34680  0.02890  0.21958  1.0000
  C   C208      1.0  0.33305  0.02059  0.17632  1.0000
  C   C209      1.0  0.33093  0.01340  0.16026  1.0000
  C   C210      1.0  0.31369  0.02110  0.15192  1.0000
  C   C211      1.0  0.29824  0.03571  0.15983  1.0000
  C   C212      1.0  0.30007  0.04273  0.17600  1.0000
  C   C213      1.0  0.31737  0.03522  0.18423  1.0000
  H   H158      1.0  0.32830  0.12688  0.35183  1.0000
  C   C214      1.0  0.33428  0.03096  0.38215  1.0000
  C   C215      1.0  0.43987  0.13378  0.39988  1.0000
  H   H159      1.0  0.14825  0.14610  0.36951  1.0000
  H   H160      1.0  0.34243  0.00159  0.15445  1.0000
  C   C216      1.0  0.43551  0.99733  0.05666  1.0000
  C   C217      1.0  0.48857  0.10990  0.36901  1.0000
  H   H161      1.0  0.34735  0.05770  0.44291  1.0000
  C   C218      1.0  0.43643  0.14878  0.41100  1.0000
  C   C219      1.0  0.18531  0.03874  0.41783  1.0000
  H   H162      1.0  0.38330  0.03865  0.17775  1.0000
  H   H163      1.0  0.38815  0.06144  0.19680  1.0000
  H   H164      1.0  0.36661  0.06371  0.23047  1.0000
  H   H165      1.0  0.33997  0.04323  0.24472  1.0000
  H   H166      1.0  0.33530  0.01980  0.22630  1.0000
  H   H167      1.0  0.44571  0.17707  0.04673  1.0000
  C   C220      1.0  0.16133  0.18262  0.39542  1.0000
  H   H168      1.0  0.28460  0.04122  0.15377  1.0000
  H   H169      1.0  0.28776  0.05353  0.18262  1.0000
  H   H170      1.0  0.31804  0.04045  0.19714  1.0000
  C   C221      1.0  0.11877  0.09100  0.16140  1.0000
  C   C222      1.0  0.13993  0.08797  0.15845  1.0000
  C   C223      1.0  0.15214  0.08217  0.14102  1.0000
  C   C224      1.0  0.14319  0.07907  0.12672  1.0000
  C   C225      1.0  0.12195  0.08087  0.13018  1.0000
  C   C226      1.0  0.10975  0.08742  0.14741  1.0000
  P   P9        1.0  0.11023  0.07707  0.11171  1.0000
  C   C227      1.0  0.10210  0.10122  0.09672  1.0000
  C   C228      1.0  0.12765  0.05987  0.09684  1.0000
  C   C229      1.0  0.12703  0.06161  0.07683  1.0000
  C   C230      1.0  0.13982  0.04759  0.06578  1.0000
  C   C231      1.0  0.15337  0.03181  0.07460  1.0000
  C   C232      1.0  0.15403  0.02993  0.09451  1.0000
  C   C233      1.0  0.14117  0.04379  0.10560  1.0000
  C   C234      1.0  0.08756  0.10352  0.08528  1.0000
  C   C235      1.0  0.07972  0.12248  0.07524  1.0000
  C   C236      1.0  0.08635  0.13930  0.07651  1.0000
  C   C237      1.0  0.10100  0.13715  0.08762  1.0000
  C   C238      1.0  0.10889  0.11822  0.09767  1.0000
  C   C239      1.0  0.08817  0.06585  0.12416  1.0000
  C   C240      1.0  0.06893  0.07801  0.12884  1.0000
  C   C241      1.0  0.05177  0.06944  0.13800  1.0000
  C   C242      1.0  0.05372  0.04865  0.14299  1.0000
  C   C243      1.0  0.07284  0.03642  0.13868  1.0000
  C   C244      1.0  0.08997  0.04495  0.12920  1.0000
  H   H171      1.0  0.10943  0.09541  0.17498  1.0000
  H   H172      1.0  0.14681  0.08988  0.16981  1.0000
  H   H173      1.0  0.16857  0.07982  0.13873  1.0000
  H   H174      1.0  0.15296  0.07502  0.11315  1.0000
  H   H175      1.0  0.09331  0.08962  0.15017  1.0000
  H   H176      1.0  0.11662  0.07362  0.06973  1.0000
  H   H177      1.0  0.16442  0.01764  0.10151  1.0000
  H   H178      1.0  0.14174  0.04174  0.12111  1.0000
  H   H179      1.0  0.08167  0.09075  0.08476  1.0000
  H   H180      1.0  0.06796  0.12424  0.06708  1.0000
  H   H181      1.0  0.07971  0.15409  0.06939  1.0000
  H   H182      1.0  0.10567  0.15030  0.08908  1.0000
  H   H183      1.0  0.11974  0.11710  0.10667  1.0000
  H   H184      1.0  0.06712  0.09414  0.12560  1.0000
  H   H185      1.0  0.03703  0.07903  0.14174  1.0000
  H   H186      1.0  0.04046  0.04205  0.15041  1.0000
  H   H187      1.0  0.07438  0.02031  0.14279  1.0000
  H   H188      1.0  0.10452  0.03513  0.12592  1.0000
  S   S44       1.0  0.29646  0.00904  0.23260  1.0000
  H   H189      1.0  0.04330  0.01098  0.24021  1.0000
  C   C245      1.0  0.13760  0.17319  0.38121  1.0000
  C   C246      1.0  0.47787  0.12238  0.35487  1.0000
  H   H190      1.0  0.18963  0.03756  0.46470  1.0000
  H   H191      1.0  0.17246  0.01752  0.17944  1.0000
  H   H192      1.0  0.26402  0.14950  0.35817  1.0000
  C   C247      1.0  0.30532  0.05937  0.36354  1.0000
  C   C248      1.0  0.13842  0.12208  0.01253  1.0000
  C   C249      1.0  0.03127  0.15542  0.43878  1.0000
  H   H193      1.0  0.09944  0.15552  0.38449  1.0000
  H   H194      1.0  0.13919  0.04889  0.05040  1.0000
  C   C250      1.0  0.29647  0.14034  0.35509  1.0000
  C   C251      1.0  0.22176  0.06855  0.37877  1.0000
  S   S45       1.0  0.23672  0.03041  0.45845  1.0000
  H   H195      1.0  0.28164  0.00518  0.39185  1.0000
  C   C252      1.0  0.26455  0.98839  0.24361  1.0000
  H   H196      1.0  0.17794  0.10922  0.47227  1.0000
  H   H197      1.0  0.21947  0.00859  0.38959  1.0000
  C   C253      1.0  0.37616  0.07948  0.00943  1.0000
  C   C254      1.0  0.41158  0.05001  0.00717  1.0000
  C   C255      1.0  0.00005  0.17362  0.23361  1.0000
  H   H198      1.0  0.39820  0.02779  0.12040  1.0000
  H   H199      1.0  0.31204  0.01546  0.13961  1.0000
  H   H200      1.0  0.32696  0.03134  0.45127  1.0000
  C   C256      1.0  0.12099  0.18200  0.04446  1.0000
  C   C257      1.0  0.31312  0.12463  0.35275  1.0000
  C   C258      1.0  0.27398  0.11850  0.35578  1.0000
  C   C259      1.0  0.43302  0.10902  0.98218  1.0000
  H   H201      1.0  0.27729  0.06889  0.28762  1.0000
  H   H202      1.0  0.45369  0.12030  0.15261  1.0000
  C   C260      1.0  0.41976  0.02694  0.31508  1.0000
  H   H203      1.0  0.30010  0.99675  0.08844  1.0000
  H   H204      1.0  0.15772  0.08198  0.04499  1.0000
  C   C261      1.0  0.14683  0.11189  0.05067  1.0000
  C   C262      1.0  0.25762  0.06035  0.37960  1.0000
  H   H205      1.0  0.14975  0.09088  0.01133  1.0000
  H   H206      1.0  0.46265  0.13386  0.09966  1.0000
  H   H207      1.0  0.48349  0.10729  0.31553  1.0000
  C   C263      1.0  0.47187  0.10125  0.17298  1.0000
  C   C264      1.0  0.06997  0.17461  0.11337  1.0000
  H   H208      1.0  0.29810  0.11525  0.45914  1.0000
  H   H209      1.0  0.06390  0.16389  0.37568  1.0000
  H   H210      1.0  0.34912  0.04448  0.10302  1.0000
  H   H211      1.0  0.38478  0.04161  0.44390  1.0000
  C   C265      1.0  0.13878  0.13173  0.04299  1.0000
  S   S46       1.0  0.08864  0.17287  0.45739  1.0000
  C   C266      1.0  0.02755  0.14972  0.45950  1.0000
  C   C267      1.0  0.01746  0.00271  0.26234  1.0000
  C   C268      1.0  0.05843  0.13565  0.37415  1.0000
  H   H212      1.0  0.06165  0.17793  0.42232  1.0000
  P   P10       1.0  0.28756  0.07847  0.35113  1.0000
  C   C269      1.0  0.30799  0.06084  0.38207  1.0000
  H   H213      1.0  0.00583  0.15939  0.22883  1.0000
  H   H214      1.0  0.31458  0.04132  0.34072  1.0000
  H   H215      1.0  0.26745  0.06872  0.32328  1.0000
  C   C270      1.0  0.33132  0.02907  0.36395  1.0000
  H   H216      1.0  0.24830  0.09688  0.33957  1.0000
  C   C271      1.0  0.21598  0.17034  0.35504  1.0000
  C   C272      1.0  0.22564  0.08288  0.36147  1.0000
  C   C273      1.0  0.30642  0.07681  0.28400  1.0000
  H   H217      1.0  0.31102  0.07608  0.26834  1.0000
  C   C274      1.0  0.28743  0.07281  0.29482  1.0000
  C   C275      1.0  0.17102  0.15241  0.38177  1.0000
  H   H218      1.0  0.20562  0.14500  0.43764  1.0000
  H   H219      1.0  0.37325  0.00499  0.45497  1.0000
  C   C276      1.0  0.28176  0.07293  0.31519  1.0000
  H   H220      1.0  0.30909  0.16466  0.39948  1.0000
  H   H221      1.0  0.33472  0.08351  0.28537  1.0000
  H   H222      1.0  0.21328  0.09139  0.35431  1.0000
  C   C277      1.0  0.31972  0.08104  0.29357  1.0000
  H   H223      1.0  0.49601  0.11827  0.00120  1.0000
  S   S47       1.0  0.38522  0.98546  0.98109  1.0000
  H   H224      1.0  0.29908  0.07309  0.38924  1.0000
  C   C278      1.0  0.44754  0.14989  0.00580  1.0000
  C   C279      1.0  0.26176  0.07458  0.36206  1.0000
  C   C280      1.0  0.31390  0.08160  0.31386  1.0000
  C   C281      1.0  0.29474  0.07777  0.32484  1.0000
  H   H225      1.0  0.32337  0.09380  0.35066  1.0000
  H   H226      1.0  0.18206  0.13943  0.37778  1.0000
  H   H227      1.0  0.48357  0.11026  0.16851  1.0000
  C   C282      1.0  0.38972  0.06875  0.44996  1.0000
  C   C283      1.0  0.34334  0.12978  0.43705  1.0000
  C   C284      1.0  0.15191  0.15617  0.37693  1.0000
  C   C285      1.0  0.24553  0.08592  0.35317  1.0000
  C   C286      1.0  0.41257  0.14677  0.02095  1.0000
  C   C287      1.0  0.12573  0.14480  0.19933  1.0000
  C   C288      1.0  0.18447  0.04330  0.45083  1.0000
  H   H228      1.0  0.38232  0.17418  0.98133  1.0000
  C   C289      1.0  0.02396  0.16388  0.17379  1.0000
  C   C290      1.0  0.20047  0.17294  0.41658  1.0000
  H   H229      1.0  0.05475  0.16121  0.20509  1.0000
  P   P11       1.0  0.12478  0.16270  0.01331  1.0000
  C   C291      1.0  0.47475  0.17863  0.07807  1.0000
  C   C292      1.0  0.48277  0.98747  0.16359  1.0000
  H   H230      1.0  0.03326  0.18076  0.30558  1.0000
  C   C293      1.0  0.01138  0.13998  0.32470  1.0000
  S   S48       1.0  0.35398  0.99118  0.02442  1.0000
  H   H231      1.0  0.13798  0.13307  0.20396  1.0000
  C   C294      1.0  0.05470  0.17478  0.02329  1.0000
  C   C295      1.0  0.47408  0.12470  0.10772  1.0000
  C   C296      1.0  0.48578  0.13387  0.11488  1.0000
  C   C297      1.0  0.44577  0.09396  0.99286  1.0000
  C   C298      1.0  0.12037  0.16245  0.20682  1.0000
  C   C299      1.0  0.34252  0.02195  0.06836  1.0000
  C   C300      1.0  0.05299  0.17117  0.10846  1.0000
  H   H232      1.0  0.09291  0.03185  0.24707  1.0000
  H   H233      1.0  0.03100  0.15200  0.11545  1.0000
  C   C301      1.0  0.02047  0.14596  0.39872  1.0000
  H   H234      1.0  0.07340  0.00445  0.26081  1.0000
  H   H235      1.0  0.48351  0.14812  0.22484  1.0000
  C   C302      1.0  0.09418  0.99922  0.20123  1.0000
  C   C303      1.0  0.37902  0.01920  0.14910  1.0000
  C   C304      1.0  0.31354  0.17622  0.40424  1.0000
  S   S49       1.0  0.46062  0.00224  0.15621  1.0000
  H   H236      1.0  0.10774  0.98911  0.15180  1.0000
  C   C305      1.0  0.40378  0.00453  0.34319  1.0000
  H   H237      1.0  0.48315  0.14998  0.11256  1.0000
  H   H238      1.0  0.16658  0.15387  0.99081  1.0000
  H   H239      1.0  0.12970  0.02408  0.23287  1.0000
  H   H240      1.0  0.26100  0.99183  0.18893  1.0000
  C   C306      1.0  0.34297  0.03728  0.07754  1.0000
  H   H241      1.0  0.01290  0.12618  0.33560  1.0000
  C   C307      1.0  0.44216  0.17753  0.36270  1.0000
  H   H242      1.0  0.43702  0.01394  0.28998  1.0000
  H   H243      1.0  0.04572  0.00296  0.18162  1.0000
  C   C308      1.0  0.34877  0.09616  0.45689  1.0000
  H   H244      1.0  0.48060  0.04413  0.16976  1.0000
  H   H245      1.0  0.48080  0.11228  0.23260  1.0000
  C   C309      1.0  0.00243  0.03762  0.20540  1.0000
  H   H246      1.0  0.39410  0.00207  0.35789  1.0000
  H   H247      1.0  0.40590  0.98857  0.43628  1.0000
  H   H248      1.0  0.35668  0.98718  0.38439  1.0000
  C   C310      1.0  0.41237  0.98859  0.33319  1.0000
  H   H249      1.0  0.34452  0.17011  0.38811  1.0000
  C   C311      1.0  0.02949  0.18018  0.15925  1.0000
  C   C312      1.0  0.00543  0.04600  0.18509  1.0000
  C   C313      1.0  0.49178  0.09215  0.12151  1.0000
  H   H250      1.0  0.42373  0.00887  0.97835  1.0000
  C   C314      1.0  0.23238  0.18229  0.37501  1.0000
  H   H251      1.0  0.48752  0.07908  0.19355  1.0000
  H   H252      1.0  0.23438  0.18357  0.38926  1.0000
  H   H253      1.0  0.34724  0.99039  0.07012  1.0000
  H   H254      1.0  0.39361  0.99456  0.09743  1.0000
  C   C315      1.0  0.42519  0.99162  0.31423  1.0000
  C   C316      1.0  0.37910  0.98922  0.45983  1.0000
  C   C317      1.0  0.41246  0.98919  0.15673  1.0000
  C   C318      1.0  0.48635  0.01789  0.01141  1.0000
  H   H255      1.0  0.14721  0.98941  0.23093  1.0000
  Fe  Fe24      1.0  0.49443  0.02540  0.08428  1.0000
  H   H256      1.0  0.42803  0.00172  0.12763  1.0000
  H   H257      1.0  0.49398  0.07601  0.12428  1.0000
  H   H258      1.0  0.00591  0.14961  0.40862  1.0000
  C   C319      1.0  0.48334  0.05218  0.31538  1.0000
  C   C320      1.0  0.48964  0.12111  0.03204  1.0000
  P   P12       1.0  0.02787  0.18182  0.40286  1.0000
  C   C321      1.0  0.49102  0.11084  0.05145  1.0000
  H   H259      1.0  0.49555  0.08900  0.25971  1.0000
  H   H260      1.0  0.12836  0.16427  0.21741  1.0000
  H   H261      1.0  0.04668  0.18122  0.09637  1.0000
  C   C322      1.0  0.09319  0.17474  0.18841  1.0000
  C   C323      1.0  0.22809  0.17930  0.33774  1.0000
  H   H262      1.0  0.46272  0.05560  0.97989  1.0000
  H   H263      1.0  0.49021  0.02552  0.97953  1.0000
  C   C324      1.0  0.10419  0.17738  0.20139  1.0000
  S   S50       1.0  0.13797  0.17617  0.47552  1.0000
  C   C325      1.0  0.49723  0.11070  0.01625  1.0000
  C   C326      1.0  0.00546  0.18180  0.46243  1.0000
  H   H264      1.0  0.22615  0.17842  0.32330  1.0000
  C   C327      1.0  0.05371  0.18287  0.17745  1.0000
  H   H265      1.0  0.45226  0.98630  0.22743  1.0000
  S   S51       1.0  0.09441  0.18297  0.34494  1.0000
  C   C328      1.0  0.41489  0.98638  0.03943  1.0000
  H   H266      1.0  0.46508  0.18468  0.00067  1.0000
  H   H267      1.0  0.42917  0.18457  0.31789  1.0000
  C   C329      1.0  0.07564  0.98523  0.18478  1.0000
  H   H268      1.0  0.07402  0.98602  0.13015  1.0000
  H   H269      1.0  0.02284  0.18495  0.14618  1.0000
  H   H270      1.0  0.37712  0.98530  0.21776  1.0000
  C   C330      1.0  0.21301  0.06541  0.48933  1.0000
  S   S52       1.0  0.27841  0.01776  0.77698  1.0000
  C   C331      1.0  0.16952  0.00377  0.72016  1.0000
  Fe  Fe25      1.0  0.33469  0.00267  0.75132  1.0000
  S   S53       1.0  0.31726  0.03428  0.74560  1.0000
  H   H271      1.0  0.00831  0.12219  0.64353  1.0000
  Fe  Fe26      1.0  0.30554  0.02901  0.77886  1.0000
  S   S54       1.0  0.30109  0.04629  0.80337  1.0000
  Fe  Fe27      1.0  0.29176  0.01994  0.74430  1.0000
  S   S55       1.0  0.27329  0.03188  0.71999  1.0000
  S   S56       1.0  0.32482  0.99831  0.78446  1.0000
  H   H272      1.0  0.36887  0.00533  0.77104  1.0000
  H   H273      1.0  0.18209  0.16105  0.95493  1.0000
  H   H274      1.0  0.15999  0.99556  0.58463  1.0000
  Fe  Fe28      1.0  0.33796  0.12397  0.83869  1.0000
  S   S57       1.0  0.31834  0.11095  0.86712  1.0000
  S   S58       1.0  0.33686  0.12009  0.80805  1.0000
  Fe  Fe29      1.0  0.36367  0.13735  0.86116  1.0000
  S   S59       1.0  0.34619  0.12452  0.89086  1.0000
  S   S60       1.0  0.39023  0.15274  0.85736  1.0000
  Fe  Fe30      1.0  0.34774  0.09827  0.87732  1.0000
  S   S61       1.0  0.35668  0.06506  0.88861  1.0000
  Fe  Fe31      1.0  0.31856  0.13867  0.87763  1.0000
  S   S62       1.0  0.36737  0.11004  0.84844  1.0000
  S   S63       1.0  0.33600  0.15293  0.84836  1.0000
  H   H275      1.0  0.21968  0.04678  0.51680  1.0000
  H   H276      1.0  0.01583  0.02993  0.59812  1.0000
  Fe  Fe32      1.0  0.03847  0.14549  0.69334  1.0000
  S   S64       1.0  0.07002  0.13531  0.67649  1.0000
  Fe  Fe33      1.0  0.02118  0.11446  0.68123  1.0000
  S   S65       1.0  0.05148  0.10217  0.66323  1.0000
  C   C332      1.0  0.25524  0.99897  0.72661  1.0000
  Fe  Fe34      1.0  0.06382  0.10425  0.68895  1.0000
  S   S66       1.0  0.08567  0.07862  0.70280  1.0000
  Fe  Fe35      1.0  0.05483  0.13427  0.65232  1.0000
  S   S67       1.0  0.03328  0.11437  0.70785  1.0000
  S   S68       1.0  0.02354  0.14659  0.66832  1.0000
  C   C333      1.0  0.30240  0.01612  0.94917  1.0000
  C   C334      1.0  0.26534  0.99522  0.94515  1.0000
  Fe  Fe36      1.0  0.10784  0.16703  0.48018  1.0000
  S   S69       1.0  0.21520  0.01177  0.64454  1.0000
  H   H277      1.0  0.47021  0.07281  0.74799  1.0000
  Fe  Fe37      1.0  0.18157  0.01843  0.64593  1.0000
  S   S70       1.0  0.16487  0.05041  0.64067  1.0000
  C   C335      1.0  0.00508  0.09164  0.58059  1.0000
  H   H278      1.0  0.23752  0.99196  0.96684  1.0000
  H   H279      1.0  0.22821  0.06869  0.48390  1.0000
  H   H280      1.0  0.02098  0.15116  0.58210  1.0000
  C   C336      1.0  0.02713  0.00840  0.64117  1.0000
  H   H281      1.0  0.32437  0.01526  0.87804  1.0000
  C   C337      1.0  0.34793  0.04251  0.49242  1.0000
  H   H282      1.0  0.34526  0.12994  0.96495  1.0000
  H   H283      1.0  0.48259  0.03833  0.76451  1.0000
  H   H284      1.0  0.08438  0.05912  0.51335  1.0000
  C   C338      1.0  0.02923  0.16062  0.55053  1.0000
  C   C339      1.0  0.40441  0.03242  0.96209  1.0000
  H   H285      1.0  0.04456  0.05287  0.58855  1.0000
  C   C340      1.0  0.00421  0.18356  0.85684  1.0000
  H   H286      1.0  0.23570  0.01646  0.67720  1.0000
  C   C341      1.0  0.14330  0.05806  0.65849  1.0000
  C   C342      1.0  0.13684  0.04501  0.67611  1.0000
  C   C343      1.0  0.11902  0.05135  0.68963  1.0000
  C   C344      1.0  0.10764  0.07075  0.68556  1.0000
  C   C345      1.0  0.11430  0.08391  0.66810  1.0000
  C   C346      1.0  0.13225  0.07763  0.65474  1.0000
  H   H287      1.0  0.14553  0.03009  0.67938  1.0000
  H   H288      1.0  0.11392  0.04119  0.70315  1.0000
  H   H289      1.0  0.10574  0.09899  0.66499  1.0000
  H   H290      1.0  0.13739  0.08787  0.64126  1.0000
  H   H291      1.0  0.39118  0.02548  0.96769  1.0000
  H   H292      1.0  0.39957  0.02432  0.84732  1.0000
  C   C347      1.0  0.38779  0.15053  0.89750  1.0000
  S   S71       1.0  0.05807  0.14716  0.49257  1.0000
  C   C348      1.0  0.35437  0.05728  0.91445  1.0000
  C   C349      1.0  0.35930  0.03685  0.92251  1.0000
  C   C350      1.0  0.35699  0.03023  0.94318  1.0000
  C   C351      1.0  0.34989  0.04409  0.95581  1.0000
  C   C352      1.0  0.34541  0.06456  0.94771  1.0000
  C   C353      1.0  0.34749  0.07114  0.92706  1.0000
  H   H293      1.0  0.36461  0.02611  0.91277  1.0000
  H   H294      1.0  0.36042  0.01442  0.94936  1.0000
  H   H295      1.0  0.48305  0.15002  0.48200  1.0000
  H   H296      1.0  0.34345  0.08687  0.92094  1.0000
  C   C354      1.0  0.01850  0.07331  0.57881  1.0000
  C   C355      1.0  0.25967  0.01668  0.71383  1.0000
  C   C356      1.0  0.22957  0.00013  0.53614  1.0000
  C   C357      1.0  0.10712  0.07702  0.50827  1.0000
  H   H297      1.0  0.30055  0.00064  0.69742  1.0000
  C   C358      1.0  0.24108  0.01150  0.69096  1.0000
  C   C359      1.0  0.25258  0.02285  0.69598  1.0000
  C   C360      1.0  0.37057  0.07795  0.48929  1.0000
  C   C361      1.0  0.03621  0.07632  0.50030  1.0000
  H   H298      1.0  0.39804  0.00284  0.78635  1.0000
  H   H299      1.0  0.25596  0.03651  0.68600  1.0000
  C   C362      1.0  0.31148  0.06682  0.80375  1.0000
  C   C363      1.0  0.30812  0.07284  0.82199  1.0000
  C   C364      1.0  0.31620  0.08879  0.82341  1.0000
  C   C365      1.0  0.32733  0.09935  0.80651  1.0000
  C   C366      1.0  0.33049  0.09356  0.78810  1.0000
  C   C367      1.0  0.32279  0.07719  0.78674  1.0000
  H   H300      1.0  0.29904  0.06527  0.83514  1.0000
  H   H301      1.0  0.31334  0.09320  0.83756  1.0000
  H   H302      1.0  0.33877  0.10183  0.77485  1.0000
  H   H303      1.0  0.32526  0.07281  0.77258  1.0000
  C   C368      1.0  0.23705  0.99421  0.57465  1.0000
  C   C369      1.0  0.35892  0.12136  0.95725  1.0000
  H   H304      1.0  0.26250  0.01128  0.94404  1.0000
  C   C370      1.0  0.48360  0.14498  0.49764  1.0000
  C   C371      1.0  0.35719  0.09206  0.49997  1.0000
  H   H305      1.0  0.03363  0.07317  0.48701  1.0000
  H   H306      1.0  0.09871  0.08572  0.51954  1.0000
  H   H307      1.0  0.49089  0.10934  0.97017  1.0000
  Fe  Fe38      1.0  0.44335  0.18453  0.92614  1.0000
  H   H308      1.0  0.04602  0.08799  0.54745  1.0000
  C   C372      1.0  0.32438  0.18175  0.92995  1.0000
  Fe  Fe39      1.0  0.48710  0.17529  0.93251  1.0000
  C   C373      1.0  0.49830  0.14989  0.50497  1.0000
  H   H309      1.0  0.10340  0.03994  0.48694  1.0000
  H   H310      1.0  0.25323  0.02125  0.87190  1.0000
  C   C374      1.0  0.04891  0.08964  0.49854  1.0000
  Fe  Fe40      1.0  0.20898  0.98676  0.67034  1.0000
  P   P13       1.0  0.30144  0.99987  0.91740  1.0000
  H   H311      1.0  0.30633  0.99964  0.82915  1.0000
  C   C375      1.0  0.30162  0.02011  0.92892  1.0000
  C   C376      1.0  0.00582  0.14144  0.77957  1.0000
  H   H312      1.0  0.29667  0.99070  0.52255  1.0000
  H   H313      1.0  0.02125  0.08172  0.65712  1.0000
  C   C377      1.0  0.30179  0.05506  0.92712  1.0000
  C   C378      1.0  0.30148  0.03969  0.91791  1.0000
  C   C379      1.0  0.03209  0.12123  0.82478  1.0000
  H   H314      1.0  0.45351  0.02562  0.96624  1.0000
  C   C380      1.0  0.47496  0.09491  0.90471  1.0000
  C   C381      1.0  0.02254  0.09673  0.60395  1.0000
  C   C382      1.0  0.29431  0.00981  0.89363  1.0000
  S   S72       1.0  0.27497  0.02392  0.48021  1.0000
  C   C383      1.0  0.25235  0.99839  0.55773  1.0000
  H   H315      1.0  0.34388  0.99253  0.82240  1.0000
  C   C384      1.0  0.35886  0.99581  0.68998  1.0000
  C   C385      1.0  0.01158  0.12066  0.85821  1.0000
  H   H316      1.0  0.14209  0.99173  0.73109  1.0000
  C   C386      1.0  0.46192  0.12386  0.96288  1.0000
  C   C387      1.0  0.04229  0.02351  0.55157  1.0000
  Fe  Fe41      1.0  0.21636  0.99017  0.62537  1.0000
  H   H317      1.0  0.33984  0.00032  0.92828  1.0000
  C   C388      1.0  0.00645  0.07848  0.65841  1.0000
  C   C389      1.0  0.07258  0.12894  0.56356  1.0000
  H   H318      1.0  0.30211  0.07007  0.91848  1.0000
  H   H319      1.0  0.30135  0.04323  0.90221  1.0000
  C   C390      1.0  0.43945  0.03270  0.96129  1.0000
  H   H320      1.0  0.03393  0.14548  0.54778  1.0000
  C   C391      1.0  0.31690  0.99925  0.69481  1.0000
  C   C392      1.0  0.02282  0.98917  0.64810  1.0000
  C   C393      1.0  0.39947  0.98559  0.82634  1.0000
  C   C394      1.0  0.27422  0.01157  0.89173  1.0000
  H   H321      1.0  0.40522  0.06061  0.51912  1.0000
  H   H322      1.0  0.05939  0.99520  0.54427  1.0000
  H   H323      1.0  0.36943  0.01225  0.87010  1.0000
  C   C395      1.0  0.45793  0.08583  0.91001  1.0000
  C   C396      1.0  0.38785  0.06655  0.49638  1.0000
  H   H324      1.0  0.49620  0.00894  0.79455  1.0000
  H   H325      1.0  0.03957  0.09989  0.85065  1.0000
  S   S73       1.0  0.08223  0.17507  0.50543  1.0000
  C   C397      1.0  0.09905  0.06211  0.50475  1.0000
  P   P14       1.0  0.02206  0.14919  0.79139  1.0000
  C   C398      1.0  0.46926  0.13426  0.51052  1.0000
  S   S74       1.0  0.29139  0.15444  0.89757  1.0000
  S   S75       1.0  0.07537  0.12034  0.54148  1.0000
  C   C399      1.0  0.13670  0.07038  0.48186  1.0000
  C   C400      1.0  0.17900  0.06812  0.48407  1.0000
  H   H326      1.0  0.45945  0.07126  0.90657  1.0000
  C   C401      1.0  0.34245  0.98853  0.92005  1.0000
  C   C402      1.0  0.37638  0.11506  0.96529  1.0000
  H   H327      1.0  0.15041  0.13121  0.50242  1.0000
  H   H328      1.0  0.49746  0.15004  0.57709  1.0000
  C   C403      1.0  0.12589  0.08110  0.49689  1.0000
  H   H329      1.0  0.12051  0.13356  0.71189  1.0000
  H   H330      1.0  0.06212  0.10409  0.51417  1.0000
  C   C404      1.0  0.40951  0.16501  0.91007  1.0000
  C   C405      1.0  0.38410  0.99902  0.76399  1.0000
  C   C406      1.0  0.41234  0.09686  0.86670  1.0000
  C   C407      1.0  0.40912  0.07898  0.86384  1.0000
  C   C408      1.0  0.40809  0.06258  0.87959  1.0000
  C   C409      1.0  0.41046  0.06393  0.89820  1.0000
  C   C410      1.0  0.41388  0.08181  0.90114  1.0000
  C   C411      1.0  0.41462  0.09832  0.88529  1.0000
  P   P15       1.0  0.41690  0.08426  0.92493  1.0000
  C   C412      1.0  0.41972  0.06034  0.94175  1.0000
  C   C413      1.0  0.43900  0.09561  0.91945  1.0000
  C   C414      1.0  0.43717  0.11498  0.92263  1.0000
  H   H331      1.0  0.07052  0.15754  0.71309  1.0000
  C   C415      1.0  0.00816  0.14665  0.75883  1.0000
  H   H332      1.0  0.06394  0.10205  0.58226  1.0000
  C   C416      1.0  0.07415  0.15410  0.58092  1.0000
  H   H333      1.0  0.01925  0.15561  0.75010  1.0000
  C   C417      1.0  0.39426  0.09925  0.93709  1.0000
  C   C418      1.0  0.37660  0.10535  0.92923  1.0000
  C   C419      1.0  0.00707  0.10327  0.59319  1.0000
  C   C420      1.0  0.39386  0.10374  0.95541  1.0000
  H   H334      1.0  0.41255  0.10982  0.85466  1.0000
  H   H335      1.0  0.40679  0.07804  0.84958  1.0000
  H   H336      1.0  0.40468  0.04903  0.87760  1.0000
  H   H337      1.0  0.40928  0.05108  0.91016  1.0000
  H   H338      1.0  0.41674  0.11243  0.88731  1.0000
  H   H339      1.0  0.42265  0.12331  0.92900  1.0000
  C   C421      1.0  0.06395  0.16969  0.72108  1.0000
  H   H340      1.0  0.46819  0.13538  0.95133  1.0000
  H   H341      1.0  0.37738  0.14920  0.73620  1.0000
  H   H342      1.0  0.10330  0.05961  0.63492  1.0000
  H   H343      1.0  0.38849  0.05783  0.94474  1.0000
  C   C422      1.0  0.17819  0.02067  0.71648  1.0000
  C   C423      1.0  0.02970  0.03351  0.56661  1.0000
  H   H344      1.0  0.01713  0.05963  0.63650  1.0000
  H   H345      1.0  0.33995  0.07531  0.95745  1.0000
  H   H346      1.0  0.39760  0.12625  0.71344  1.0000
  Fe  Fe42      1.0  0.08000  0.14261  0.51232  1.0000
  H   H347      1.0  0.21829  0.03794  0.72416  1.0000
  C   C424      1.0  0.21415  0.99634  0.55303  1.0000
  C   C425      1.0  0.04691  0.01104  0.63156  1.0000
  C   C426      1.0  0.43796  0.05130  0.94826  1.0000
  C   C427      1.0  0.30883  0.01630  0.87688  1.0000
  H   H348      1.0  0.05039  0.16714  0.92434  1.0000
  C   C428      1.0  0.02877  0.11269  0.84508  1.0000
  H   H349      1.0  0.19431  0.01956  0.70994  1.0000
  C   C429      1.0  0.39182  0.06940  0.51378  1.0000
  C   C430      1.0  0.03327  0.00209  0.59048  1.0000
  C   C431      1.0  0.15359  0.17484  0.94614  1.0000
  C   C432      1.0  0.03594  0.07855  0.60224  1.0000
  C   C433      1.0  0.39349  0.15479  0.91347  1.0000
  H   H350      1.0  0.43118  0.13532  0.95890  1.0000
  C   C434      1.0  0.40287  0.05091  0.94912  1.0000
  C   C435      1.0  0.28321  0.02641  0.85681  1.0000
  C   C436      1.0  0.37851  0.08357  0.52426  1.0000
  C   C437      1.0  0.10976  0.05132  0.48985  1.0000
  C   C438      1.0  0.10288  0.99495  0.67020  1.0000
  H   H351      1.0  0.19941  0.99528  0.55126  1.0000
  C   C439      1.0  0.33606  0.02783  0.49708  1.0000
  C   C440      1.0  0.13256  0.18042  0.95258  1.0000
  C   C441      1.0  0.28092  0.98728  0.65543  1.0000
  H   H352      1.0  0.04195  0.11678  0.76913  1.0000
  H   H353      1.0  0.27890  0.03294  0.84259  1.0000
  C   C442      1.0  0.36119  0.09486  0.51737  1.0000
  C   C443      1.0  0.04621  0.18066  0.93040  1.0000
  H   H354      1.0  0.21621  0.07506  0.70447  1.0000
  S   S76       1.0  0.41631  0.16981  0.93064  1.0000
  C   C444      1.0  0.03393  0.06683  0.58977  1.0000
  H   H355      1.0  0.23513  0.03109  0.75242  1.0000
  H   H356      1.0  0.33262  0.01954  0.51217  1.0000
  C   C445      1.0  0.40561  0.00201  0.82927  1.0000
  C   C446      1.0  0.32833  0.02400  0.48230  1.0000
  H   H357      1.0  0.35182  0.02666  0.69303  1.0000
  C   C447      1.0  0.12856  0.05540  0.47842  1.0000
  C   C448      1.0  0.00246  0.17761  0.87740  1.0000
  H   H358      1.0  0.25282  0.17660  0.91431  1.0000
  C   C449      1.0  0.42270  0.02320  0.96811  1.0000
  C   C450      1.0  0.37789  0.00472  0.85793  1.0000
  C   C451      1.0  0.41374  0.16714  0.87451  1.0000
  H   H359      1.0  0.12081  0.02332  0.74059  1.0000
  H   H360      1.0  0.04582  0.03129  0.53634  1.0000
  H   H361      1.0  0.26052  0.99410  0.74043  1.0000
  C   C452      1.0  0.01635  0.17605  0.78989  1.0000
  H   H362      1.0  0.42164  0.01631  0.66538  1.0000
  H   H363      1.0  0.17892  0.98991  0.71631  1.0000
  C   C453      1.0  0.04827  0.14094  0.77937  1.0000
  C   C454      1.0  0.05346  0.12447  0.76981  1.0000
  C   C455      1.0  0.07368  0.11776  0.76080  1.0000
  C   C456      1.0  0.08899  0.12713  0.76161  1.0000
  C   C457      1.0  0.08406  0.14329  0.77133  1.0000
  C   C458      1.0  0.06381  0.15027  0.78004  1.0000
  H   H364      1.0  0.39824  0.05542  0.48847  1.0000
  C   C459      1.0  0.33168  0.17540  0.91178  1.0000
  Fe  Fe43      1.0  0.06270  0.17895  0.48329  1.0000
  S   S77       1.0  0.02826  0.17229  0.70879  1.0000
  S   S78       1.0  0.18311  0.99895  0.62461  1.0000
  C   C460      1.0  0.06265  0.99436  0.62896  1.0000
  H   H365      1.0  0.14953  0.12950  0.72806  1.0000
  C   C461      1.0  0.17439  0.05556  0.50272  1.0000
  C   C462      1.0  0.01825  0.13794  0.81752  1.0000
  S   S79       1.0  0.24247  0.99005  0.59851  1.0000
  H   H366      1.0  0.42160  0.17202  0.85941  1.0000
  H   H367      1.0  0.26273  0.00672  0.90438  1.0000
  S   S80       1.0  0.47372  0.17508  0.90692  1.0000
  H   H368      1.0  0.12678  0.00618  0.67569  1.0000
  H   H369      1.0  0.07744  0.10540  0.75300  1.0000
  H   H370      1.0  0.10461  0.12204  0.75449  1.0000
  H   H371      1.0  0.09580  0.15098  0.77152  1.0000
  H   H372      1.0  0.06050  0.16319  0.78684  1.0000
  H   H373      1.0  0.01502  0.02126  0.64313  1.0000
  C   C463      1.0  0.13317  0.11535  0.52878  1.0000
  C   C464      1.0  0.38732  0.99224  0.74622  1.0000
  H   H374      1.0  0.00735  0.98716  0.65506  1.0000
  C   C465      1.0  0.17058  0.09147  0.53485  1.0000
  C   C466      1.0  0.15266  0.08809  0.54882  1.0000
  C   C467      1.0  0.13386  0.09970  0.54523  1.0000
  P   P16       1.0  0.15355  0.06902  0.57114  1.0000
  C   C468      1.0  0.13411  0.07752  0.59147  1.0000
  C   C469      1.0  0.14948  0.04595  0.56721  1.0000
  C   C470      1.0  0.13952  0.04600  0.55224  1.0000
  C   C471      1.0  0.13704  0.02796  0.54896  1.0000
  C   C472      1.0  0.14428  0.00980  0.56070  1.0000
  C   C473      1.0  0.15409  0.00965  0.57569  1.0000
  C   C474      1.0  0.15664  0.02763  0.57898  1.0000
  C   C475      1.0  0.12791  0.09804  0.59193  1.0000
  C   C476      1.0  0.11234  0.10461  0.60722  1.0000
  C   C477      1.0  0.10305  0.09079  0.62234  1.0000
  C   C478      1.0  0.10974  0.07032  0.62253  1.0000
  C   C479      1.0  0.12529  0.06370  0.60721  1.0000
  C   C480      1.0  0.17817  0.06430  0.57758  1.0000
  C   C481      1.0  0.19471  0.05136  0.56821  1.0000
  C   C482      1.0  0.21345  0.04677  0.57390  1.0000
  C   C483      1.0  0.21585  0.05495  0.58905  1.0000
  C   C484      1.0  0.19959  0.06808  0.59822  1.0000
  C   C485      1.0  0.18084  0.07282  0.59248  1.0000
  C   C486      1.0  0.24363  0.98769  0.72165  1.0000
  S   S81       1.0  0.47128  0.00274  0.72272  1.0000
  H   H375      1.0  0.18524  0.08252  0.53696  1.0000
  H   H376      1.0  0.11970  0.09713  0.55544  1.0000
  H   H377      1.0  0.13382  0.05988  0.54298  1.0000
  H   H378      1.0  0.12959  0.02805  0.53723  1.0000
  H   H379      1.0  0.31214  0.17557  0.94073  1.0000
  H   H380      1.0  0.18364  0.10948  0.50743  1.0000
  H   H381      1.0  0.16437  0.02721  0.59062  1.0000
  H   H382      1.0  0.13508  0.10904  0.58053  1.0000
  H   H383      1.0  0.10751  0.12047  0.60745  1.0000
  H   H384      1.0  0.13060  0.04785  0.60784  1.0000
  H   H385      1.0  0.19308  0.04442  0.55681  1.0000
  H   H386      1.0  0.22602  0.03648  0.56688  1.0000
  H   H387      1.0  0.23019  0.05082  0.59387  1.0000
  H   H388      1.0  0.20123  0.07413  0.61027  1.0000
  H   H389      1.0  0.16834  0.08254  0.60027  1.0000
  C   C487      1.0  0.06659  0.11663  0.58195  1.0000
  H   H390      1.0  0.16378  0.06850  0.75829  1.0000
  H   H391      1.0  0.03644  0.17427  0.51953  1.0000
  H   H392      1.0  0.15990  0.05081  0.50793  1.0000
  H   H393      1.0  0.02928  0.99360  0.60542  1.0000
  H   H394      1.0  0.38545  0.15010  0.92853  1.0000
  Fe  Fe44      1.0  0.29858  0.98748  0.78047  1.0000
  C   C488      1.0  0.30325  0.02460  0.85856  1.0000
  C   C489      1.0  0.20913  0.04599  0.77124  1.0000
  C   C490      1.0  0.07626  0.14775  0.56307  1.0000
  C   C491      1.0  0.05227  0.09374  0.51562  1.0000
  H   H395      1.0  0.24063  0.07843  0.67229  1.0000
  C   C492      1.0  0.45412  0.12415  0.91700  1.0000
  C   C493      1.0  0.21329  0.07046  0.69212  1.0000
  H   H396      1.0  0.14238  0.07438  0.69952  1.0000
  H   H397      1.0  0.30390  0.02830  0.97379  1.0000
  H   H398      1.0  0.01689  0.05695  0.52026  1.0000
  C   C494      1.0  0.06812  0.14182  0.59935  1.0000
  H   H399      1.0  0.09132  0.16814  0.73105  1.0000
  H   H400      1.0  0.37628  0.10145  0.91547  1.0000
  H   H401      1.0  0.05965  0.11349  0.61400  1.0000
  H   H402      1.0  0.08095  0.15733  0.54897  1.0000
  C   C495      1.0  0.04307  0.08449  0.53450  1.0000
  S   S82       1.0  0.17507  0.99504  0.67313  1.0000
  C   C496      1.0  0.46639  0.04396  0.76587  1.0000
  H   H403      1.0  0.11869  0.12487  0.52678  1.0000
  H   H404      1.0  0.23424  0.06853  0.64343  1.0000
  C   C497      1.0  0.00088  0.14566  0.83075  1.0000
  H   H405      1.0  0.45097  0.05850  0.94354  1.0000
  C   C498      1.0  0.05011  0.00297  0.55598  1.0000
  H   H406      1.0  0.43213  0.17892  0.88770  1.0000
  H   H407      1.0  0.03377  0.17492  0.81169  1.0000
  C   C499      1.0  0.06411  0.12311  0.59986  1.0000
  H   H408      1.0  0.20307  0.05540  0.64698  1.0000
  H   H409      1.0  0.17878  0.05138  0.67912  1.0000
  C   C500      1.0  0.40552  0.03365  0.72237  1.0000
  C   C501      1.0  0.38604  0.03801  0.71832  1.0000
  C   C502      1.0  0.37027  0.05052  0.72882  1.0000
  C   C503      1.0  0.37397  0.05866  0.74339  1.0000
  C   C504      1.0  0.39339  0.05398  0.74788  1.0000
  C   C505      1.0  0.40921  0.04147  0.73717  1.0000
  P   P17       1.0  0.39796  0.06542  0.76614  1.0000
  C   C506      1.0  0.42454  0.05790  0.76737  1.0000
  C   C507      1.0  0.39172  0.09211  0.75703  1.0000
  C   C508      1.0  0.38027  0.10525  0.76971  1.0000
  C   C509      1.0  0.37521  0.12574  0.76219  1.0000
  C   C510      1.0  0.38151  0.13333  0.74195  1.0000
  C   C511      1.0  0.39286  0.12039  0.72917  1.0000
  C   C512      1.0  0.39788  0.09987  0.73664  1.0000
  C   C513      1.0  0.43173  0.03847  0.77706  1.0000
  C   C514      1.0  0.18896  0.04804  0.51449  1.0000
  H   H410      1.0  0.14247  0.99581  0.55809  1.0000
  C   C515      1.0  0.45936  0.06342  0.75645  1.0000
  C   C516      1.0  0.43850  0.07046  0.75726  1.0000
  C   C517      1.0  0.38303  0.05762  0.79070  1.0000
  C   C518      1.0  0.36919  0.04492  0.79378  1.0000
  C   C519      1.0  0.35678  0.04017  0.81256  1.0000
  C   C520      1.0  0.35806  0.04803  0.82840  1.0000
  C   C521      1.0  0.37233  0.06001  0.82570  1.0000
  C   C522      1.0  0.38503  0.06450  0.80701  1.0000
  H   H411      1.0  0.41765  0.02361  0.71453  1.0000
  H   H412      1.0  0.38301  0.03119  0.70749  1.0000
  S   S83       1.0  0.06690  0.15009  0.62122  1.0000
  H   H413      1.0  0.36163  0.06844  0.75135  1.0000
  H   H414      1.0  0.42437  0.03748  0.74019  1.0000
  H   H415      1.0  0.37464  0.09989  0.78532  1.0000
  H   H416      1.0  0.36602  0.13565  0.77212  1.0000
  C   C523      1.0  0.47306  0.11407  0.90827  1.0000
  H   H417      1.0  0.40654  0.09001  0.72651  1.0000
  H   H418      1.0  0.42131  0.02833  0.78435  1.0000
  C   C524      1.0  0.07568  0.17569  0.73134  1.0000
  C   C525      1.0  0.48871  0.05746  0.66817  1.0000
  H   H419      1.0  0.41868  0.00736  0.81915  1.0000
  H   H420      1.0  0.43351  0.08545  0.74956  1.0000
  H   H421      1.0  0.36752  0.03893  0.78174  1.0000
  H   H422      1.0  0.34555  0.03106  0.81457  1.0000
  H   H423      1.0  0.34782  0.04510  0.84272  1.0000
  H   H424      1.0  0.37310  0.06624  0.83801  1.0000
  H   H425      1.0  0.39580  0.07406  0.80508  1.0000
  H   H426      1.0  0.37543  0.14270  0.90031  1.0000
  H   H427      1.0  0.31441  0.02967  0.84562  1.0000
  C   C526      1.0  0.32483  0.01579  0.69467  1.0000
  C   C527      1.0  0.04377  0.17945  0.72120  1.0000
  H   H428      1.0  0.16053  0.17840  0.93047  1.0000
  H   H429      1.0  0.05623  0.09676  0.48394  1.0000
  H   H430      1.0  0.40712  0.09832  0.96196  1.0000
  S   S84       1.0  0.36701  0.99316  0.73509  1.0000
  C   C528      1.0  0.03016  0.07116  0.53642  1.0000
  C   C529      1.0  0.30227  0.05101  0.94733  1.0000
  C   C530      1.0  0.39491  0.01150  0.84513  1.0000
  C   C531      1.0  0.46143  0.03613  0.63433  1.0000
  C   C532      1.0  0.44185  0.03172  0.64123  1.0000
  C   C533      1.0  0.43670  0.01991  0.66006  1.0000
  C   C534      1.0  0.45111  0.01251  0.67200  1.0000
  C   C535      1.0  0.47066  0.01689  0.66516  1.0000
  C   C536      1.0  0.18902  0.05649  0.77284  1.0000
  S   S85       1.0  0.10717  0.13424  0.48877  1.0000
  C   C537      1.0  0.39770  0.15690  0.87791  1.0000
  H   H431      1.0  0.45826  0.12041  0.54081  1.0000
  C   C538      1.0  0.00647  0.15077  0.62351  1.0000
  C   C539      1.0  0.15107  0.11894  0.51514  1.0000
  H   H432      1.0  0.38158  0.08579  0.53773  1.0000
  H   H433      1.0  0.47788  0.04790  0.67575  1.0000
  H   H434      1.0  0.47905  0.07531  0.69089  1.0000
  H   H435      1.0  0.17474  0.09782  0.73040  1.0000
  C   C540      1.0  0.47598  0.02876  0.64629  1.0000
  H   H436      1.0  0.43070  0.03737  0.63193  1.0000
  C   C541      1.0  0.11941  0.00467  0.66453  1.0000
  H   H437      1.0  0.34533  0.12094  0.93330  1.0000
  H   H438      1.0  0.48169  0.01088  0.67459  1.0000
  H   H439      1.0  0.35083  0.10582  0.52551  1.0000
  C   C542      1.0  0.47472  0.10914  0.97357  1.0000
  H   H440      1.0  0.46510  0.04518  0.61969  1.0000
  H   H441      1.0  0.09119  0.09597  0.63430  1.0000
  H   H442      1.0  0.35510  0.05368  0.72586  1.0000
  H   H443      1.0  0.45247  0.13923  0.91923  1.0000
  H   H444      1.0  0.18570  0.03749  0.52832  1.0000
  H   H445      1.0  0.34364  0.10091  0.49496  1.0000
  H   H446      1.0  0.21662  0.04279  0.78367  1.0000
  H   H447      1.0  0.08539  0.00563  0.57489  1.0000
  C   C543      1.0  0.02561  0.02266  0.58622  1.0000
  H   H448      1.0  0.31462  0.02978  0.69705  1.0000
  H   H449      1.0  0.45772  0.13074  0.50480  1.0000
  H   H450      1.0  0.13198  0.09271  0.49971  1.0000
  H   H451      1.0  0.11711  0.10591  0.69766  1.0000
  C   C544      1.0  0.46957  0.12848  0.53078  1.0000
  H   H452      1.0  0.07739  0.16854  0.58046  1.0000
  C   C545      1.0  0.21783  0.99348  0.57224  1.0000
  C   C546      1.0  0.34579  0.01407  0.69230  1.0000
  C   C547      1.0  0.16975  0.10680  0.51804  1.0000
  H   H453      1.0  0.35346  0.04545  0.50417  1.0000
  C   C548      1.0  0.02936  0.18297  0.94610  1.0000
  C   C549      1.0  0.10068  0.00018  0.63556  1.0000
  P   P18       1.0  0.08830  0.99784  0.61686  1.0000
  C   C550      1.0  0.45257  0.03157  0.77636  1.0000
  H   H454      1.0  0.13609  0.05289  0.73515  1.0000
  C   C551      1.0  0.12676  0.01201  0.64443  1.0000
  C   C552      1.0  0.11763  0.00951  0.62997  1.0000
  H   H455      1.0  0.45806  0.01631  0.78324  1.0000
  C   C553      1.0  0.20819  0.05314  0.50791  1.0000
  C   C554      1.0  0.40065  0.99745  0.77273  1.0000
  C   C555      1.0  0.08725  0.02033  0.59773  1.0000
  C   C556      1.0  0.08595  0.01958  0.57848  1.0000
  C   C557      1.0  0.08527  0.03692  0.56366  1.0000
  C   C558      1.0  0.08611  0.05511  0.56787  1.0000
  C   C559      1.0  0.08723  0.05602  0.58702  1.0000
  C   C560      1.0  0.08740  0.03882  0.60199  1.0000
  S   S86       1.0  0.44108  0.98591  0.77532  1.0000
  H   H456      1.0  0.44736  0.00299  0.68646  1.0000
  H   H457      1.0  0.30284  0.06286  0.95437  1.0000
  H   H458      1.0  0.02217  0.15143  0.62266  1.0000
  C   C561      1.0  0.27658  0.17726  0.88779  1.0000
  H   H459      1.0  0.18082  0.06129  0.78663  1.0000
  S   S87       1.0  0.22468  0.00255  0.51236  1.0000
  H   H460      1.0  0.04547  0.11481  0.81486  1.0000
  H   H461      1.0  0.13970  0.01941  0.64013  1.0000
  H   H462      1.0  0.12383  0.01476  0.61443  1.0000
  H   H463      1.0  0.04983  0.02609  0.62624  1.0000
  Fe  Fe45      1.0  0.24836  0.00935  0.48420  1.0000
  H   H464      1.0  0.02045  0.17131  0.95218  1.0000
  C   C562      1.0  0.04538  0.99223  0.57537  1.0000
  H   H465      1.0  0.08420  0.03620  0.54889  1.0000
  H   H466      1.0  0.08566  0.06857  0.55642  1.0000
  H   H467      1.0  0.08776  0.07015  0.59032  1.0000
  H   H468      1.0  0.08763  0.04001  0.61686  1.0000
  C   C563      1.0  0.14881  0.00476  0.72862  1.0000
  C   C564      1.0  0.26874  0.01982  0.87335  1.0000
  P   P19       1.0  0.01755  0.05957  0.56071  1.0000
  C   C565      1.0  0.14555  0.03940  0.73058  1.0000
  C   C566      1.0  0.16617  0.03874  0.72129  1.0000
  C   C567      1.0  0.35899  0.11637  0.93932  1.0000
  P   P20       1.0  0.17795  0.05993  0.71787  1.0000
  C   C568      1.0  0.15971  0.08327  0.71622  1.0000
  C   C569      1.0  0.19018  0.05480  0.73869  1.0000
  C   C570      1.0  0.17949  0.06072  0.75669  1.0000
  C   C571      1.0  0.02679  0.06717  0.51914  1.0000
  C   C572      1.0  0.22710  0.07258  0.67382  1.0000
  C   C573      1.0  0.21959  0.03942  0.75363  1.0000
  C   C574      1.0  0.21008  0.04356  0.73751  1.0000
  C   C575      1.0  0.16196  0.09922  0.72366  1.0000
  C   C576      1.0  0.14780  0.11727  0.72221  1.0000
  C   C577      1.0  0.13152  0.11962  0.71303  1.0000
  C   C578      1.0  0.12960  0.10405  0.70499  1.0000
  C   C579      1.0  0.14381  0.08608  0.70629  1.0000
  C   C580      1.0  0.19601  0.06233  0.69441  1.0000
  C   C581      1.0  0.19231  0.05713  0.67793  1.0000
  C   C582      1.0  0.20605  0.05945  0.65962  1.0000
  C   C583      1.0  0.22353  0.06698  0.65759  1.0000
  H   H469      1.0  0.37500  0.99424  0.68915  1.0000
  H   H470      1.0  0.30309  0.00102  0.95783  1.0000
  H   H471      1.0  0.32518  0.16428  0.90852  1.0000
  C   C584      1.0  0.01569  0.18357  0.57355  1.0000
  H   H472      1.0  0.01596  0.17335  0.88371  1.0000
  H   H473      1.0  0.48955  0.08726  0.89755  1.0000
  H   H474      1.0  0.48390  0.12925  0.55397  1.0000
  C   C585      1.0  0.48420  0.13347  0.53818  1.0000
  C   C586      1.0  0.03087  0.17680  0.53460  1.0000
  C   C587      1.0  0.02183  0.16395  0.56998  1.0000
  C   C588      1.0  0.13686  0.02254  0.73395  1.0000
  H   H475      1.0  0.09747  0.98899  0.68578  1.0000
  C   C589      1.0  0.44110  0.12377  0.96715  1.0000
  C   C590      1.0  0.99876  0.13404  0.63515  1.0000
  H   H476      1.0  0.26028  0.00499  0.52556  1.0000
  C   C591      1.0  0.24854  0.00159  0.53852  1.0000
  H   H477      1.0  0.01231  0.15881  0.48739  1.0000
  C   C592      1.0  0.23659  0.99381  0.70378  1.0000
  C   C593      1.0  0.19867  0.07249  0.47724  1.0000
  H   H478      1.0  0.04780  0.07351  0.61075  1.0000
  C   C594      1.0  0.28316  0.98543  0.93392  1.0000
  C   C595      1.0  0.41971  0.17109  0.89052  1.0000
  C   C596      1.0  0.16574  0.16514  0.95996  1.0000
  C   C597      1.0  0.48916  0.07322  0.67677  1.0000
  C   C598      1.0  0.12367  0.17666  0.97287  1.0000
  H   H479      1.0  0.26717  0.99917  0.55951  1.0000
  C   C599      1.0  0.09350  0.99270  0.65581  1.0000
  H   H480      1.0  0.27908  0.00082  0.64425  1.0000
  H   H481      1.0  0.29744  0.18239  0.85959  1.0000
  C   C600      1.0  0.42046  0.98906  0.76377  1.0000
  C   C601      1.0  0.34728  0.18344  0.89774  1.0000
  H   H482      1.0  0.31906  0.01270  0.48591  1.0000
  S   S88       1.0  0.45650  0.18210  0.95270  1.0000
  H   H483      1.0  0.20597  0.99023  0.58514  1.0000
  C   C602      1.0  0.30276  0.03152  0.95830  1.0000
  H   H484      1.0  0.30710  0.99312  0.66209  1.0000
  C   C603      1.0  0.00408  0.06614  0.64657  1.0000
  H   H485      1.0  0.35302  0.17830  0.88374  1.0000
  H   H486      1.0  0.48695  0.07314  0.61354  1.0000
  H   H487      1.0  0.00907  0.11408  0.87394  1.0000
  H   H488      1.0  0.02423  0.10572  0.61362  1.0000
  H   H489      1.0  0.48614  0.12126  0.90401  1.0000
  H   H490      1.0  0.49718  0.08762  0.57784  1.0000
  S   S89       1.0  0.31014  0.98875  0.74769  1.0000
  C   C604      1.0  0.37150  0.98855  0.85478  1.0000
  C   C605      1.0  0.02410  0.18436  0.80186  1.0000
  H   H491      1.0  0.35507  0.18425  0.49841  1.0000
  H   H492      1.0  0.01913  0.18362  0.84719  1.0000
  C   C606      1.0  0.25805  0.18497  0.89964  1.0000
  H   H493      1.0  0.35349  0.98543  0.48380  1.0000
  C   C607      1.0  0.31436  0.98573  0.83659  1.0000
  C   C608      1.0  0.49804  0.06408  0.60382  1.0000
  H   H494      1.0  0.02037  0.28800  0.02520  1.0000
  H   H495      1.0  0.00778  0.27991  0.44996  1.0000
  Fe  Fe46      1.0  0.03352  0.32126  0.35472  1.0000
  S   S90       1.0  0.03853  0.29031  0.34944  1.0000
  S   S91       1.0  0.05744  0.34035  0.33999  1.0000
  C   C609      1.0  0.03062  0.20518  0.26964  1.0000
  C   C610      1.0  0.33938  0.19428  0.40382  1.0000
  H   H496      1.0  0.19534  0.19806  0.46136  1.0000
  C   C611      1.0  0.13936  0.20143  0.46553  1.0000
  H   H497      1.0  0.48313  0.32333  0.39165  1.0000
  C   C612      1.0  0.38578  0.37981  0.98365  1.0000
  Fe  Fe47      1.0  0.32555  0.32837  0.44252  1.0000
  H   H498      1.0  0.35506  0.19621  0.39893  1.0000
  S   S92       1.0  0.34067  0.29683  0.45416  1.0000
  Fe  Fe48      1.0  0.32502  0.36464  0.40922  1.0000
  C   C613      1.0  0.15300  0.30422  0.99485  1.0000
  H   H499      1.0  0.44150  0.25182  0.99683  1.0000
  H   H500      1.0  0.30138  0.28755  0.44991  1.0000
  Fe  Fe49      1.0  0.28579  0.34970  0.43010  1.0000
  S   S93       1.0  0.25454  0.34690  0.42765  1.0000
  S   S94       1.0  0.33790  0.35652  0.43684  1.0000
  S   S95       1.0  0.31565  0.33518  0.41336  1.0000
  Fe  Fe50      1.0  0.20683  0.28433  0.38004  1.0000
  S   S96       1.0  0.19931  0.25434  0.39609  1.0000
  S   S97       1.0  0.23817  0.29168  0.37633  1.0000
  Fe  Fe51      1.0  0.16530  0.29901  0.36850  1.0000
  S   S98       1.0  0.15411  0.27080  0.38405  1.0000
  S   S99       1.0  0.14863  0.32563  0.34986  1.0000
  Fe  Fe52      1.0  0.16887  0.27167  0.40836  1.0000
  S   S100      1.0  0.15476  0.26374  0.44090  1.0000
  Fe  Fe53      1.0  0.18504  0.25530  0.37066  1.0000
  S   S101      1.0  0.17720  0.30179  0.39423  1.0000
  S   S102      1.0  0.19555  0.28355  0.35310  1.0000
  S   S103      1.0  0.44343  0.21464  0.40132  1.0000
  Fe  Fe54      1.0  0.44546  0.23481  0.42055  1.0000
  S   S104      1.0  0.43295  0.26791  0.41466  1.0000
  H   H501      1.0  0.37661  0.35834  0.40787  1.0000
  C   C614      1.0  0.48894  0.32713  0.10345  1.0000
  Fe  Fe55      1.0  0.05079  0.24335  0.04219  1.0000
  S   S105      1.0  0.07984  0.22069  0.04390  1.0000
  C   C615      1.0  0.43663  0.26708  0.35948  1.0000
  Fe  Fe56      1.0  0.05881  0.26672  0.07010  1.0000
  S   S106      1.0  0.08791  0.24553  0.07380  1.0000
  S   S107      1.0  0.04903  0.29622  0.08087  1.0000
  Fe  Fe57      1.0  0.09407  0.24691  0.04113  1.0000
  S   S108      1.0  0.12408  0.25421  0.02332  1.0000
  Fe  Fe58      1.0  0.07111  0.22099  0.07675  1.0000
  S   S109      1.0  0.06602  0.26953  0.03710  1.0000
  S   S110      1.0  0.04086  0.24230  0.07543  1.0000
  H   H502      1.0  0.03291  0.20301  0.20658  1.0000
  Fe  Fe59      1.0  0.10336  0.35862  0.11899  1.0000
  C   C616      1.0  0.49169  0.25190  0.99218  1.0000
  S   S111      1.0  0.11000  0.32639  0.11533  1.0000
  C   C617      1.0  0.42135  0.28318  0.36467  1.0000
  H   H503      1.0  0.06445  0.35675  0.00500  1.0000
  H   H504      1.0  0.05862  0.23539  0.27715  1.0000
  C   C618      1.0  0.01019  0.21953  0.02722  1.0000
  C   C619      1.0  0.34006  0.21249  0.44817  1.0000
  C   C620      1.0  0.04962  0.19378  0.39628  1.0000
  C   C621      1.0  0.15518  0.28930  0.24637  1.0000
  H   H505      1.0  0.16498  0.28868  0.25628  1.0000
  Fe  Fe60      1.0  0.47036  0.20237  0.44601  1.0000
  C   C622      1.0  0.06679  0.30487  0.08917  1.0000
  C   C623      1.0  0.08395  0.29181  0.09492  1.0000
  C   C624      1.0  0.09718  0.29865  0.10267  1.0000
  C   C625      1.0  0.09338  0.31863  0.10482  1.0000
  C   C626      1.0  0.07637  0.33185  0.09885  1.0000
  C   C627      1.0  0.06316  0.32500  0.09099  1.0000
  H   H506      1.0  0.08690  0.27635  0.09366  1.0000
  H   H507      1.0  0.11031  0.28835  0.10722  1.0000
  H   H508      1.0  0.07323  0.34727  0.10059  1.0000
  H   H509      1.0  0.04985  0.33520  0.08672  1.0000
  S   S112      1.0  0.08841  0.19710  0.29865  1.0000
  H   H510      1.0  0.39737  0.25455  0.36577  1.0000
  C   C628      1.0  0.00603  0.29765  0.02290  1.0000
  C   C629      1.0  0.13242  0.24636  0.00045  1.0000
  H   H511      1.0  0.00373  0.31329  0.04624  1.0000
  C   C630      1.0  0.04225  0.21296  0.20743  1.0000
  C   C631      1.0  0.04879  0.31305  0.42925  1.0000
  H   H512      1.0  0.02037  0.32661  0.22607  1.0000
  H   H513      1.0  0.10767  0.23129  0.00436  1.0000
  H   H514      1.0  0.15264  0.19104  0.33234  1.0000
  H   H515      1.0  0.13398  0.25497  0.32218  1.0000
  C   C632      1.0  0.14334  0.24150  0.32866  1.0000
  H   H516      1.0  0.06744  0.23139  0.41462  1.0000
  C   C633      1.0  0.42835  0.27640  0.47414  1.0000
  C   C634      1.0  0.08901  0.26886  0.40946  1.0000
  C   C635      1.0  0.36645  0.28904  0.44355  1.0000
  C   C636      1.0  0.37897  0.30292  0.43380  1.0000
  C   C637      1.0  0.39946  0.29626  0.42520  1.0000
  C   C638      1.0  0.40750  0.27575  0.42639  1.0000
  C   C639      1.0  0.39507  0.26188  0.43647  1.0000
  C   C640      1.0  0.37458  0.26852  0.44502  1.0000
  H   H517      1.0  0.37282  0.31873  0.43279  1.0000
  H   H518      1.0  0.40905  0.30701  0.41748  1.0000
  H   H519      1.0  0.40118  0.24605  0.43757  1.0000
  C   C641      1.0  0.45837  0.33362  0.43730  1.0000
  C   C642      1.0  0.25044  0.33160  0.41307  1.0000
  C   C643      1.0  0.26620  0.32299  0.39904  1.0000
  C   C644      1.0  0.26220  0.31096  0.38775  1.0000
  C   C645      1.0  0.24250  0.30719  0.39058  1.0000
  C   C646      1.0  0.22677  0.31590  0.40451  1.0000
  C   C647      1.0  0.23070  0.32815  0.41557  1.0000
  H   H520      1.0  0.28145  0.32554  0.39694  1.0000
  H   H521      1.0  0.27445  0.30441  0.37691  1.0000
  H   H522      1.0  0.21154  0.31319  0.40681  1.0000
  H   H523      1.0  0.21840  0.33480  0.42632  1.0000
  H   H524      1.0  0.04415  0.26430  0.44656  1.0000
  H   H525      1.0  0.26859  0.27192  0.41383  1.0000
  H   H526      1.0  0.07045  0.32602  0.24071  1.0000
  H   H527      1.0  0.09373  0.19048  0.41089  1.0000
  C   C648      1.0  0.28155  0.26856  0.42088  1.0000
  C   C649      1.0  0.16950  0.22540  0.34776  1.0000
  C   C650      1.0  0.39944  0.34572  0.45291  1.0000
  C   C651      1.0  0.05331  0.23152  0.42553  1.0000
  H   H528      1.0  0.29798  0.33232  0.32303  1.0000
  H   H529      1.0  0.45236  0.25025  0.33651  1.0000
  C   C652      1.0  0.14295  0.23330  0.47046  1.0000
  H   H530      1.0  0.42312  0.18996  0.38773  1.0000
  C   C653      1.0  0.37090  0.23660  0.41165  1.0000
  C   C654      1.0  0.03660  0.25479  0.31764  1.0000
  C   C655      1.0  0.04352  0.23404  0.32301  1.0000
  C   C656      1.0  0.02953  0.22115  0.32967  1.0000
  H   H531      1.0  0.13135  0.19976  0.39351  1.0000
  H   H532      1.0  0.02351  0.33785  0.42675  1.0000
  C   C657      1.0  0.06566  0.19841  0.25141  1.0000
  H   H533      1.0  0.05954  0.22808  0.32258  1.0000
  H   H534      1.0  0.40671  0.36101  0.29297  1.0000
  C   C658      1.0  0.03518  0.24273  0.42023  1.0000
  C   C659      1.0  0.42815  0.18586  0.33305  1.0000
  H   H535      1.0  0.44426  0.34141  0.99748  1.0000
  C   C660      1.0  0.13052  0.29011  0.22034  1.0000
  C   C661      1.0  0.05326  0.22004  0.44466  1.0000
  S   S113      1.0  0.47922  0.22452  0.41831  1.0000
  H   H536      1.0  0.09428  0.19934  0.00944  1.0000
  H   H537      1.0  0.39845  0.20495  0.33511  1.0000
  C   C662      1.0  0.08315  0.33373  0.34235  1.0000
  C   C663      1.0  0.09042  0.31766  0.35655  1.0000
  C   C664      1.0  0.11098  0.31397  0.35831  1.0000
  C   C665      1.0  0.12404  0.32667  0.34619  1.0000
  C   C666      1.0  0.11692  0.34196  0.33141  1.0000
  C   C667      1.0  0.09663  0.34554  0.32958  1.0000
  H   H538      1.0  0.08013  0.30837  0.36637  1.0000
  H   H539      1.0  0.11652  0.30175  0.36944  1.0000
  H   H540      1.0  0.12707  0.35140  0.32158  1.0000
  H   H541      1.0  0.09126  0.35777  0.31837  1.0000
  H   H542      1.0  0.27133  0.29451  0.43463  1.0000
  C   C668      1.0  0.08241  0.19524  0.40177  1.0000
  H   H543      1.0  0.15811  0.25719  0.34185  1.0000
  H   H544      1.0  0.07244  0.23224  0.98693  1.0000
  C   C669      1.0  0.47978  0.34604  0.09442  1.0000
  H   H545      1.0  0.16425  0.21133  0.01739  1.0000
  C   C670      1.0  0.16774  0.20679  0.34510  1.0000
  H   H546      1.0  0.17936  0.27361  0.22654  1.0000
  H   H547      1.0  0.15200  0.23277  0.42108  1.0000
  C   C671      1.0  0.48313  0.36327  0.09856  1.0000
  C   C672      1.0  0.49455  0.20529  0.29885  1.0000
  C   C673      1.0  0.01152  0.37972  0.17654  1.0000
  C   C674      1.0  0.28310  0.28136  0.43253  1.0000
  C   C675      1.0  0.36371  0.18836  0.46648  1.0000
  C   C676      1.0  0.10223  0.25320  0.37443  1.0000
  C   C677      1.0  0.46053  0.31506  0.98593  1.0000
  H   H548      1.0  0.41310  0.35787  0.40560  1.0000
  S   S114      1.0  0.12587  0.22193  0.31040  1.0000
  C   C678      1.0  0.41220  0.34045  0.46667  1.0000
  Fe  Fe61      1.0  0.47622  0.20205  0.40216  1.0000
  C   C679      1.0  0.05302  0.20764  0.37838  1.0000
  S   S115      1.0  0.00675  0.28859  0.31383  1.0000
  H   H549      1.0  0.07330  0.22618  0.35860  1.0000
  H   H550      1.0  0.15251  0.30550  0.00985  1.0000
  H   H551      1.0  0.32803  0.25755  0.44559  1.0000
  H   H552      1.0  0.04192  0.21248  0.36903  1.0000
  H   H553      1.0  0.43972  0.33883  0.38264  1.0000
  H   H554      1.0  0.30795  0.35363  0.37099  1.0000
  C   C680      1.0  0.07891  0.30887  0.98242  1.0000
  C   C681      1.0  0.01736  0.23532  0.01302  1.0000
  C   C682      1.0  0.01695  0.23171  0.45388  1.0000
  C   C683      1.0  0.41072  0.19743  0.34275  1.0000
  C   C684      1.0  0.42382  0.33866  0.38404  1.0000
  C   C685      1.0  0.41827  0.32807  0.37256  1.0000
  H   H555      1.0  0.03719  0.27827  0.27273  1.0000
  H   H556      1.0  0.11922  0.25544  0.41461  1.0000
  H   H557      1.0  0.36653  0.25117  0.35623  1.0000
  C   C686      1.0  0.46743  0.25855  0.15337  1.0000
  H   H558      1.0  0.09493  0.21118  0.47036  1.0000
  C   C687      1.0  0.04440  0.18960  0.16097  1.0000
  S   S116      1.0  0.43658  0.21406  0.44949  1.0000
  C   C688      1.0  0.35833  0.19844  0.44839  1.0000
  C   C689      1.0  0.08792  0.37555  0.05282  1.0000
  C   C690      1.0  0.31499  0.26027  0.43882  1.0000
  C   C691      1.0  0.31325  0.24696  0.42768  1.0000
  C   C692      1.0  0.11309  0.32495  0.40373  1.0000
  C   C693      1.0  0.47452  0.29213  0.14289  1.0000
  C   C694      1.0  0.06846  0.34345  0.99857  1.0000
  H   H559      1.0  0.44434  0.19301  0.07450  1.0000
  C   C695      1.0  0.38667  0.24387  0.39701  1.0000
  Fe  Fe62      1.0  0.43716  0.19272  0.42999  1.0000
  H   H560      1.0  0.16531  0.38151  0.17766  1.0000
  C   C696      1.0  0.16341  0.28071  0.22946  1.0000
  H   H561      1.0  0.07429  0.30021  0.27078  1.0000
  C   C697      1.0  0.09928  0.31204  0.40861  1.0000
  H   H562      1.0  0.01301  0.32965  0.18839  1.0000
  H   H563      1.0  0.29541  0.24224  0.40867  1.0000
  C   C698      1.0  0.14179  0.22286  0.32585  1.0000
  H   H564      1.0  0.32051  0.33306  0.34490  1.0000
  H   H565      1.0  0.08992  0.31278  0.39825  1.0000
  H   H566      1.0  0.06047  0.28041  0.39960  1.0000
  C   C699      1.0  0.44036  0.26266  0.34053  1.0000
  C   C700      1.0  0.02684  0.30303  0.25058  1.0000
  S   S117      1.0  0.29490  0.34105  0.45979  1.0000
  H   H567      1.0  0.35414  0.34702  0.35421  1.0000
  H   H568      1.0  0.13465  0.30833  0.44425  1.0000
  C   C701      1.0  0.15697  0.24277  0.33981  1.0000
  H   H569      1.0  0.47053  0.34730  0.08379  1.0000
  C   C702      1.0  0.45304  0.33566  0.98434  1.0000
  C   C703      1.0  0.09786  0.29790  0.42649  1.0000
  C   C704      1.0  0.06250  0.21168  0.19671  1.0000
  C   C705      1.0  0.36797  0.30513  0.36990  1.0000
  C   C706      1.0  0.07087  0.21542  0.37239  1.0000
  H   H570      1.0  0.07570  0.25558  0.12749  1.0000
  C   C707      1.0  0.04069  0.28627  0.25745  1.0000
  C   C708      1.0  0.00192  0.24967  0.32515  1.0000
  H   H571      1.0  0.35746  0.30916  0.34267  1.0000
  H   H572      1.0  0.09995  0.21417  0.37871  1.0000
  H   H573      1.0  0.07765  0.18929  0.24240  1.0000
  C   C709      1.0  0.17123  0.29574  0.98340  1.0000
  C   C710      1.0  0.38515  0.24896  0.37705  1.0000
  H   H574      1.0  0.46249  0.29663  0.40309  1.0000
  H   H575      1.0  0.09312  0.23576  0.43942  1.0000
  H   H576      1.0  0.18637  0.34479  0.32631  1.0000
  C   C711      1.0  0.47991  0.19460  0.31133  1.0000
  H   H577      1.0  0.04452  0.35674  0.24262  1.0000
  C   C712      1.0  0.48880  0.23135  0.47486  1.0000
  H   H578      1.0  0.46839  0.22738  0.04851  1.0000
  H   H579      1.0  0.18597  0.34313  0.97967  1.0000
  C   C713      1.0  0.05493  0.22443  0.27091  1.0000
  Fe  Fe63      1.0  0.02061  0.28297  0.38063  1.0000
  H   H580      1.0  0.06006  0.23506  0.15863  1.0000
  H   H581      1.0  0.11785  0.19673  0.06876  1.0000
  H   H582      1.0  0.15543  0.18916  0.00048  1.0000
  H   H583      1.0  0.19573  0.20335  0.39974  1.0000
  H   H584      1.0  0.25115  0.19730  0.32560  1.0000
  C   C714      1.0  0.06130  0.31185  0.99720  1.0000
  S   S118      1.0  0.48923  0.19337  0.46970  1.0000
  C   C715      1.0  0.42856  0.27419  0.32690  1.0000
  C   C716      1.0  0.06559  0.23898  0.21060  1.0000
  H   H585      1.0  0.17728  0.19334  0.35126  1.0000
  H   H586      1.0  0.13057  0.24106  0.38398  1.0000
  H   H587      1.0  0.46900  0.30812  0.14138  1.0000
  C   C717      1.0  0.40995  0.29528  0.35085  1.0000
  C   C718      1.0  0.15372  0.20547  0.33445  1.0000
  H   H588      1.0  0.41123  0.37673  0.99685  1.0000
  C   C719      1.0  0.36782  0.24692  0.37167  1.0000
  H   H589      1.0  0.49836  0.37499  0.11489  1.0000
  C   C720      1.0  0.14791  0.24009  0.44986  1.0000
  H   H590      1.0  0.45663  0.24860  0.15955  1.0000
  P   P21       1.0  0.33290  0.22495  0.42480  1.0000
  H   H591      1.0  0.17268  0.34709  0.36689  1.0000
  H   H592      1.0  0.38060  0.33182  0.97845  1.0000
  C   C721      1.0  0.29994  0.27735  0.44127  1.0000
  H   H593      1.0  0.26361  0.35348  0.32606  1.0000
  C   C722      1.0  0.14198  0.20503  0.04433  1.0000
  C   C723      1.0  0.15254  0.20271  0.02514  1.0000
  C   C724      1.0  0.16990  0.34982  0.98304  1.0000
  C   C725      1.0  0.03133  0.31367  0.23102  1.0000
  H   H594      1.0  0.09969  0.37051  0.22504  1.0000
  C   C726      1.0  0.35364  0.23408  0.40630  1.0000
  C   C727      1.0  0.35209  0.23956  0.38623  1.0000
  S   S119      1.0  0.03736  0.19526  0.33741  1.0000
  C   C728      1.0  0.09118  0.28390  0.32516  1.0000
  C   C729      1.0  0.08613  0.26774  0.32059  1.0000
  C   C730      1.0  0.09280  0.26389  0.30132  1.0000
  C   C731      1.0  0.10454  0.27616  0.28661  1.0000
  C   C732      1.0  0.10915  0.29281  0.29099  1.0000
  C   C733      1.0  0.10281  0.29622  0.31054  1.0000
  P   P22       1.0  0.12353  0.30953  0.27214  1.0000
  C   C734      1.0  0.10740  0.33356  0.26540  1.0000
  C   C735      1.0  0.14318  0.31279  0.28291  1.0000
  C   C736      1.0  0.14835  0.33163  0.27970  1.0000
  C   C737      1.0  0.16294  0.33408  0.28894  1.0000
  C   C738      1.0  0.17236  0.31780  0.30142  1.0000
  C   C739      1.0  0.16736  0.29902  0.30458  1.0000
  C   C740      1.0  0.15290  0.29647  0.29530  1.0000
  C   C741      1.0  0.09213  0.34214  0.27991  1.0000
  C   C742      1.0  0.07978  0.36067  0.27467  1.0000
  C   C743      1.0  0.01333  0.30989  0.43872  1.0000
  C   C744      1.0  0.09755  0.36250  0.24035  1.0000
  C   C745      1.0  0.11041  0.34424  0.24564  1.0000
  C   C746      1.0  0.13452  0.29841  0.25034  1.0000
  C   C747      1.0  0.12221  0.29861  0.23728  1.0000
  H   H595      1.0  0.08620  0.28690  0.34007  1.0000
  H   H596      1.0  0.07736  0.25799  0.33205  1.0000
  H   H597      1.0  0.08954  0.25084  0.29805  1.0000
  H   H598      1.0  0.11005  0.27236  0.27204  1.0000
  H   H599      1.0  0.10706  0.30826  0.31463  1.0000
  H   H600      1.0  0.14100  0.34448  0.27034  1.0000
  H   H601      1.0  0.47646  0.37789  0.09117  1.0000
  H   H602      1.0  0.16669  0.34867  0.28670  1.0000
  H   H603      1.0  0.17442  0.28649  0.31455  1.0000
  H   H604      1.0  0.14914  0.28181  0.29803  1.0000
  H   H605      1.0  0.08950  0.33466  0.29531  1.0000
  C   C748      1.0  0.03095  0.37996  0.17867  1.0000
  C   C749      1.0  0.12826  0.36614  0.99170  1.0000
  H   H606      1.0  0.03056  0.36522  0.31260  1.0000
  H   H607      1.0  0.12272  0.33862  0.23427  1.0000
  H   H608      1.0  0.10620  0.30535  0.24020  1.0000
  H   H609      1.0  0.47341  0.30364  0.46913  1.0000
  H   H610      1.0  0.36671  0.33912  0.38843  1.0000
  C   C750      1.0  0.46060  0.27927  0.15075  1.0000
  C   C751      1.0  0.48834  0.20905  0.02833  1.0000
  C   C752      1.0  0.33684  0.29615  0.36802  1.0000
  C   C753      1.0  0.33269  0.28949  0.38862  1.0000
  C   C754      1.0  0.34652  0.28986  0.39975  1.0000
  C   C755      1.0  0.36421  0.29743  0.39038  1.0000
  C   C756      1.0  0.07007  0.21365  0.25812  1.0000
  H   H611      1.0  0.32621  0.29553  0.35943  1.0000
  H   H612      1.0  0.31877  0.28401  0.39596  1.0000
  H   H613      1.0  0.34347  0.28452  0.41570  1.0000
  H   H614      1.0  0.48024  0.34716  0.41347  1.0000
  C   C757      1.0  0.26583  0.36525  0.35077  1.0000
  H   H615      1.0  0.06735  0.21140  0.44840  1.0000
  H   H616      1.0  0.02722  0.33625  0.30603  1.0000
  P   P23       1.0  0.08139  0.28010  0.43124  1.0000
  H   H617      1.0  0.16811  0.34398  0.01455  1.0000
  H   H618      1.0  0.02439  0.22763  0.28787  1.0000
  H   H619      1.0  0.36498  0.25775  0.45276  1.0000
  H   H620      1.0  0.01508  0.21490  0.04125  1.0000
  C   C758      1.0  0.06090  0.32842  0.25487  1.0000
  C   C759      1.0  0.01921  0.28920  0.44432  1.0000
  C   C760      1.0  0.05605  0.32912  0.00528  1.0000
  H   H621      1.0  0.43941  0.29371  0.43584  1.0000
  H   H622      1.0  0.04900  0.20167  0.14911  1.0000
  C   C761      1.0  0.49159  0.18952  0.97806  1.0000
  C   C762      1.0  0.11060  0.29681  0.43939  1.0000
  C   C763      1.0  0.41326  0.29036  0.33208  1.0000
  C   C764      1.0  0.27300  0.35328  0.33624  1.0000
  H   H623      1.0  0.37224  0.23309  0.42706  1.0000
  H   H624      1.0  0.40406  0.29894  0.32148  1.0000
  H   H625      1.0  0.12101  0.29046  0.21023  1.0000
  H   H626      1.0  0.14554  0.21540  0.05142  1.0000
  C   C765      1.0  0.38832  0.34947  0.39845  1.0000
  C   C766      1.0  0.06423  0.18802  0.40815  1.0000
  P   P24       1.0  0.42981  0.31670  0.46802  1.0000
  C   C767      1.0  0.08214  0.37066  0.25486  1.0000
  H   H627      1.0  0.18328  0.31971  0.30900  1.0000
  C   C768      1.0  0.39767  0.32768  0.37436  1.0000
  P   P25       1.0  0.07333  0.19445  0.17977  1.0000
  C   C769      1.0  0.39940  0.34068  0.32084  1.0000
  C   C770      1.0  0.35448  0.30391  0.35863  1.0000
  C   C771      1.0  0.38273  0.33858  0.38730  1.0000
  C   C772      1.0  0.08245  0.26400  0.37911  1.0000
  C   C773      1.0  0.38439  0.33615  0.33790  1.0000
  C   C774      1.0  0.04549  0.24007  0.22130  1.0000
  H   H628      1.0  0.10830  0.24126  0.10701  1.0000
  C   C775      1.0  0.12561  0.32385  0.41672  1.0000
  C   C776      1.0  0.05484  0.29220  0.43465  1.0000
  C   C777      1.0  0.47298  0.32204  0.40618  1.0000
  C   C778      1.0  0.11581  0.31765  0.16535  1.0000
  C   C779      1.0  0.12222  0.32855  0.17585  1.0000
  C   C780      1.0  0.10852  0.33651  0.19150  1.0000
  C   C781      1.0  0.08836  0.33375  0.19656  1.0000
  C   C782      1.0  0.08165  0.32309  0.18589  1.0000
  C   C783      1.0  0.09565  0.31488  0.17033  1.0000
  P   P26       1.0  0.05534  0.32005  0.19239  1.0000
  C   C784      1.0  0.05113  0.30499  0.17698  1.0000
  C   C785      1.0  0.04985  0.30761  0.21818  1.0000
  C   C786      1.0  0.06385  0.29094  0.22531  1.0000
  C   C787      1.0  0.05924  0.28027  0.24484  1.0000
  H   H629      1.0  0.46627  0.20267  0.31954  1.0000
  H   H630      1.0  0.49218  0.22136  0.29757  1.0000
  H   H631      1.0  0.11083  0.28538  0.45272  1.0000
  C   C788      1.0  0.05240  0.31254  0.15652  1.0000
  C   C789      1.0  0.04794  0.30164  0.14465  1.0000
  C   C790      1.0  0.04230  0.28312  0.15296  1.0000
  C   C791      1.0  0.04090  0.27552  0.17331  1.0000
  C   C792      1.0  0.04512  0.28648  0.18532  1.0000
  C   C793      1.0  0.03791  0.34365  0.18771  1.0000
  C   C794      1.0  0.04407  0.36205  0.18432  1.0000
  H   H632      1.0  0.08289  0.29518  0.97677  1.0000
  C   C795      1.0  0.46786  0.37331  0.99410  1.0000
  C   C796      1.0  0.13539  0.31092  0.98700  1.0000
  C   C797      1.0  0.49539  0.28429  0.13732  1.0000
  H   H633      1.0  0.12630  0.31185  0.15288  1.0000
  H   H634      1.0  0.13766  0.33123  0.17155  1.0000
  H   H635      1.0  0.11331  0.34557  0.19916  1.0000
  H   H636      1.0  0.07782  0.34079  0.20815  1.0000
  H   H637      1.0  0.09117  0.30667  0.16162  1.0000
  H   H638      1.0  0.07822  0.28605  0.21565  1.0000
  H   H639      1.0  0.07008  0.26743  0.25030  1.0000
  C   C798      1.0  0.48361  0.21896  0.04428  1.0000
  C   C799      1.0  0.29253  0.34141  0.33436  1.0000
  S   S120      1.0  0.07550  0.37076  0.13993  1.0000
  H   H640      1.0  0.05671  0.32694  0.14974  1.0000
  H   H641      1.0  0.04866  0.30764  0.12897  1.0000
  H   H642      1.0  0.03882  0.27483  0.14359  1.0000
  H   H643      1.0  0.03626  0.26126  0.17981  1.0000
  H   H644      1.0  0.04330  0.28060  0.20108  1.0000
  H   H645      1.0  0.05916  0.36289  0.18519  1.0000
  H   H646      1.0  0.08549  0.21634  0.25423  1.0000
  C   C800      1.0  0.29670  0.25157  0.41821  1.0000
  C   C801      1.0  0.07855  0.26767  0.47210  1.0000
  H   H647      1.0  0.48887  0.23401  0.36854  1.0000
  C   C802      1.0  0.03377  0.22727  0.21948  1.0000
  C   C803      1.0  0.03508  0.21968  0.45877  1.0000
  C   C804      1.0  0.11529  0.24970  0.38750  1.0000
  H   H648      1.0  0.06410  0.26880  0.98394  1.0000
  H   H649      1.0  0.03906  0.25066  0.23118  1.0000
  C   C805      1.0  0.15976  0.35048  0.00276  1.0000
  H   H650      1.0  0.15903  0.25946  0.99268  1.0000
  P   P27       1.0  0.39026  0.31590  0.35806  1.0000
  H   H651      1.0  0.43135  0.27062  0.31228  1.0000
  H   H652      1.0  0.10734  0.24728  0.36083  1.0000
  C   C806      1.0  0.01695  0.24315  0.43453  1.0000
  H   H653      1.0  0.46484  0.25846  0.01465  1.0000
  C   C807      1.0  0.14798  0.22772  0.43701  1.0000
  C   C808      1.0  0.14226  0.18633  0.39056  1.0000
  C   C809      1.0  0.08579  0.20880  0.38380  1.0000
  H   H654      1.0  0.34678  0.37654  0.32830  1.0000
  H   H655      1.0  0.25518  0.19972  0.35869  1.0000
  C   C810      1.0  0.10215  0.20069  0.14414  1.0000
  C   C811      1.0  0.11084  0.21238  0.12647  1.0000
  H   H656      1.0  0.19268  0.21897  0.42826  1.0000
  H   H657      1.0  0.11202  0.37191  0.99489  1.0000
  C   C812      1.0  0.45759  0.25035  0.99020  1.0000
  C   C813      1.0  0.08391  0.26160  0.45367  1.0000
  C   C814      1.0  0.05112  0.31686  0.29031  1.0000
  C   C815      1.0  0.45181  0.38374  0.98456  1.0000
  C   C816      1.0  0.14359  0.20842  0.44487  1.0000
  Fe  Fe64      1.0  0.00845  0.29917  0.34076  1.0000
  C   C817      1.0  0.08313  0.24031  0.13226  1.0000
  C   C818      1.0  0.04609  0.34586  0.25611  1.0000
  C   C819      1.0  0.12926  0.22818  0.97673  1.0000
  H   H658      1.0  0.04252  0.33123  0.01694  1.0000
  H   H659      1.0  0.43007  0.32048  0.36210  1.0000
  H   H660      1.0  0.39963  0.33536  0.44371  1.0000
  H   H661      1.0  0.15757  0.27450  0.20335  1.0000
  H   H662      1.0  0.01824  0.22808  0.22781  1.0000
  C   C820      1.0  0.06326  0.31389  0.27189  1.0000
  C   C821      1.0  0.24441  0.19131  0.35767  1.0000
  C   C822      1.0  0.30538  0.20223  0.42366  1.0000
  C   C823      1.0  0.13893  0.35899  0.00720  1.0000
  C   C824      1.0  0.07398  0.22504  0.19816  1.0000
  P   P28       1.0  0.12536  0.35750  0.03275  1.0000
  C   C825      1.0  0.11714  0.33384  0.03949  1.0000
  C   C826      1.0  0.14134  0.35938  0.04840  1.0000
  C   C827      1.0  0.13873  0.34920  0.06826  1.0000
  C   C828      1.0  0.14979  0.35204  0.08096  1.0000
  Fe  Fe65      1.0  0.30654  0.36988  0.45183  1.0000
  C   C829      1.0  0.29953  0.18748  0.41737  1.0000
  H   H663      1.0  0.09569  0.35159  0.97890  1.0000
  C   C830      1.0  0.09808  0.33270  0.03682  1.0000
  C   C831      1.0  0.09231  0.31417  0.04065  1.0000
  C   C832      1.0  0.10564  0.29669  0.04683  1.0000
  C   C833      1.0  0.12467  0.29765  0.04941  1.0000
  C   C834      1.0  0.13045  0.31617  0.04574  1.0000
  C   C835      1.0  0.47077  0.25426  0.00024  1.0000
  H   H664      1.0  0.47679  0.20981  0.02023  1.0000
  C   C836      1.0  0.19575  0.20282  0.43012  1.0000
  H   H665      1.0  0.37488  0.29740  0.39910  1.0000
  C   C837      1.0  0.10148  0.23223  0.12066  1.0000
  H   H666      1.0  0.00217  0.20241  0.43528  1.0000
  C   C838      1.0  0.15113  0.28117  0.21643  1.0000
  C   C839      1.0  0.03653  0.33438  0.29167  1.0000
  C   C840      1.0  0.49546  0.36162  0.11191  1.0000
  H   H667      1.0  0.05983  0.32266  0.42344  1.0000
  H   H668      1.0  0.21630  0.35458  0.30103  1.0000
  H   H669      1.0  0.12770  0.33949  0.07418  1.0000
  H   H670      1.0  0.14742  0.34434  0.09638  1.0000
  H   H671      1.0  0.07473  0.24887  0.21198  1.0000
  C   C841      1.0  0.03372  0.34903  0.27462  1.0000
  H   H672      1.0  0.07199  0.26592  0.36949  1.0000
  H   H673      1.0  0.08764  0.34605  0.03179  1.0000
  H   H674      1.0  0.07741  0.31324  0.03912  1.0000
  H   H675      1.0  0.10115  0.28237  0.04976  1.0000
  H   H676      1.0  0.13491  0.28395  0.05417  1.0000
  H   H677      1.0  0.14539  0.31661  0.04752  1.0000
  H   H678      1.0  0.41454  0.33153  0.31907  1.0000
  C   C842      1.0  0.36548  0.34935  0.34055  1.0000
  S   S121      1.0  0.03422  0.24849  0.01703  1.0000
  S   S122      1.0  0.01797  0.31354  0.38680  1.0000
  C   C843      1.0  0.40884  0.34939  0.39697  1.0000
  H   H679      1.0  0.11450  0.33536  0.38958  1.0000
  C   C844      1.0  0.07586  0.27199  0.39644  1.0000
  H   H680      1.0  0.17120  0.36814  0.08412  1.0000
  H   H681      1.0  0.40004  0.24570  0.40116  1.0000
  H   H682      1.0  0.47576  0.23642  0.46792  1.0000
  C   C845      1.0  0.00902  0.18752  0.44169  1.0000
  H   H683      1.0  0.44555  0.25802  0.37022  1.0000
  C   C846      1.0  0.01083  0.24122  0.99491  1.0000
  C   C847      1.0  0.38617  0.36429  0.45111  1.0000
  C   C848      1.0  0.47139  0.33541  0.41849  1.0000
  C   C849      1.0  0.15489  0.37277  0.04150  1.0000
  C   C850      1.0  0.46145  0.30700  0.41261  1.0000
  C   C851      1.0  0.44839  0.30525  0.43135  1.0000
  C   C852      1.0  0.37604  0.37027  0.30865  1.0000
  H   H684      1.0  0.13675  0.33341  0.41271  1.0000
  C   C853      1.0  0.47096  0.37974  0.01010  1.0000
  C   C854      1.0  0.10879  0.25773  0.40483  1.0000
  S   S123      1.0  0.18796  0.22650  0.36043  1.0000
  S   S124      1.0  0.29442  0.37981  0.42380  1.0000
  C   C855      1.0  0.08962  0.24108  0.45321  1.0000
  H   H685      1.0  0.45778  0.30502  0.00020  1.0000
  H   H686      1.0  0.45720  0.34410  0.44670  1.0000
  C   C856      1.0  0.18593  0.35395  0.36359  1.0000
  H   H687      1.0  0.05185  0.30059  0.00259  1.0000
  C   C857      1.0  0.00880  0.22901  0.33046  1.0000
  H   H688      1.0  0.04728  0.26482  0.31302  1.0000
  C   C858      1.0  0.08637  0.18688  0.01429  1.0000
  C   C859      1.0  0.39511  0.35753  0.30613  1.0000
  H   H689      1.0  0.20717  0.32585  0.36457  1.0000
  H   H690      1.0  0.47808  0.36026  0.98917  1.0000
  C   C860      1.0  0.20171  0.36479  0.30216  1.0000
  H   H691      1.0  0.33864  0.23825  0.38189  1.0000
  C   C861      1.0  0.08396  0.20882  0.15614  1.0000
  C   C862      1.0  0.22254  0.35063  0.35799  1.0000
  C   C863      1.0  0.20537  0.34196  0.36217  1.0000
  H   H692      1.0  0.29447  0.21046  0.43423  1.0000
  C   C864      1.0  0.18489  0.35929  0.31642  1.0000
  S   S125      1.0  0.12443  0.37078  0.13047  1.0000
  H   H693      1.0  0.44450  0.28539  0.15495  1.0000
  C   C865      1.0  0.27849  0.36505  0.36348  1.0000
  C   C866      1.0  0.29812  0.35336  0.36140  1.0000
  C   C867      1.0  0.30517  0.34168  0.34677  1.0000
  S   S126      1.0  0.00421  0.33098  0.34379  1.0000
  H   H694      1.0  0.15655  0.38137  0.02645  1.0000
  C   C868      1.0  0.12163  0.23504  0.99475  1.0000
  C   C869      1.0  0.07434  0.22863  0.14989  1.0000
  C   C870      1.0  0.12432  0.30984  0.43455  1.0000
  H   H695      1.0  0.41840  0.28616  0.37953  1.0000
  H   H696      1.0  0.23732  0.34090  0.35765  1.0000
  C   C871      1.0  0.40892  0.19887  0.36247  1.0000
  C   C872      1.0  0.44689  0.31840  0.44392  1.0000
  H   H697      1.0  0.12471  0.20596  0.11712  1.0000
  H   H698      1.0  0.14428  0.19864  0.43499  1.0000
  C   C873      1.0  0.03024  0.38061  0.30506  1.0000
  C   C874      1.0  0.36129  0.36624  0.32592  1.0000
  C   C875      1.0  0.09856  0.38439  0.35446  1.0000
  C   C876      1.0  0.02811  0.32182  0.43127  1.0000
  C   C877      1.0  0.15052  0.25112  0.98800  1.0000
  H   H699      1.0  0.08946  0.22462  0.18966  1.0000
  H   H700      1.0  0.08778  0.36130  0.06306  1.0000
  C   C878      1.0  0.03986  0.28039  0.44229  1.0000
  H   H701      1.0  0.06826  0.36715  0.28607  1.0000
  P   P29       1.0  0.01429  0.37143  0.27668  1.0000
  P   P30       1.0  0.00569  0.19861  0.27804  1.0000
  H   H702      1.0  0.05286  0.30556  0.30359  1.0000
  S   S127      1.0  0.34261  0.37978  0.38037  1.0000
  C   C879      1.0  0.24217  0.18993  0.33904  1.0000
  C   C880      1.0  0.03539  0.22000  0.27692  1.0000
  C   C881      1.0  0.06513  0.19066  0.01721  1.0000
  H   H703      1.0  0.01640  0.25332  0.98377  1.0000
  S   S128      1.0  0.08196  0.19485  0.10016  1.0000
  S   S129      1.0  0.03580  0.25285  0.39492  1.0000
  H   H704      1.0  0.48323  0.37145  0.01753  1.0000
  Fe  Fe66      1.0  0.11299  0.19408  0.31516  1.0000
  C   C882      1.0  0.01814  0.34361  0.18596  1.0000
  H   H705      1.0  0.23402  0.37189  0.39355  1.0000
  C   C883      1.0  0.01577  0.26260  0.31882  1.0000
  C   C884      1.0  0.32513  0.20628  0.41631  1.0000
  C   C885      1.0  0.40644  0.37828  0.98307  1.0000
  H   H706      1.0  0.01138  0.22373  0.40476  1.0000
  H   H707      1.0  0.05670  0.20592  0.01488  1.0000
  H   H708      1.0  0.37607  0.36817  0.44076  1.0000
  H   H709      1.0  0.10029  0.19072  0.20761  1.0000
  C   C886      1.0  0.22038  0.37149  0.35486  1.0000
  C   C887      1.0  0.42466  0.18903  0.37237  1.0000
  H   H710      1.0  0.15315  0.36759  0.32894  1.0000
  C   C888      1.0  0.16601  0.37235  0.31793  1.0000
  C   C889      1.0  0.00887  0.38336  0.25241  1.0000
  H   H711      1.0  0.00281  0.23160  0.46480  1.0000
  H   H712      1.0  0.39527  0.20740  0.37023  1.0000
  H   H713      1.0  0.48647  0.26557  0.43936  1.0000
  H   H714      1.0  0.36849  0.19527  0.43461  1.0000
  C   C890      1.0  0.00235  0.21909  0.39697  1.0000
  H   H715      1.0  0.44484  0.27380  0.47070  1.0000
  H   H716      1.0  0.12152  0.31749  0.99617  1.0000
  H   H717      1.0  0.07359  0.28339  0.47280  1.0000
  C   C891      1.0  0.48822  0.25064  0.14820  1.0000
  C   C892      1.0  0.04603  0.19425  0.25703  1.0000
  H   H718      1.0  0.16466  0.19349  0.40192  1.0000
  C   C893      1.0  0.38566  0.37780  0.46287  1.0000
  C   C894      1.0  0.16326  0.36535  0.07402  1.0000
  C   C895      1.0  0.19733  0.19101  0.44880  1.0000
  H   H719      1.0  0.00418  0.28413  0.99950  1.0000
  H   H720      1.0  0.27356  0.37421  0.37471  1.0000
  C   C896      1.0  0.10411  0.37799  0.03635  1.0000
  C   C897      1.0  0.32684  0.21562  0.46632  1.0000
  H   H721      1.0  0.18486  0.29058  0.98947  1.0000
  C   C898      1.0  0.00502  0.36157  0.18042  1.0000
  H   H722      1.0  0.08750  0.37485  0.35735  1.0000
  C   C899      1.0  0.18364  0.37473  0.36053  1.0000
  H   H723      1.0  0.48616  0.31407  0.09988  1.0000
  H   H724      1.0  0.49577  0.29795  0.43773  1.0000
  H   H725      1.0  0.49356  0.23457  0.15048  1.0000
  H   H726      1.0  0.01272  0.30788  0.26063  1.0000
  H   H727      1.0  0.00284  0.25158  0.43044  1.0000
  C   C900      1.0  0.00683  0.19940  0.39382  1.0000
  H   H728      1.0  0.31222  0.22566  0.46665  1.0000
  C   C901      1.0  0.14737  0.19005  0.01555  1.0000
  H   H729      1.0  0.40637  0.19394  0.98420  1.0000
  P   P31       1.0  0.24214  0.38307  0.35048  1.0000
  C   C902      1.0  0.16584  0.37569  0.05429  1.0000
  C   C903      1.0  0.12628  0.19462  0.05402  1.0000
  H   H730      1.0  0.49497  0.22607  0.06676  1.0000
  H   H731      1.0  0.37475  0.37992  0.99763  1.0000
  H   H732      1.0  0.13586  0.37395  0.16889  1.0000
  C   C904      1.0  0.08607  0.34052  0.98373  1.0000
  C   C905      1.0  0.19732  0.19387  0.41406  1.0000
  H   H733      1.0  0.10633  0.38469  0.32320  1.0000
  C   C906      1.0  0.13336  0.38453  0.17849  1.0000
  C   C907      1.0  0.41684  0.29594  0.47358  1.0000
  C   C908      1.0  0.19961  0.38336  0.28924  1.0000
  H   H734      1.0  0.37284  0.38356  0.29747  1.0000
  H   H735      1.0  0.16856  0.38398  0.36156  1.0000
  C   C909      1.0  0.09043  0.22696  0.47085  1.0000
  C   C910      1.0  0.20079  0.38348  0.35625  1.0000
  H   H736      1.0  0.47420  0.18579  0.09017  1.0000
  H   H737      1.0  0.10969  0.18537  0.14825  1.0000
  H   H738      1.0  0.07231  0.38493  0.25082  1.0000
  S   S130      1.0  0.09998  0.38478  0.09381  1.0000
  C   C911      1.0  0.49863  0.21828  0.05449  1.0000
  C   C912      1.0  0.27149  0.20673  0.86186  1.0000
  Fe  Fe67      1.0  0.47466  0.20784  0.89900  1.0000
  H   H739      1.0  0.43498  0.30694  0.53808  1.0000
  H   H740      1.0  0.02520  0.29211  0.91693  1.0000
  H   H741      1.0  0.18568  0.28639  0.95549  1.0000
  C   C913      1.0  0.35645  0.20278  0.84487  1.0000
  Fe  Fe68      1.0  0.07369  0.22429  0.77088  1.0000
  S   S131      1.0  0.04861  0.25123  0.76769  1.0000
  H   H742      1.0  0.43735  0.32526  0.93614  1.0000
  Fe  Fe69      1.0  0.08964  0.24021  0.79990  1.0000
  S   S132      1.0  0.06578  0.26837  0.79917  1.0000
  S   S133      1.0  0.11583  0.23093  0.81608  1.0000
  Fe  Fe70      1.0  0.04453  0.24815  0.80072  1.0000
  H   H743      1.0  0.28107  0.34089  0.90427  1.0000
  Fe  Fe71      1.0  0.07171  0.26936  0.76636  1.0000
  S   S134      1.0  0.07609  0.29640  0.74211  1.0000
  S   S135      1.0  0.06780  0.21967  0.80423  1.0000
  S   S136      1.0  0.09732  0.24277  0.76675  1.0000
  C   C914      1.0  0.00610  0.32330  0.78045  1.0000
  H   H744      1.0  0.48363  0.20300  0.97007  1.0000
  C   C915      1.0  0.40298  0.25210  0.87144  1.0000
  H   H745      1.0  0.27673  0.21507  0.84718  1.0000
  H   H746      1.0  0.39937  0.20874  0.90511  1.0000
  C   C916      1.0  0.15414  0.29982  0.95648  1.0000
  C   C917      1.0  0.05456  0.20288  0.60677  1.0000
  H   H747      1.0  0.38855  0.19769  0.84401  1.0000
  H   H748      1.0  0.04050  0.21296  0.75039  1.0000
  H   H749      1.0  0.05401  0.26632  0.71630  1.0000
  C   C918      1.0  0.43289  0.31209  0.50733  1.0000
  S   S137      1.0  0.44316  0.21747  0.91623  1.0000
  Fe  Fe72      1.0  0.18940  0.28559  0.90441  1.0000
  S   S138      1.0  0.20442  0.25381  0.91502  1.0000
  S   S139      1.0  0.19085  0.31517  0.91150  1.0000
  Fe  Fe73      1.0  0.16598  0.27300  0.87879  1.0000
  S   S140      1.0  0.17973  0.24054  0.88682  1.0000
  S   S141      1.0  0.13992  0.28580  0.86238  1.0000
  Fe  Fe74      1.0  0.17385  0.24613  0.91781  1.0000
  Fe  Fe75      1.0  0.20902  0.25078  0.88315  1.0000
  S   S142      1.0  0.23891  0.23798  0.86460  1.0000
  S   S143      1.0  0.15851  0.27801  0.91005  1.0000
  S   S144      1.0  0.19587  0.28309  0.87226  1.0000
  H   H750      1.0  0.15494  0.29811  0.94154  1.0000
  H   H751      1.0  0.07949  0.26513  0.88587  1.0000
  H   H752      1.0  0.00269  0.26753  0.93314  1.0000
  C   C919      1.0  0.00339  0.18875  0.77773  1.0000
  C   C920      1.0  0.03452  0.21603  0.94533  1.0000
  C   C921      1.0  0.37126  0.19595  0.95736  1.0000
  H   H753      1.0  0.18042  0.21170  0.63520  1.0000
  H   H754      1.0  0.27979  0.35904  0.84535  1.0000
  C   C922      1.0  0.38321  0.18867  0.97177  1.0000
  H   H755      1.0  0.33593  0.36973  0.48261  1.0000
  C   C923      1.0  0.15774  0.24496  0.96966  1.0000
  H   H756      1.0  0.38686  0.23064  0.85181  1.0000
  C   C924      1.0  0.00593  0.22225  0.88353  1.0000
  C   C925      1.0  0.17069  0.21801  0.64770  1.0000
  C   C926      1.0  0.23044  0.37602  0.50705  1.0000
  P   P32       1.0  0.23506  0.36201  0.85688  1.0000
  H   H757      1.0  0.01024  0.20246  0.96551  1.0000
  S   S145      1.0  0.01248  0.25350  0.81861  1.0000
  C   C927      1.0  0.24812  0.34396  0.87473  1.0000
  C   C928      1.0  0.01034  0.24224  0.84377  1.0000
  H   H758      1.0  0.04751  0.23665  0.70743  1.0000
  H   H759      1.0  0.14286  0.24280  0.48043  1.0000
  H   H760      1.0  0.10519  0.32612  0.91613  1.0000
  C   C929      1.0  0.23364  0.32944  0.94409  1.0000
  C   C930      1.0  0.22056  0.34465  0.93407  1.0000
  C   C931      1.0  0.20738  0.33989  0.92451  1.0000
  C   C932      1.0  0.20742  0.31991  0.92443  1.0000
  C   C933      1.0  0.22033  0.30461  0.93463  1.0000
  C   C934      1.0  0.23316  0.30938  0.94468  1.0000
  H   H761      1.0  0.22037  0.36010  0.93398  1.0000
  H   H762      1.0  0.19719  0.35176  0.91698  1.0000
  H   H763      1.0  0.22045  0.28916  0.93476  1.0000
  H   H764      1.0  0.24302  0.29751  0.95261  1.0000
  H   H765      1.0  0.11170  0.21384  0.69336  1.0000
  C   C935      1.0  0.05641  0.32442  0.76572  1.0000
  H   H766      1.0  0.05540  0.31204  0.77820  1.0000
  H   H767      1.0  0.17065  0.22071  0.69493  1.0000
  C   C936      1.0  0.48607  0.24189  0.96367  1.0000
  H   H768      1.0  0.47430  0.21965  0.52672  1.0000
  H   H769      1.0  0.02810  0.28730  0.85799  1.0000
  H   H770      1.0  0.49806  0.32305  0.89737  1.0000
  C   C937      1.0  0.13518  0.20374  0.75214  1.0000
  H   H771      1.0  0.46750  0.35866  0.66186  1.0000
  C   C938      1.0  0.11784  0.34311  0.93977  1.0000
  H   H772      1.0  0.10310  0.30296  0.89601  1.0000
  H   H773      1.0  0.14070  0.21802  0.90993  1.0000
  H   H774      1.0  0.02702  0.20876  0.52555  1.0000
  H   H775      1.0  0.00932  0.35117  0.88321  1.0000
  C   C939      1.0  0.14028  0.36449  0.91713  1.0000
  C   C940      1.0  0.25298  0.21444  0.87372  1.0000
  S   S146      1.0  0.44813  0.23664  0.96154  1.0000
  C   C941      1.0  0.05294  0.25186  0.90051  1.0000
  H   H776      1.0  0.12321  0.18802  0.94183  1.0000
  C   C942      1.0  0.46521  0.24356  0.97221  1.0000
  C   C943      1.0  0.38890  0.33278  0.96314  1.0000
  H   H777      1.0  0.14406  0.37931  0.80838  1.0000
  H   H778      1.0  0.05899  0.27601  0.92339  1.0000
  C   C944      1.0  0.28688  0.36769  0.81366  1.0000
  H   H779      1.0  0.16689  0.23274  0.75461  1.0000
  H   H780      1.0  0.07005  0.19399  0.90983  1.0000
  H   H781      1.0  0.26322  0.36519  0.87984  1.0000
  H   H782      1.0  0.07563  0.25828  0.50385  1.0000
  C   C945      1.0  0.12175  0.24629  0.82938  1.0000
  C   C946      1.0  0.10838  0.26373  0.83412  1.0000
  C   C947      1.0  0.11387  0.27551  0.84465  1.0000
  C   C948      1.0  0.13277  0.27002  0.85040  1.0000
  C   C949      1.0  0.14595  0.25244  0.84591  1.0000
  C   C950      1.0  0.14045  0.24065  0.83546  1.0000
  H   H783      1.0  0.09389  0.26812  0.82962  1.0000
  H   H784      1.0  0.10344  0.28888  0.84833  1.0000
  H   H785      1.0  0.16054  0.24807  0.85019  1.0000
  H   H786      1.0  0.15083  0.22715  0.83192  1.0000
  C   C951      1.0  0.06560  0.32078  0.74658  1.0000
  C   C952      1.0  0.47585  0.32025  0.95080  1.0000
  C   C953      1.0  0.05838  0.35657  0.73337  1.0000
  C   C954      1.0  0.06665  0.33692  0.73046  1.0000
  H   H787      1.0  0.12108  0.21923  0.97240  1.0000
  H   H788      1.0  0.07366  0.33421  0.71560  1.0000
  C   C955      1.0  0.01430  0.29406  0.93066  1.0000
  H   H789      1.0  0.07651  0.36959  0.77487  1.0000
  H   H790      1.0  0.01648  0.32211  0.76625  1.0000
  C   C956      1.0  0.13095  0.21370  0.88504  1.0000
  C   C957      1.0  0.05483  0.27798  0.87071  1.0000
  C   C958      1.0  0.03889  0.33570  0.82637  1.0000
  C   C959      1.0  0.38903  0.34074  0.92785  1.0000
  C   C960      1.0  0.46827  0.34082  0.94914  1.0000
  C   C961      1.0  0.08555  0.23314  0.48907  1.0000
  H   H791      1.0  0.23198  0.20926  0.90183  1.0000
  H   H792      1.0  0.36935  0.28465  0.48704  1.0000
  C   C962      1.0  0.13753  0.34644  0.93017  1.0000
  C   C963      1.0  0.03294  0.19492  0.63923  1.0000
  H   H793      1.0  0.00432  0.38197  0.69282  1.0000
  C   C964      1.0  0.06755  0.35263  0.81329  1.0000
  C   C965      1.0  0.12687  0.33951  0.84068  1.0000
  Fe  Fe76      1.0  0.45918  0.21430  0.94105  1.0000
  C   C966      1.0  0.16500  0.22313  0.68147  1.0000
  H   H794      1.0  0.41379  0.25875  0.85911  1.0000
  H   H795      1.0  0.28786  0.26279  0.92652  1.0000
  H   H796      1.0  0.11821  0.27591  0.96336  1.0000
  H   H797      1.0  0.11513  0.27889  0.76053  1.0000
  S   S147      1.0  0.00354  0.20869  0.90792  1.0000
  H   H798      1.0  0.47257  0.29561  0.53115  1.0000
  C   C967      1.0  0.35582  0.19769  0.90188  1.0000
  H   H799      1.0  0.22808  0.36450  0.50056  1.0000
  H   H800      1.0  0.49813  0.33445  0.68080  1.0000
  C   C968      1.0  0.48862  0.38477  0.76368  1.0000
  C   C969      1.0  0.18237  0.33415  0.85383  1.0000
  C   C970      1.0  0.06299  0.23841  0.70591  1.0000
  C   C971      1.0  0.06113  0.27473  0.95333  1.0000
  C   C972      1.0  0.11752  0.33355  0.82838  1.0000
  H   H801      1.0  0.17167  0.24885  0.96001  1.0000
  S   S148      1.0  0.49081  0.20732  0.92289  1.0000
  H   H802      1.0  0.03793  0.20982  0.87576  1.0000
  C   C973      1.0  0.03546  0.19519  0.73170  1.0000
  H   H803      1.0  0.15457  0.27109  0.80087  1.0000
  H   H804      1.0  0.15225  0.20311  0.77385  1.0000
  C   C974      1.0  0.48559  0.35457  0.89474  1.0000
  H   H805      1.0  0.41642  0.31636  0.51064  1.0000
  C   C975      1.0  0.27356  0.36376  0.83206  1.0000
  C   C976      1.0  0.06572  0.24539  0.93907  1.0000
  H   H806      1.0  0.02554  0.21135  0.81044  1.0000
  H   H807      1.0  0.06354  0.28770  0.85914  1.0000
  C   C977      1.0  0.13673  0.36647  0.81395  1.0000
  H   H808      1.0  0.05768  0.29083  0.95198  1.0000
  C   C978      1.0  0.01877  0.19115  0.63035  1.0000
  H   H809      1.0  0.10598  0.22773  0.92882  1.0000
  P   P33       1.0  0.06544  0.23401  0.91891  1.0000
  H   H810      1.0  0.46564  0.31372  0.89956  1.0000
  C   C979      1.0  0.13594  0.30902  0.96757  1.0000
  H   H811      1.0  0.11504  0.25320  0.94315  1.0000
  C   C980      1.0  0.46812  0.36943  0.89367  1.0000
  C   C981      1.0  0.12754  0.36041  0.80155  1.0000
  H   H812      1.0  0.08032  0.30458  0.80576  1.0000
  S   S149      1.0  0.08243  0.19747  0.75553  1.0000
  C   C982      1.0  0.05153  0.21384  0.92955  1.0000
  C   C983      1.0  0.39845  0.37279  0.47642  1.0000
  C   C984      1.0  0.13593  0.27283  0.78019  1.0000
  C   C985      1.0  0.11796  0.34379  0.80866  1.0000
  H   H813      1.0  0.02255  0.32122  0.93221  1.0000
  H   H814      1.0  0.01370  0.21499  0.55986  1.0000
  C   C986      1.0  0.14286  0.28039  0.79320  1.0000
  C   C987      1.0  0.12963  0.21387  0.73414  1.0000
  H   H815      1.0  0.15088  0.33518  0.93254  1.0000
  C   C988      1.0  0.37834  0.33924  0.94764  1.0000
  C   C989      1.0  0.05727  0.19603  0.92213  1.0000
  H   H816      1.0  0.19277  0.36438  0.87918  1.0000
  C   C990      1.0  0.40795  0.35182  0.86370  1.0000
  C   C991      1.0  0.37928  0.38126  0.96618  1.0000
  H   H817      1.0  0.39772  0.38322  0.48577  1.0000
  C   C992      1.0  0.10794  0.22399  0.91444  1.0000
  H   H818      1.0  0.15735  0.25069  0.72276  1.0000
  H   H819      1.0  0.07640  0.21060  0.69597  1.0000
  C   C993      1.0  0.20113  0.33079  0.84064  1.0000
  C   C994      1.0  0.48525  0.20920  0.53462  1.0000
  C   C995      1.0  0.49849  0.21123  0.47695  1.0000
  H   H820      1.0  0.13017  0.37119  0.96009  1.0000
  C   C996      1.0  0.15654  0.22746  0.74883  1.0000
  C   C997      1.0  0.12064  0.28470  0.77052  1.0000
  C   C998      1.0  0.04831  0.34417  0.76863  1.0000
  C   C999      1.0  0.02493  0.21969  0.87051  1.0000
  C   C1000     1.0  0.13403  0.29956  0.79711  1.0000
  C   C1001     1.0  0.10849  0.27670  0.91849  1.0000
  H   H821      1.0  0.45219  0.31955  0.86521  1.0000
  C   C1002     1.0  0.37307  0.22658  0.85093  1.0000
  P   P34       1.0  0.00396  0.18818  0.59831  1.0000
  H   H822      1.0  0.12682  0.33114  0.85574  1.0000
  C   C1003     1.0  0.10748  0.35272  0.76920  1.0000
  H   H823      1.0  0.04387  0.20044  0.58185  1.0000
  C   C1004     1.0  0.06497  0.26241  0.97122  1.0000
  C   C1005     1.0  0.26109  0.34985  0.88355  1.0000
  C   C1006     1.0  0.02379  0.26501  0.88479  1.0000
  C   C1007     1.0  0.41017  0.32785  0.95887  1.0000
  H   H824      1.0  0.01987  0.20285  0.73181  1.0000
  H   H825      1.0  0.35735  0.18838  0.84130  1.0000
  P   P35       1.0  0.49583  0.38134  0.72396  1.0000
  S   S150      1.0  0.30140  0.37560  0.87442  1.0000
  H   H826      1.0  0.08890  0.27014  0.71334  1.0000
  C   C1008     1.0  0.11826  0.31135  0.78783  1.0000
  C   C1009     1.0  0.01942  0.20499  0.80128  1.0000
  C   C1010     1.0  0.04929  0.36032  0.75246  1.0000
  H   H827      1.0  0.45937  0.28608  0.85702  1.0000
  C   C1011     1.0  0.06382  0.26512  0.88589  1.0000
  C   C1012     1.0  0.34849  0.20429  0.92005  1.0000
  H   H828      1.0  0.99947  0.35551  0.77396  1.0000
  C   C1013     1.0  0.09326  0.38147  0.74646  1.0000
  H   H829      1.0  0.35187  0.25440  0.94955  1.0000
  C   C1014     1.0  0.10095  0.35799  0.93566  1.0000
  C   C1015     1.0  0.21394  0.35246  0.85458  1.0000
  H   H830      1.0  0.10802  0.26659  0.90932  1.0000
  C   C1016     1.0  0.49699  0.35480  0.69965  1.0000
  C   C1017     1.0  0.11264  0.26916  0.93748  1.0000
  H   H831      1.0  0.48087  0.36049  0.70062  1.0000
  C   C1018     1.0  0.15926  0.35734  0.96767  1.0000
  P   P36       1.0  0.11412  0.31952  0.95621  1.0000
  C   C1019     1.0  0.25560  0.31029  0.89388  1.0000
  H   H832      1.0  0.06210  0.20305  0.63440  1.0000
  C   C1020     1.0  0.17173  0.29336  0.96429  1.0000
  H   H833      1.0  0.14593  0.23150  0.63257  1.0000
  C   C1021     1.0  0.10718  0.31031  0.92243  1.0000
  H   H834      1.0  0.42370  0.22390  0.87681  1.0000
  H   H835      1.0  0.36184  0.34335  0.95094  1.0000
  H   H836      1.0  0.04185  0.22767  0.84072  1.0000
  C   C1022     1.0  0.02716  0.22974  0.85066  1.0000
  H   H837      1.0  0.48777  0.26022  0.48113  1.0000
  C   C1023     1.0  0.44333  0.30661  0.52293  1.0000
  H   H838      1.0  0.12367  0.24596  0.66097  1.0000
  C   C1024     1.0  0.04710  0.20096  0.74222  1.0000
  C   C1025     1.0  0.42901  0.31287  0.89166  1.0000
  H   H839      1.0  0.11768  0.30875  0.72328  1.0000
  H   H840      1.0  0.49207  0.23696  0.94961  1.0000
  S   S151      1.0  0.25025  0.33508  0.95644  1.0000
  H   H841      1.0  0.36336  0.38198  0.96667  1.0000
  C   C1026     1.0  0.46484  0.30507  0.48394  1.0000
  C   C1027     1.0  0.07932  0.22373  0.69939  1.0000
  H   H842      1.0  0.40929  0.22648  0.96153  1.0000
  C   C1028     1.0  0.46448  0.30027  0.51905  1.0000
  C   C1029     1.0  0.33231  0.20557  0.48437  1.0000
  C   C1030     1.0  0.12596  0.35103  0.75508  1.0000
  C   C1031     1.0  0.13865  0.23725  0.66237  1.0000
  C   C1032     1.0  0.08661  0.25712  0.70930  1.0000
  C   C1033     1.0  0.13051  0.27094  0.69725  1.0000
  S   S152      1.0  0.25370  0.38361  0.91683  1.0000
  C   C1034     1.0  0.02354  0.20062  0.95357  1.0000
  C   C1035     1.0  0.24515  0.37304  0.81544  1.0000
  H   H843      1.0  0.42470  0.37969  0.93332  1.0000
  C   C1036     1.0  0.04042  0.19911  0.59783  1.0000
  H   H844      1.0  0.01098  0.29152  0.79146  1.0000
  C   C1037     1.0  0.06664  0.25506  0.71092  1.0000
  C   C1038     1.0  0.12382  0.30113  0.71079  1.0000
  C   C1039     1.0  0.13136  0.31173  0.69199  1.0000
  C   C1040     1.0  0.13863  0.30198  0.67581  1.0000
  C   C1041     1.0  0.13820  0.28166  0.67839  1.0000
  Fe  Fe77      1.0  0.26261  0.36396  0.94433  1.0000
  H   H845      1.0  0.32275  0.28102  0.95870  1.0000
  H   H846      1.0  0.09997  0.31287  0.76667  1.0000
  C   C1042     1.0  0.44356  0.30850  0.87459  1.0000
  H   H847      1.0  0.11016  0.32076  0.83417  1.0000
  H   H848      1.0  0.11713  0.27293  0.72799  1.0000
  C   C1043     1.0  0.47204  0.30739  0.96918  1.0000
  C   C1044     1.0  0.01795  0.19973  0.55746  1.0000
  C   C1045     1.0  0.37409  0.20805  0.84637  1.0000
  H   H849      1.0  0.08184  0.22144  0.88057  1.0000
  C   C1046     1.0  0.15098  0.23766  0.73084  1.0000
  C   C1047     1.0  0.39331  0.38153  0.94807  1.0000
  C   C1048     1.0  0.13898  0.21396  0.47826  1.0000
  H   H850      1.0  0.48868  0.23082  0.54991  1.0000
  H   H851      1.0  0.03777  0.36624  0.82778  1.0000
  H   H852      1.0  0.42639  0.36803  0.75331  1.0000
  H   H853      1.0  0.32216  0.20824  0.49831  1.0000
  H   H854      1.0  0.13885  0.33940  0.75825  1.0000
  H   H855      1.0  0.13130  0.32755  0.68994  1.0000
  H   H856      1.0  0.14436  0.31025  0.66121  1.0000
  H   H857      1.0  0.14369  0.27452  0.66561  1.0000
  H   H858      1.0  0.38840  0.23952  0.93615  1.0000
  P   P37       1.0  0.10573  0.33579  0.79309  1.0000
  H   H859      1.0  0.23167  0.33607  0.83151  1.0000
  H   H860      1.0  0.27595  0.30582  0.91371  1.0000
  C   C1049     1.0  0.49557  0.24478  0.48243  1.0000
  C   C1050     1.0  0.27212  0.25892  0.82015  1.0000
  C   C1051     1.0  0.28493  0.25628  0.80185  1.0000
  C   C1052     1.0  0.30604  0.25277  0.79985  1.0000
  C   C1053     1.0  0.31433  0.25153  0.81626  1.0000
  C   C1054     1.0  0.30152  0.25353  0.83489  1.0000
  C   C1055     1.0  0.28037  0.25784  0.83651  1.0000
  P   P38       1.0  0.31227  0.25167  0.85613  1.0000
  C   C1056     1.0  0.31461  0.27624  0.85790  1.0000
  C   C1057     1.0  0.29540  0.24236  0.87890  1.0000
  C   C1058     1.0  0.27797  0.25539  0.88684  1.0000
  C   C1059     1.0  0.26447  0.24847  0.90414  1.0000
  C   C1060     1.0  0.26839  0.22853  0.91385  1.0000
  C   C1061     1.0  0.28584  0.21554  0.90628  1.0000
  C   C1062     1.0  0.29930  0.22236  0.88890  1.0000
  C   C1063     1.0  0.31864  0.27904  0.87536  1.0000
  C   C1064     1.0  0.31883  0.29820  0.87771  1.0000
  C   C1065     1.0  0.31501  0.31474  0.86261  1.0000
  C   C1066     1.0  0.31118  0.31206  0.84509  1.0000
  C   C1067     1.0  0.31097  0.29291  0.84270  1.0000
  C   C1068     1.0  0.33650  0.23450  0.85298  1.0000
  C   C1069     1.0  0.33774  0.21594  0.84808  1.0000
  C   C1070     1.0  0.09931  0.22565  0.69793  1.0000
  C   C1071     1.0  0.00126  0.32662  0.87563  1.0000
  H   H861      1.0  0.32650  0.20132  0.94803  1.0000
  C   C1072     1.0  0.35435  0.23979  0.85425  1.0000
  H   H862      1.0  0.25572  0.26134  0.82190  1.0000
  H   H863      1.0  0.27848  0.25681  0.78928  1.0000
  H   H864      1.0  0.31599  0.25072  0.78565  1.0000
  H   H865      1.0  0.33073  0.24876  0.81441  1.0000
  H   H866      1.0  0.27011  0.25989  0.85047  1.0000
  H   H867      1.0  0.27446  0.27076  0.87923  1.0000
  H   H868      1.0  0.25058  0.25834  0.90968  1.0000
  H   H869      1.0  0.25755  0.22295  0.92682  1.0000
  H   H870      1.0  0.28843  0.19988  0.91336  1.0000
  H   H871      1.0  0.31231  0.21174  0.88323  1.0000
  H   H872      1.0  0.32129  0.26639  0.88725  1.0000
  H   H873      1.0  0.32162  0.30032  0.89136  1.0000
  H   H874      1.0  0.31485  0.32966  0.86457  1.0000
  H   H875      1.0  0.30816  0.32490  0.83343  1.0000
  H   H876      1.0  0.30765  0.29126  0.82914  1.0000
  H   H877      1.0  0.32420  0.21160  0.84676  1.0000
  C   C1073     1.0  0.19510  0.35560  0.86791  1.0000
  H   H878      1.0  0.14632  0.20971  0.87666  1.0000
  H   H879      1.0  0.35395  0.25414  0.85750  1.0000
  C   C1074     1.0  0.10315  0.24246  0.70275  1.0000
  H   H880      1.0  0.14207  0.25761  0.77799  1.0000
  H   H881      1.0  0.14359  0.36067  0.84305  1.0000
  C   C1075     1.0  0.44361  0.31166  0.48767  1.0000
  H   H882      1.0  0.02952  0.22973  0.95114  1.0000
  C   C1076     1.0  0.06993  0.23315  0.95700  1.0000
  C   C1077     1.0  0.03280  0.25197  0.89987  1.0000
  H   H883      1.0  0.08560  0.35554  0.94231  1.0000
  C   C1078     1.0  0.03487  0.27780  0.87007  1.0000
  H   H884      1.0  0.01069  0.31525  0.88448  1.0000
  C   C1079     1.0  0.14845  0.21065  0.75960  1.0000
  H   H885      1.0  0.07317  0.21700  0.95875  1.0000
  H   H886      1.0  0.02411  0.24166  0.91061  1.0000
  S   S153      1.0  0.03489  0.20377  0.48224  1.0000
  C   C1080     1.0  0.05086  0.20073  0.62745  1.0000
  C   C1081     1.0  0.44767  0.28953  0.86988  1.0000
  C   C1082     1.0  0.46602  0.32940  0.89760  1.0000
  C   C1083     1.0  0.44842  0.34424  0.89614  1.0000
  C   C1084     1.0  0.13642  0.35600  0.83349  1.0000
  C   C1085     1.0  0.06172  0.26626  0.93719  1.0000
  C   C1086     1.0  0.10571  0.29726  0.91099  1.0000
  C   C1087     1.0  0.43765  0.27459  0.88235  1.0000
  P   P39       1.0  0.12908  0.24487  0.70084  1.0000
  H   H887      1.0  0.02299  0.33603  0.83340  1.0000
  C   C1088     1.0  0.32156  0.27114  0.94960  1.0000
  C   C1089     1.0  0.17937  0.34653  0.86747  1.0000
  C   C1090     1.0  0.21694  0.33968  0.84116  1.0000
  C   C1091     1.0  0.00672  0.21750  0.78899  1.0000
  S   S154      1.0  0.15639  0.22512  0.94146  1.0000
  H   H888      1.0  0.05883  0.36873  0.72074  1.0000
  C   C1092     1.0  0.42311  0.27877  0.89932  1.0000
  H   H889      1.0  0.25273  0.29521  0.89852  1.0000
  H   H890      1.0  0.37928  0.27841  0.86982  1.0000
  H   H891      1.0  0.11680  0.21113  0.86224  1.0000
  C   C1093     1.0  0.41868  0.29786  0.90392  1.0000
  S   S155      1.0  0.29625  0.36132  0.93164  1.0000
  C   C1094     1.0  0.09113  0.22511  0.90627  1.0000
  H   H892      1.0  0.07372  0.36602  0.81073  1.0000
  H   H893      1.0  0.17044  0.32652  0.85398  1.0000
  C   C1095     1.0  0.39741  0.26302  0.48362  1.0000
  H   H894      1.0  0.08638  0.22210  0.50265  1.0000
  H   H895      1.0  0.42762  0.24508  0.47885  1.0000
  C   C1096     1.0  0.12348  0.28082  0.71342  1.0000
  H   H896      1.0  0.03029  0.19283  0.65531  1.0000
  H   H897      1.0  0.16713  0.35649  0.95246  1.0000
  C   C1097     1.0  0.40069  0.37477  0.88630  1.0000
  C   C1098     1.0  0.00158  0.28026  0.93970  1.0000
  H   H898      1.0  0.36145  0.18676  0.95602  1.0000
  H   H899      1.0  0.30741  0.38461  0.54440  1.0000
  H   H900      1.0  0.47667  0.24751  0.89617  1.0000
  C   C1099     1.0  0.33261  0.19626  0.93403  1.0000
  C   C1100     1.0  0.49317  0.24443  0.86649  1.0000
  C   C1101     1.0  0.39471  0.22387  0.89733  1.0000
  C   C1102     1.0  0.38352  0.26314  0.87746  1.0000
  H   H901      1.0  0.04115  0.34696  0.78341  1.0000
  C   C1103     1.0  0.47812  0.35736  0.84367  1.0000
  C   C1104     1.0  0.37515  0.23485  0.90351  1.0000
  C   C1105     1.0  0.36962  0.25456  0.89343  1.0000
  P   P40       1.0  0.35812  0.22389  0.92514  1.0000
  C   C1106     1.0  0.33658  0.24305  0.93271  1.0000
  S   S156      1.0  0.48520  0.22233  0.86737  1.0000
  H   H902      1.0  0.31634  0.38260  0.83265  1.0000
  C   C1107     1.0  0.12341  0.37932  0.91337  1.0000
  H   H903      1.0  0.14228  0.36319  0.72603  1.0000
  C   C1108     1.0  0.01276  0.31045  0.93923  1.0000
  H   H904      1.0  0.11907  0.20840  0.72889  1.0000
  C   C1109     1.0  0.33805  0.25594  0.94441  1.0000
  H   H905      1.0  0.29070  0.28536  0.94733  1.0000
  C   C1110     1.0  0.30349  0.27362  0.94317  1.0000
  C   C1111     1.0  0.30190  0.26091  0.93147  1.0000
  C   C1112     1.0  0.31837  0.24575  0.92619  1.0000
  C   C1113     1.0  0.37273  0.21448  0.94448  1.0000
  C   C1114     1.0  0.38655  0.22542  0.94615  1.0000
  C   C1115     1.0  0.41865  0.26005  0.47893  1.0000
  C   C1116     1.0  0.25255  0.36631  0.83310  1.0000
  C   C1117     1.0  0.09451  0.22036  0.88739  1.0000
  H   H906      1.0  0.49010  0.37286  0.94324  1.0000
  C   C1118     1.0  0.07134  0.31820  0.81039  1.0000
  C   C1119     1.0  0.42090  0.32939  0.93911  1.0000
  H   H907      1.0  0.35476  0.26346  0.89800  1.0000
  C   C1120     1.0  0.11198  0.30395  0.77415  1.0000
  C   C1121     1.0  0.15126  0.22915  0.64623  1.0000
  H   H908      1.0  0.48446  0.34165  0.84812  1.0000
  H   H909      1.0  0.39635  0.36357  0.83677  1.0000
  C   C1122     1.0  0.04721  0.35276  0.82310  1.0000
  H   H910      1.0  0.38054  0.34561  0.91608  1.0000
  C   C1123     1.0  0.46570  0.37450  0.65550  1.0000
  C   C1124     1.0  0.35079  0.19202  0.48445  1.0000
  H   H911      1.0  0.31683  0.23627  0.91690  1.0000
  P   P41       1.0  0.42435  0.33732  0.89800  1.0000
  C   C1125     1.0  0.05101  0.31837  0.82020  1.0000
  C   C1126     1.0  0.39847  0.21808  0.96053  1.0000
  C   C1127     1.0  0.39769  0.36664  0.85060  1.0000
  H   H912      1.0  0.46377  0.36067  0.74955  1.0000
  C   C1128     1.0  0.11432  0.21453  0.87692  1.0000
  H   H913      1.0  0.36815  0.20332  0.89088  1.0000
  H   H914      1.0  0.07930  0.38406  0.63399  1.0000
  H   H915      1.0  0.47132  0.35049  0.93482  1.0000
  H   H916      1.0  0.23507  0.31903  0.87398  1.0000
  H   H917      1.0  0.41442  0.33737  0.85970  1.0000
  C   C1129     1.0  0.24541  0.32402  0.88003  1.0000
  C   C1130     1.0  0.13710  0.23118  0.72358  1.0000
  H   H918      1.0  0.44166  0.25962  0.87913  1.0000
  C   C1131     1.0  0.41042  0.33602  0.92345  1.0000
  C   C1132     1.0  0.07957  0.25350  0.48971  1.0000
  H   H919      1.0  0.48504  0.31428  0.93792  1.0000
  H   H920      1.0  0.44888  0.35209  0.84342  1.0000
  C   C1133     1.0  0.27130  0.33608  0.89734  1.0000
  H   H921      1.0  0.41564  0.26703  0.90915  1.0000
  H   H922      1.0  0.19267  0.20647  0.66640  1.0000
  C   C1134     1.0  0.40855  0.23246  0.88136  1.0000
  H   H923      1.0  0.04454  0.30519  0.82253  1.0000
  C   C1135     1.0  0.26855  0.31629  0.90253  1.0000
  C   C1136     1.0  0.11171  0.30283  0.94145  1.0000
  H   H924      1.0  0.13936  0.30478  0.80762  1.0000
  H   H925      1.0  0.40754  0.30063  0.91728  1.0000
  H   H926      1.0  0.20361  0.32064  0.83055  1.0000
  C   C1137     1.0  0.11167  0.37978  0.73257  1.0000
  C   C1138     1.0  0.27939  0.37421  0.79618  1.0000
  C   C1139     1.0  0.40982  0.35585  0.88157  1.0000
  C   C1140     1.0  0.17758  0.21505  0.66529  1.0000
  H   H927      1.0  0.13604  0.20856  0.49419  1.0000
  C   C1141     1.0  0.07963  0.33553  0.80633  1.0000
  C   C1142     1.0  0.11446  0.28211  0.94886  1.0000
  C   C1143     1.0  0.24623  0.20346  0.89261  1.0000
  H   H928      1.0  0.20176  0.37729  0.52813  1.0000
  C   C1144     1.0  0.45804  0.36323  0.84110  1.0000
  C   C1145     1.0  0.39682  0.19971  0.97333  1.0000
  H   H929      1.0  0.47948  0.36970  0.62588  1.0000
  C   C1146     1.0  0.44964  0.36434  0.89427  1.0000
  C   C1147     1.0  0.42065  0.37871  0.96488  1.0000
  C   C1148     1.0  0.48451  0.33461  0.89663  1.0000
  C   C1149     1.0  0.12775  0.21842  0.90378  1.0000
  C   C1150     1.0  0.38585  0.28233  0.48365  1.0000
  H   H930      1.0  0.06870  0.20687  0.59771  1.0000
  H   H931      1.0  0.35756  0.37576  0.50286  1.0000
  C   C1151     1.0  0.48648  0.25393  0.88284  1.0000
  H   H932      1.0  0.16517  0.34829  0.87833  1.0000
  H   H933      1.0  0.43644  0.37618  0.89344  1.0000
  C   C1152     1.0  0.14725  0.23329  0.96413  1.0000
  H   H934      1.0  0.38987  0.25039  0.48698  1.0000
  H   H935      1.0  0.22172  0.37240  0.89649  1.0000
  H   H936      1.0  0.42181  0.35090  0.48858  1.0000
  C   C1153     1.0  0.09124  0.32335  0.97527  1.0000
  C   C1154     1.0  0.10376  0.37605  0.92260  1.0000
  C   C1155     1.0  0.47259  0.38084  0.63507  1.0000
  C   C1156     1.0  0.02547  0.19632  0.53805  1.0000
  C   C1157     1.0  0.09108  0.36798  0.76465  1.0000
  H   H937      1.0  0.49155  0.29397  0.49668  1.0000
  C   C1158     1.0  0.14535  0.23409  0.68019  1.0000
  H   H938      1.0  0.00330  0.23351  0.78848  1.0000
  C   C1159     1.0  0.49340  0.21552  0.54762  1.0000
  C   C1160     1.0  0.43552  0.37765  0.74212  1.0000
  H   H939      1.0  0.12859  0.19091  0.76060  1.0000
  C   C1161     1.0  0.02242  0.19315  0.60957  1.0000
  H   H940      1.0  0.30304  0.36581  0.81299  1.0000
  C   C1162     1.0  0.49189  0.18966  0.53110  1.0000
  C   C1163     1.0  0.49016  0.37168  0.84029  1.0000
  H   H941      1.0  0.00840  0.26467  0.88416  1.0000
  C   C1164     1.0  0.12802  0.36449  0.73684  1.0000
  P   P42       1.0  0.44750  0.37532  0.96415  1.0000
  C   C1165     1.0  0.06727  0.19119  0.74213  1.0000
  H   H942      1.0  0.28975  0.37729  0.78195  1.0000
  C   C1166     1.0  0.45721  0.34875  0.96597  1.0000
  C   C1167     1.0  0.41398  0.37993  0.94742  1.0000
  H   H943      1.0  0.47820  0.29149  0.97047  1.0000
  H   H944      1.0  0.15556  0.36682  0.90983  1.0000
  C   C1168     1.0  0.06961  0.24167  0.97296  1.0000
  H   H945      1.0  0.41838  0.32286  0.97087  1.0000
  C   C1169     1.0  0.28323  0.18818  0.86884  1.0000
  H   H946      1.0  0.38807  0.38296  0.93456  1.0000
  C   C1170     1.0  0.49179  0.27226  0.88169  1.0000
  H   H947      1.0  0.40149  0.37827  0.90010  1.0000
  H   H948      1.0  0.48609  0.27984  0.89417  1.0000
  H   H949      1.0  0.25957  0.37858  0.48736  1.0000
  C   C1171     1.0  0.45670  0.37355  0.73998  1.0000
  H   H950      1.0  0.22899  0.37550  0.81586  1.0000
  C   C1172     1.0  0.13845  0.36555  0.97199  1.0000
  C   C1173     1.0  0.49100  0.37863  0.78339  1.0000
  H   H951      1.0  0.12787  0.36886  0.78654  1.0000
  Fe  Fe78      1.0  0.28712  0.38250  0.90495  1.0000
  C   C1174     1.0  0.25853  0.37689  0.79707  1.0000
  H   H952      1.0  0.25272  0.38206  0.78350  1.0000
  C   C1175     1.0  0.00064  0.34684  0.87479  1.0000
  C   C1176     1.0  0.47521  0.29946  0.49957  1.0000
  C   C1177     1.0  0.41183  0.35426  0.47821  1.0000
  H   H953      1.0  0.45121  0.38361  0.68349  1.0000
  C   C1178     1.0  0.44990  0.38346  0.83526  1.0000
  H   H954      1.0  0.38612  0.31348  0.47901  1.0000
  H   H955      1.0  0.00508  0.18642  0.63974  1.0000
  C   C1179     1.0  0.00289  0.30605  0.79465  1.0000
  C   C1180     1.0  0.39549  0.29875  0.47874  1.0000
  C   C1181     1.0  0.21568  0.38318  0.52262  1.0000
  C   C1182     1.0  0.33260  0.38379  0.48758  1.0000
  C   C1183     1.0  0.24818  0.38391  0.49961  1.0000
  S   S157      1.0  0.03918  0.38498  0.75653  1.0000
  H   H956      1.0  0.46879  0.38491  0.89254  1.0000
  H   H957      1.0  0.48577  0.18532  0.52052  1.0000
  H   H958      1.0  0.41988  0.41077  0.09574  1.0000
  Fe  Fe79      1.0  0.45719  0.49416  0.15446  1.0000
  S   S158      1.0  0.47107  0.50906  0.12393  1.0000
  S   S159      1.0  0.47255  0.46458  0.16999  1.0000
  Fe  Fe80      1.0  0.42160  0.52852  0.15934  1.0000
  S   S160      1.0  0.43299  0.54647  0.12923  1.0000
  S   S161      1.0  0.39231  0.54081  0.17904  1.0000
  Fe  Fe81      1.0  0.43914  0.51734  0.11866  1.0000
  S   S162      1.0  0.43133  0.51868  0.08892  1.0000
  Fe  Fe82      1.0  0.46379  0.53655  0.13722  1.0000
  S   S163      1.0  0.42584  0.50013  0.14834  1.0000
  S   S164      1.0  0.45181  0.52111  0.16819  1.0000
  C   C1184     1.0  0.32835  0.48048  0.45006  1.0000
  H   H959      1.0  0.16740  0.57344  0.23162  1.0000
  H   H960      1.0  0.12468  0.42274  0.21270  1.0000
  Fe  Fe83      1.0  0.38383  0.46197  0.03474  1.0000
  S   S165      1.0  0.34985  0.46715  0.03888  1.0000
  S   S166      1.0  0.39804  0.45447  0.06209  1.0000
  Fe  Fe84      1.0  0.35539  0.44801  0.01610  1.0000
  S   S167      1.0  0.33539  0.42525  0.02179  1.0000
  H   H961      1.0  0.29953  0.38706  0.38299  1.0000
  C   C1185     1.0  0.03694  0.58079  0.46045  1.0000
  S   S168      1.0  0.38924  0.44040  0.01403  1.0000
  S   S169      1.0  0.38699  0.48852  0.00991  1.0000
  Fe  Fe85      1.0  0.32632  0.48810  0.27463  1.0000
  S   S170      1.0  0.30484  0.51743  0.26864  1.0000
  S   S171      1.0  0.35839  0.48080  0.25655  1.0000
  Fe  Fe86      1.0  0.29506  0.47047  0.30902  1.0000
  S   S172      1.0  0.27146  0.49856  0.30537  1.0000
  S   S173      1.0  0.28316  0.44599  0.33299  1.0000
  Fe  Fe87      1.0  0.28162  0.49845  0.27275  1.0000
  S   S174      1.0  0.26116  0.50454  0.25078  1.0000
  Fe  Fe88      1.0  0.29712  0.51438  0.30200  1.0000
  S   S175      1.0  0.29074  0.53972  0.31880  1.0000
  S   S176      1.0  0.30358  0.46928  0.27651  1.0000
  S   S177      1.0  0.32006  0.48618  0.30790  1.0000
  Fe  Fe89      1.0  0.17234  0.47790  0.20058  1.0000
  S   S178      1.0  0.16180  0.48399  0.23161  1.0000
  S   S179      1.0  0.18532  0.50157  0.17630  1.0000
  Fe  Fe90      1.0  0.16435  0.43559  0.21341  1.0000
  S   S180      1.0  0.15329  0.43812  0.24554  1.0000
  S   S181      1.0  0.16809  0.40706  0.20240  1.0000
  Fe  Fe91      1.0  0.13645  0.46841  0.23353  1.0000
  S   S182      1.0  0.10437  0.48216  0.24687  1.0000
  Fe  Fe92      1.0  0.17965  0.45344  0.24077  1.0000
  S   S183      1.0  0.19862  0.44726  0.26406  1.0000
  S   S184      1.0  0.14548  0.46484  0.20163  1.0000
  S   S185      1.0  0.19226  0.44836  0.20959  1.0000
  H   H962      1.0  0.20083  0.50831  0.21169  1.0000
  H   H963      1.0  0.21722  0.58384  0.03909  1.0000
  Fe  Fe93      1.0  0.11915  0.53007  0.07273  1.0000
  S   S186      1.0  0.10067  0.52726  0.10405  1.0000
  S   S187      1.0  0.14100  0.50548  0.05844  1.0000
  Fe  Fe94      1.0  0.07679  0.54957  0.08962  1.0000
  S   S188      1.0  0.04351  0.54951  0.09529  1.0000
  Fe  Fe95      1.0  0.11200  0.55455  0.10442  1.0000
  S   S189      1.0  0.12328  0.56233  0.12813  1.0000
  S   S190      1.0  0.09447  0.55043  0.05816  1.0000
  S   S191      1.0  0.13238  0.55571  0.07424  1.0000
  C   C1186     1.0  0.04996  0.47567  0.09352  1.0000
  H   H964      1.0  0.10685  0.44475  0.23580  1.0000
  S   S192      1.0  0.14482  0.41208  0.08795  1.0000
  C   C1187     1.0  0.14070  0.47980  0.06745  1.0000
  C   C1188     1.0  0.12565  0.47265  0.08322  1.0000
  C   C1189     1.0  0.12647  0.45182  0.08969  1.0000
  C   C1190     1.0  0.14240  0.43827  0.08048  1.0000
  C   C1191     1.0  0.15731  0.44558  0.06484  1.0000
  C   C1192     1.0  0.15645  0.46617  0.05834  1.0000
  H   H965      1.0  0.11348  0.48311  0.09042  1.0000
  H   H966      1.0  0.11505  0.44624  0.10195  1.0000
  H   H967      1.0  0.16957  0.43522  0.05763  1.0000
  H   H968      1.0  0.16819  0.47153  0.04627  1.0000
  C   C1193     1.0  0.48898  0.45013  0.15311  1.0000
  C   C1194     1.0  0.48957  0.45605  0.06050  1.0000
  C   C1195     1.0  0.16817  0.51771  0.16232  1.0000
  C   C1196     1.0  0.15203  0.51130  0.15877  1.0000
  C   C1197     1.0  0.13875  0.52457  0.14725  1.0000
  C   C1198     1.0  0.14110  0.54447  0.14006  1.0000
  C   C1199     1.0  0.15727  0.55080  0.14361  1.0000
  C   C1200     1.0  0.17100  0.53737  0.15435  1.0000
  H   H969      1.0  0.14988  0.49612  0.16474  1.0000
  H   H970      1.0  0.12654  0.51949  0.14430  1.0000
  H   H971      1.0  0.09563  0.50815  0.20843  1.0000
  H   H972      1.0  0.18356  0.54232  0.15687  1.0000
  C   C1201     1.0  0.30037  0.42780  0.34549  1.0000
  C   C1202     1.0  0.29267  0.41319  0.36093  1.0000
  H   H973      1.0  0.27039  0.42825  0.45405  1.0000
  C   C1203     1.0  0.33448  0.41256  0.35097  1.0000
  C   C1204     1.0  0.32136  0.42748  0.34041  1.0000
  H   H974      1.0  0.27655  0.41328  0.36490  1.0000
  H   H975      1.0  0.32745  0.43868  0.32842  1.0000
  C   C1205     1.0  0.30924  0.54445  0.32944  1.0000
  C   C1206     1.0  0.30324  0.55821  0.34227  1.0000
  C   C1207     1.0  0.31775  0.56370  0.34959  1.0000
  C   C1208     1.0  0.33845  0.55549  0.34414  1.0000
  C   C1209     1.0  0.34438  0.54122  0.33185  1.0000
  C   C1210     1.0  0.32983  0.53559  0.32466  1.0000
  H   H976      1.0  0.28735  0.56496  0.34631  1.0000
  H   H977      1.0  0.49246  0.39714  0.04080  1.0000
  H   H978      1.0  0.36033  0.53465  0.32766  1.0000
  H   H979      1.0  0.33460  0.52470  0.31513  1.0000
  C   C1211     1.0  0.24430  0.48807  0.25448  1.0000
  C   C1212     1.0  0.23459  0.48865  0.23917  1.0000
  C   C1213     1.0  0.22067  0.47608  0.24195  1.0000
  C   C1214     1.0  0.21589  0.46331  0.26026  1.0000
  C   C1215     1.0  0.22527  0.46304  0.27569  1.0000
  C   C1216     1.0  0.23985  0.47496  0.27266  1.0000
  H   H980      1.0  0.23801  0.49871  0.22506  1.0000
  H   H981      1.0  0.21368  0.47616  0.22992  1.0000
  H   H982      1.0  0.22135  0.45351  0.29002  1.0000
  H   H983      1.0  0.24723  0.47440  0.28457  1.0000
  H   H984      1.0  0.02850  0.41284  0.20918  1.0000
  H   H985      1.0  0.38634  0.55382  0.29004  1.0000
  H   H986      1.0  0.29825  0.46327  0.19808  1.0000
  C   C1217     1.0  0.42636  0.44795  0.16905  1.0000
  C   C1218     1.0  0.25233  0.56967  0.00086  1.0000
  C   C1219     1.0  0.00196  0.52936  0.04596  1.0000
  C   C1220     1.0  0.28384  0.45577  0.98302  1.0000
  C   C1221     1.0  0.33271  0.54959  0.45907  1.0000
  C   C1222     1.0  0.41644  0.54146  0.27425  1.0000
  C   C1223     1.0  0.02154  0.40849  0.27895  1.0000
  C   C1224     1.0  0.36725  0.49751  0.23470  1.0000
  C   C1225     1.0  0.35583  0.51657  0.22919  1.0000
  C   C1226     1.0  0.36360  0.52972  0.21205  1.0000
  C   C1227     1.0  0.38265  0.52377  0.20006  1.0000
  C   C1228     1.0  0.39386  0.50455  0.20525  1.0000
  C   C1229     1.0  0.38629  0.49157  0.22265  1.0000
  H   H987      1.0  0.34116  0.52136  0.23827  1.0000
  H   H988      1.0  0.35484  0.54457  0.20811  1.0000
  H   H989      1.0  0.40853  0.49982  0.19602  1.0000
  H   H990      1.0  0.39523  0.47688  0.22681  1.0000
  C   C1230     1.0  0.42111  0.50088  0.08244  1.0000
  C   C1231     1.0  0.41383  0.50596  0.06473  1.0000
  C   C1232     1.0  0.40618  0.49212  0.05866  1.0000
  C   C1233     1.0  0.40588  0.47290  0.07016  1.0000
  C   C1234     1.0  0.41304  0.46783  0.08798  1.0000
  C   C1235     1.0  0.42063  0.48174  0.09408  1.0000
  H   H991      1.0  0.41423  0.52070  0.05556  1.0000
  H   H992      1.0  0.40081  0.49626  0.04490  1.0000
  H   H993      1.0  0.41288  0.45303  0.09699  1.0000
  H   H994      1.0  0.42655  0.47759  0.10752  1.0000
  H   H995      1.0  0.01475  0.41519  0.26615  1.0000
  C   C1236     1.0  0.11126  0.43948  0.04664  1.0000
  C   C1237     1.0  0.01745  0.54006  0.04283  1.0000
  C   C1238     1.0  0.32027  0.52679  0.97974  1.0000
  C   C1239     1.0  0.16836  0.52439  0.98593  1.0000
  H   H996      1.0  0.06043  0.42307  0.04769  1.0000
  C   C1240     1.0  0.43970  0.40132  0.99049  1.0000
  C   C1241     1.0  0.09809  0.41007  0.27288  1.0000
  H   H997      1.0  0.01672  0.42791  0.07346  1.0000
  S   S193      1.0  0.49017  0.55298  0.12862  1.0000
  C   C1242     1.0  0.03072  0.42653  0.14138  1.0000
  C   C1243     1.0  0.02516  0.42023  0.12657  1.0000
  C   C1244     1.0  0.39228  0.46503  0.18178  1.0000
  H   H998      1.0  0.04660  0.42572  0.14096  1.0000
  C   C1245     1.0  0.02433  0.52252  0.15240  1.0000
  C   C1246     1.0  0.03592  0.52640  0.13290  1.0000
  C   C1247     1.0  0.03069  0.54465  0.12018  1.0000
  C   C1248     1.0  0.01419  0.55903  0.12699  1.0000
  C   C1249     1.0  0.45830  0.39681  0.01643  1.0000
  H   H999      1.0  0.04857  0.51518  0.12758  1.0000
  C   C1250     1.0  0.23084  0.39851  0.40474  1.0000
  C   C1251     1.0  0.05603  0.45421  0.23630  1.0000
  C   C1252     1.0  0.05068  0.47318  0.24122  1.0000
  C   C1253     1.0  0.06558  0.48168  0.24461  1.0000
  C   C1254     1.0  0.08589  0.47150  0.24249  1.0000
  C   C1255     1.0  0.09123  0.45271  0.23726  1.0000
  C   C1256     1.0  0.07623  0.44396  0.23456  1.0000
  C   C1257     1.0  0.36930  0.45554  0.44713  1.0000
  H   H1000     1.0  0.06140  0.49610  0.24887  1.0000
  C   C1258     1.0  0.03161  0.47678  0.12742  1.0000
  C   C1259     1.0  0.23336  0.42897  0.38009  1.0000
  H   H1001     1.0  0.32596  0.46574  0.16829  1.0000
  C   C1260     1.0  0.10927  0.39003  0.33503  1.0000
  H   H1002     1.0  0.30305  0.41123  0.05670  1.0000
  H   H1003     1.0  0.44657  0.46094  0.98935  1.0000
  C   C1261     1.0  0.14883  0.47289  0.29294  1.0000
  C   C1262     1.0  0.49854  0.49127  0.06525  1.0000
  C   C1263     1.0  0.05886  0.56032  0.17008  1.0000
  C   C1264     1.0  0.16384  0.39113  0.30517  1.0000
  H   H1004     1.0  0.34270  0.51730  0.27991  1.0000
  C   C1265     1.0  0.23272  0.52898  0.46649  1.0000
  H   H1005     1.0  0.39610  0.55383  0.21440  1.0000
  C   C1266     1.0  0.38090  0.54322  0.25841  1.0000
  S   S194      1.0  0.35598  0.47375  0.99014  1.0000
  C   C1267     1.0  0.29106  0.52115  0.05302  1.0000
  H   H1006     1.0  0.20647  0.45335  0.04919  1.0000
  C   C1268     1.0  0.40019  0.57793  0.46518  1.0000
  H   H1007     1.0  0.43700  0.57503  0.41381  1.0000
  H   H1008     1.0  0.22874  0.41365  0.28291  1.0000
  C   C1269     1.0  0.37108  0.52690  0.26665  1.0000
  C   C1270     1.0  0.18210  0.57335  0.07160  1.0000
  C   C1271     1.0  0.04990  0.46969  0.13399  1.0000
  H   H1009     1.0  0.46251  0.46247  0.08327  1.0000
  H   H1010     1.0  0.43326  0.44624  0.13805  1.0000
  C   C1272     1.0  0.41965  0.51492  0.24706  1.0000
  C   C1273     1.0  0.42001  0.49814  0.26265  1.0000
  C   C1274     1.0  0.42867  0.47898  0.25866  1.0000
  C   C1275     1.0  0.43739  0.47643  0.23912  1.0000
  C   C1276     1.0  0.43747  0.49303  0.22356  1.0000
  C   C1277     1.0  0.42857  0.51220  0.22746  1.0000
  C   C1278     1.0  0.22640  0.42029  0.00519  1.0000
  C   C1279     1.0  0.16163  0.45762  0.30318  1.0000
  H   H1011     1.0  0.47651  0.46729  0.12787  1.0000
  H   H1012     1.0  0.44395  0.46159  0.23596  1.0000
  H   H1013     1.0  0.36066  0.47474  0.46896  1.0000
  H   H1014     1.0  0.12274  0.48039  0.27951  1.0000
  C   C1280     1.0  0.48245  0.43706  0.01686  1.0000
  H   H1015     1.0  0.45071  0.57355  0.44340  1.0000
  H   H1016     1.0  0.10380  0.40121  0.24461  1.0000
  H   H1017     1.0  0.46433  0.40911  0.12917  1.0000
  H   H1018     1.0  0.04969  0.46723  0.14972  1.0000
  H   H1019     1.0  0.20166  0.54387  0.47474  1.0000
  H   H1020     1.0  0.02902  0.45301  0.08350  1.0000
  H   H1021     1.0  0.41329  0.49985  0.27788  1.0000
  C   C1281     1.0  0.44361  0.46124  0.02030  1.0000
  C   C1282     1.0  0.13085  0.39369  0.25644  1.0000
  H   H1022     1.0  0.44411  0.49100  0.20839  1.0000
  H   H1023     1.0  0.42859  0.52469  0.21503  1.0000
  C   C1283     1.0  0.18740  0.50081  0.31321  1.0000
  C   C1284     1.0  0.20812  0.50153  0.30788  1.0000
  Fe  Fe96      1.0  0.38946  0.46761  0.98950  1.0000
  H   H1024     1.0  0.15565  0.38918  0.27065  1.0000
  C   C1285     1.0  0.18169  0.52523  0.28328  1.0000
  C   C1286     1.0  0.17417  0.51276  0.30110  1.0000
  P   P43       1.0  0.16480  0.54197  0.26804  1.0000
  H   H1025     1.0  0.16960  0.53990  0.98370  1.0000
  C   C1287     1.0  0.17653  0.54159  0.24220  1.0000
  C   C1288     1.0  0.18618  0.52327  0.23638  1.0000
  C   C1289     1.0  0.00020  0.40264  0.21504  1.0000
  C   C1290     1.0  0.19201  0.53997  0.20180  1.0000
  C   C1291     1.0  0.18262  0.55830  0.20746  1.0000
  C   C1292     1.0  0.17484  0.55914  0.22759  1.0000
  C   C1293     1.0  0.00788  0.53709  0.15919  1.0000
  C   C1294     1.0  0.36666  0.53167  0.46258  1.0000
  C   C1295     1.0  0.22311  0.54915  0.99916  1.0000
  H   H1026     1.0  0.43328  0.42111  0.01121  1.0000
  C   C1296     1.0  0.11353  0.39361  0.18630  1.0000
  C   C1297     1.0  0.14042  0.53452  0.27335  1.0000
  C   C1298     1.0  0.13436  0.52774  0.25907  1.0000
  C   C1299     1.0  0.11501  0.52318  0.26296  1.0000
  C   C1300     1.0  0.10167  0.52492  0.28120  1.0000
  C   C1301     1.0  0.10749  0.53174  0.29546  1.0000
  C   C1302     1.0  0.12669  0.53676  0.29147  1.0000
  H   H1027     1.0  0.18161  0.49099  0.32677  1.0000
  H   H1028     1.0  0.21845  0.49221  0.31715  1.0000
  C   C1303     1.0  0.23400  0.40057  0.31252  1.0000
  C   C1304     1.0  0.13952  0.39486  0.27177  1.0000
  H   H1029     1.0  0.15821  0.51207  0.30573  1.0000
  H   H1030     1.0  0.21115  0.58360  0.44658  1.0000
  H   H1031     1.0  0.44261  0.42307  0.06480  1.0000
  H   H1032     1.0  0.19785  0.53913  0.18624  1.0000
  H   H1033     1.0  0.37949  0.51168  0.26799  1.0000
  C   C1305     1.0  0.11694  0.40259  0.36643  1.0000
  C   C1306     1.0  0.21386  0.41258  0.99757  1.0000
  C   C1307     1.0  0.37084  0.46168  0.46401  1.0000
  C   C1308     1.0  0.43707  0.53529  0.27530  1.0000
  H   H1034     1.0  0.14898  0.52397  0.01515  1.0000
  H   H1035     1.0  0.24571  0.56938  0.43005  1.0000
  C   C1309     1.0  0.10239  0.39065  0.37017  1.0000
  H   H1036     1.0  0.01769  0.47981  0.13834  1.0000
  H   H1037     1.0  0.08681  0.52100  0.28420  1.0000
  H   H1038     1.0  0.09705  0.53327  0.30955  1.0000
  H   H1039     1.0  0.13082  0.54244  0.30249  1.0000
  H   H1040     1.0  0.16892  0.42626  0.31504  1.0000
  H   H1041     1.0  0.37176  0.54651  0.98109  1.0000
  S   S195      1.0  0.04355  0.41139  0.10680  1.0000
  H   H1042     1.0  0.17460  0.46085  0.30684  1.0000
  H   H1043     1.0  0.29841  0.53152  0.05638  1.0000
  C   C1310     1.0  0.31101  0.47767  0.21417  1.0000
  H   H1044     1.0  0.03659  0.39547  0.24158  1.0000
  C   C1311     1.0  0.23856  0.41171  0.29321  1.0000
  H   H1045     1.0  0.38293  0.43453  0.42731  1.0000
  H   H1046     1.0  0.04289  0.42264  0.31029  1.0000
  C   C1312     1.0  0.02283  0.38803  0.28745  1.0000
  H   H1047     1.0  0.34593  0.42719  0.44735  1.0000
  S   S196      1.0  0.03781  0.44249  0.23293  1.0000
  C   C1313     1.0  0.32516  0.44659  0.39885  1.0000
  C   C1314     1.0  0.23629  0.41834  0.36493  1.0000
  H   H1048     1.0  0.48935  0.50214  0.17764  1.0000
  H   H1049     1.0  0.34435  0.55609  0.15842  1.0000
  C   C1315     1.0  0.34119  0.45251  0.42316  1.0000
  C   C1316     1.0  0.33256  0.45953  0.40623  1.0000
  C   C1317     1.0  0.36215  0.48825  0.41504  1.0000
  C   C1318     1.0  0.36815  0.48724  0.39474  1.0000
  C   C1319     1.0  0.37627  0.50278  0.38089  1.0000
  C   C1320     1.0  0.37912  0.51902  0.38726  1.0000
  C   C1321     1.0  0.37435  0.51952  0.40754  1.0000
  C   C1322     1.0  0.36611  0.50412  0.42139  1.0000
  H   H1050     1.0  0.31890  0.45193  0.38553  1.0000
  H   H1051     1.0  0.18658  0.56260  0.28549  1.0000
  C   C1323     1.0  0.32667  0.47146  0.18088  1.0000
  H   H1052     1.0  0.33144  0.47501  0.39877  1.0000
  C   C1324     1.0  0.38743  0.46851  0.16300  1.0000
  H   H1053     1.0  0.36667  0.47458  0.38948  1.0000
  H   H1054     1.0  0.38025  0.50235  0.36515  1.0000
  H   H1055     1.0  0.38504  0.53124  0.37649  1.0000
  H   H1056     1.0  0.37683  0.53195  0.41255  1.0000
  H   H1057     1.0  0.36245  0.50484  0.43706  1.0000
  H   H1058     1.0  0.01940  0.55216  0.03010  1.0000
  H   H1059     1.0  0.43699  0.56745  0.24395  1.0000
  Fe  Fe97      1.0  0.35333  0.49234  0.01258  1.0000
  C   C1325     1.0  0.03020  0.53539  0.05638  1.0000
  H   H1060     1.0  0.05996  0.38986  0.06981  1.0000
  C   C1326     1.0  0.15565  0.49525  0.00667  1.0000
  C   C1327     1.0  0.31983  0.50092  0.44588  1.0000
  C   C1328     1.0  0.38578  0.45108  0.47469  1.0000
  H   H1061     1.0  0.41541  0.45271  0.19915  1.0000
  H   H1062     1.0  0.38144  0.47027  0.19420  1.0000
  C   C1329     1.0  0.21334  0.53811  0.46296  1.0000
  C   C1330     1.0  0.01819  0.40389  0.21972  1.0000
  C   C1331     1.0  0.44061  0.40905  0.11450  1.0000
  H   H1063     1.0  0.29843  0.39383  0.99125  1.0000
  C   C1332     1.0  0.49541  0.56611  0.14448  1.0000
  H   H1064     1.0  0.40006  0.57787  0.41711  1.0000
  H   H1065     1.0  0.38300  0.52971  0.45726  1.0000
  H   H1066     1.0  0.12714  0.45844  0.98110  1.0000
  H   H1067     1.0  0.11738  0.39947  0.01196  1.0000
  H   H1068     1.0  0.03505  0.48113  0.24277  1.0000
  H   H1069     1.0  0.05027  0.47808  0.07778  1.0000
  H   H1070     1.0  0.09925  0.43528  0.05915  1.0000
  C   C1333     1.0  0.12775  0.40818  0.34700  1.0000
  C   C1334     1.0  0.22388  0.58271  0.45317  1.0000
  H   H1071     1.0  0.15912  0.56616  0.13810  1.0000
  C   C1335     1.0  0.47327  0.44382  0.00034  1.0000
  H   H1072     1.0  0.23720  0.48483  0.00482  1.0000
  H   H1073     1.0  0.03181  0.57958  0.44769  1.0000
  H   H1074     1.0  0.09500  0.56761  0.17276  1.0000
  C   C1336     1.0  0.20738  0.49854  0.01799  1.0000
  C   C1337     1.0  0.40730  0.56219  0.21457  1.0000
  C   C1338     1.0  0.06823  0.46567  0.12037  1.0000
  P   P44       1.0  0.40835  0.53961  0.25254  1.0000
  H   H1075     1.0  0.28380  0.44252  0.97777  1.0000
  H   H1076     1.0  0.08243  0.46540  0.08959  1.0000
  H   H1077     1.0  0.03605  0.39405  0.17557  1.0000
  H   H1078     1.0  0.13486  0.57463  0.45921  1.0000
  C   C1339     1.0  0.20908  0.53975  0.44432  1.0000
  C   C1340     1.0  0.12436  0.46392  0.01870  1.0000
  C   C1341     1.0  0.24646  0.39858  0.32598  1.0000
  Fe  Fe98      1.0  0.01058  0.46254  0.22200  1.0000
  H   H1079     1.0  0.18124  0.57182  0.19621  1.0000
  H   H1080     1.0  0.33293  0.40460  0.43412  1.0000
  H   H1081     1.0  0.19403  0.54693  0.44164  1.0000
  H   H1082     1.0  0.15977  0.42094  0.02521  1.0000
  C   C1342     1.0  0.03913  0.53629  0.24579  1.0000
  H   H1083     1.0  0.22840  0.49347  0.06505  1.0000
  H   H1084     1.0  0.21197  0.54119  0.99808  1.0000
  C   C1343     1.0  0.34100  0.42438  0.98206  1.0000
  H   H1085     1.0  0.35069  0.41235  0.34716  1.0000
  C   C1344     1.0  0.34078  0.43270  0.43345  1.0000
  C   C1345     1.0  0.34803  0.56580  0.26348  1.0000
  C   C1346     1.0  0.24318  0.53908  0.99914  1.0000
  C   C1347     1.0  0.13260  0.46859  0.28754  1.0000
  C   C1348     1.0  0.02753  0.52001  0.07301  1.0000
  C   C1349     1.0  0.01565  0.43435  0.15657  1.0000
  H   H1086     1.0  0.22089  0.39349  0.31674  1.0000
  C   C1350     1.0  0.25773  0.54929  0.00022  1.0000
  C   C1351     1.0  0.31980  0.46855  0.46769  1.0000
  H   H1087     1.0  0.02818  0.50838  0.16216  1.0000
  H   H1088     1.0  0.03725  0.51695  0.08358  1.0000
  C   C1352     1.0  0.12397  0.40194  0.33113  1.0000
  C   C1353     1.0  0.14554  0.43151  0.02737  1.0000
  C   C1354     1.0  0.31360  0.40923  0.00438  1.0000
  C   C1355     1.0  0.01215  0.50907  0.07621  1.0000
  H   H1089     1.0  0.21252  0.38756  0.27791  1.0000
  C   C1356     1.0  0.41582  0.55863  0.23136  1.0000
  C   C1357     1.0  0.26032  0.57420  0.45132  1.0000
  H   H1090     1.0  0.00153  0.39360  0.17181  1.0000
  H   H1091     1.0  0.43045  0.40371  0.12815  1.0000
  C   C1358     1.0  0.20226  0.50328  0.05171  1.0000
  C   C1359     1.0  0.45962  0.41214  0.11509  1.0000
  H   H1092     1.0  0.42842  0.46608  0.27071  1.0000
  H   H1093     1.0  0.01998  0.43927  0.16792  1.0000
  P   P45       1.0  0.36308  0.48323  0.15818  1.0000
  C   C1360     1.0  0.34290  0.48050  0.18030  1.0000
  C   C1361     1.0  0.36585  0.50910  0.14953  1.0000
  C   C1362     1.0  0.35196  0.52455  0.15803  1.0000
  C   C1363     1.0  0.35459  0.54438  0.15126  1.0000
  C   C1364     1.0  0.37073  0.54905  0.13562  1.0000
  C   C1365     1.0  0.38411  0.53393  0.12657  1.0000
  C   C1366     1.0  0.38175  0.51404  0.13349  1.0000
  C   C1367     1.0  0.34279  0.48824  0.19687  1.0000
  C   C1368     1.0  0.32703  0.48668  0.21374  1.0000
  C   C1369     1.0  0.35825  0.47417  0.13830  1.0000
  C   C1370     1.0  0.35486  0.48723  0.12045  1.0000
  C   C1371     1.0  0.35416  0.47964  0.10418  1.0000
  C   C1372     1.0  0.35649  0.45904  0.10568  1.0000
  C   C1373     1.0  0.35925  0.44600  0.12355  1.0000
  C   C1374     1.0  0.36015  0.45350  0.13980  1.0000
  H   H1094     1.0  0.20341  0.41060  0.11651  1.0000
  H   H1095     1.0  0.39932  0.46421  0.13258  1.0000
  H   H1096     1.0  0.37303  0.56434  0.13066  1.0000
  H   H1097     1.0  0.39654  0.53758  0.11434  1.0000
  H   H1098     1.0  0.39237  0.50258  0.12626  1.0000
  H   H1099     1.0  0.35465  0.49596  0.19664  1.0000
  H   H1100     1.0  0.32714  0.49262  0.22647  1.0000
  H   H1101     1.0  0.35336  0.50322  0.11873  1.0000
  H   H1102     1.0  0.27343  0.40637  0.32988  1.0000
  C   C1375     1.0  0.25697  0.58181  0.29452  1.0000
  H   H1103     1.0  0.36124  0.43002  0.12458  1.0000
  H   H1104     1.0  0.36301  0.44318  0.15334  1.0000
  Fe  Fe99      1.0  0.11836  0.39828  0.10708  1.0000
  C   C1376     1.0  0.07249  0.41050  0.04432  1.0000
  C   C1377     1.0  0.24773  0.52109  0.45150  1.0000
  C   C1378     1.0  0.15850  0.43793  0.30756  1.0000
  C   C1379     1.0  0.14265  0.43332  0.30148  1.0000
  C   C1380     1.0  0.12943  0.44894  0.29183  1.0000
  P   P46       1.0  0.13926  0.40766  0.30637  1.0000
  H   H1105     1.0  0.22909  0.39063  0.42010  1.0000
  C   C1381     1.0  0.36918  0.56273  0.25672  1.0000
  H   H1106     1.0  0.09209  0.52400  0.15121  1.0000
  C   C1382     1.0  0.08438  0.51214  0.16029  1.0000
  H   H1107     1.0  0.24749  0.52346  0.99790  1.0000
  C   C1383     1.0  0.08865  0.41311  0.02798  1.0000
  C   C1384     1.0  0.33844  0.54945  0.27198  1.0000
  H   H1108     1.0  0.20892  0.53487  0.26415  1.0000
  C   C1385     1.0  0.10677  0.41150  0.28813  1.0000
  Fe  Fe100     1.0  0.07344  0.39786  0.11564  1.0000
  P   P47       1.0  0.06765  0.53795  0.18704  1.0000
  H   H1109     1.0  0.27073  0.58108  0.47447  1.0000
  C   C1386     1.0  0.23077  0.41903  0.39998  1.0000
  C   C1387     1.0  0.12713  0.41200  0.20329  1.0000
  C   C1388     1.0  0.38339  0.43909  0.44070  1.0000
  H   H1110     1.0  0.08212  0.46398  0.16150  1.0000
  H   H1111     1.0  0.11703  0.44612  0.28693  1.0000
  P   P48       1.0  0.35011  0.46932  0.43325  1.0000
  S   S197      1.0  0.31631  0.56857  0.44633  1.0000
  S   S198      1.0  0.36295  0.57740  0.40003  1.0000
  H   H1112     1.0  0.11037  0.51821  0.25177  1.0000
  H   H1113     1.0  0.12190  0.47861  0.00933  1.0000
  C   C1389     1.0  0.48796  0.45506  0.13301  1.0000
  C   C1390     1.0  0.11023  0.40147  0.25690  1.0000
  C   C1391     1.0  0.21563  0.51409  0.29036  1.0000
  C   C1392     1.0  0.47261  0.41930  0.09751  1.0000
  H   H1114     1.0  0.46053  0.40177  0.02889  1.0000
  H   H1115     1.0  0.33913  0.52152  0.16992  1.0000
  H   H1116     1.0  0.31991  0.41666  0.40298  1.0000
  H   H1117     1.0  0.08912  0.42778  0.01865  1.0000
  H   H1118     1.0  0.19230  0.50865  0.06464  1.0000
  C   C1393     1.0  0.20052  0.45029  0.00793  1.0000
  C   C1394     1.0  0.27239  0.52785  0.04717  1.0000
  H   H1119     1.0  0.06023  0.54573  0.14595  1.0000
  C   C1395     1.0  0.40239  0.46143  0.14732  1.0000
  C   C1396     1.0  0.26353  0.40778  0.31979  1.0000
  H   H1120     1.0  0.32595  0.51047  0.43240  1.0000
  H   H1121     1.0  0.19287  0.56088  0.07773  1.0000
  H   H1122     1.0  0.27557  0.56863  0.44361  1.0000
  H   H1123     1.0  0.35245  0.48967  0.09016  1.0000
  H   H1124     1.0  0.40877  0.41547  0.44681  1.0000
  C   C1397     1.0  0.26345  0.51455  0.04200  1.0000
  C   C1398     1.0  0.32938  0.41973  0.00124  1.0000
  C   C1399     1.0  0.07884  0.47829  0.16600  1.0000
  C   C1400     1.0  0.12956  0.42592  0.04282  1.0000
  C   C1401     1.0  0.02901  0.42082  0.28701  1.0000
  H   H1125     1.0  0.24917  0.52019  0.03722  1.0000
  H   H1126     1.0  0.06959  0.53655  0.22891  1.0000
  C   C1402     1.0  0.05407  0.53703  0.22818  1.0000
  H   H1127     1.0  0.25910  0.56574  0.29593  1.0000
  C   C1403     1.0  0.23371  0.38787  0.38963  1.0000
  C   C1404     1.0  0.31083  0.47008  0.19775  1.0000
  H   H1128     1.0  0.49777  0.42834  0.01497  1.0000
  C   C1405     1.0  0.20261  0.52558  0.27790  1.0000
  C   C1406     1.0  0.07214  0.39173  0.05673  1.0000
  C   C1407     1.0  0.32228  0.53610  0.99433  1.0000
  H   H1129     1.0  0.23866  0.42633  0.34965  1.0000
  H   H1130     1.0  0.14723  0.48857  0.02082  1.0000
  C   C1408     1.0  0.39923  0.43426  0.46871  1.0000
  C   C1409     1.0  0.23694  0.39760  0.36961  1.0000
  H   H1131     1.0  0.15176  0.48796  0.28876  1.0000
  C   C1410     1.0  0.16051  0.50905  0.10054  1.0000
  C   C1411     1.0  0.17213  0.52044  0.10494  1.0000
  C   C1412     1.0  0.18797  0.51093  0.11485  1.0000
  C   C1413     1.0  0.19222  0.49005  0.12031  1.0000
  C   C1414     1.0  0.18089  0.47854  0.11542  1.0000
  C   C1415     1.0  0.16486  0.48824  0.10572  1.0000
  P   P49       1.0  0.18594  0.45156  0.12180  1.0000
  C   C1416     1.0  0.19653  0.44074  0.09981  1.0000
  C   C1417     1.0  0.20425  0.44222  0.13759  1.0000
  C   C1418     1.0  0.22432  0.44535  0.13024  1.0000
  C   C1419     1.0  0.23881  0.43783  0.14214  1.0000
  C   C1420     1.0  0.23342  0.42689  0.16137  1.0000
  C   C1421     1.0  0.21359  0.42338  0.16862  1.0000
  C   C1422     1.0  0.19903  0.43102  0.15683  1.0000
  C   C1423     1.0  0.19745  0.45263  0.08067  1.0000
  C   C1424     1.0  0.20604  0.44402  0.06385  1.0000
  P   P50       1.0  0.48344  0.43380  0.05696  1.0000
  C   C1425     1.0  0.44356  0.53680  0.29193  1.0000
  P   P51       1.0  0.16388  0.45796  0.99521  1.0000
  C   C1426     1.0  0.16176  0.44466  0.13443  1.0000
  C   C1427     1.0  0.14960  0.45416  0.14994  1.0000
  C   C1428     1.0  0.13045  0.44960  0.15938  1.0000
  C   C1429     1.0  0.12333  0.43556  0.15334  1.0000
  C   C1430     1.0  0.13552  0.42580  0.13818  1.0000
  C   C1431     1.0  0.15457  0.43042  0.12863  1.0000
  H   H1132     1.0  0.14788  0.51627  0.09339  1.0000
  H   H1133     1.0  0.16822  0.53662  0.10145  1.0000
  H   H1134     1.0  0.19633  0.51975  0.11919  1.0000
  H   H1135     1.0  0.20381  0.48320  0.12891  1.0000
  H   H1136     1.0  0.15559  0.47967  0.10227  1.0000
  H   H1137     1.0  0.22866  0.45385  0.11539  1.0000
  H   H1138     1.0  0.25419  0.44058  0.13654  1.0000
  C   C1432     1.0  0.00592  0.44057  0.07855  1.0000
  H   H1139     1.0  0.47072  0.49304  0.08752  1.0000
  H   H1140     1.0  0.18380  0.42802  0.16283  1.0000
  H   H1141     1.0  0.19137  0.46850  0.07858  1.0000
  H   H1142     1.0  0.18741  0.50948  0.24735  1.0000
  H   H1143     1.0  0.17937  0.41073  0.28038  1.0000
  C   C1433     1.0  0.19473  0.42379  0.99492  1.0000
  H   H1144     1.0  0.26380  0.57728  0.00185  1.0000
  H   H1145     1.0  0.15501  0.46499  0.15480  1.0000
  H   H1146     1.0  0.12126  0.45673  0.17157  1.0000
  H   H1147     1.0  0.10855  0.43188  0.16066  1.0000
  H   H1148     1.0  0.13031  0.41452  0.13382  1.0000
  H   H1149     1.0  0.16342  0.42289  0.11667  1.0000
  H   H1150     1.0  0.27752  0.40237  0.08755  1.0000
  H   H1151     1.0  0.24454  0.42117  0.17071  1.0000
  H   H1152     1.0  0.33909  0.58085  0.26238  1.0000
  C   C1434     1.0  0.18078  0.39651  0.29074  1.0000
  C   C1435     1.0  0.21781  0.56970  0.99916  1.0000
  S   S199      1.0  0.08625  0.57658  0.09296  1.0000
  C   C1436     1.0  0.45276  0.45455  0.03678  1.0000
  H   H1153     1.0  0.23174  0.51453  0.28613  1.0000
  C   C1437     1.0  0.24350  0.57475  0.44363  1.0000
  S   S200      1.0  0.35731  0.56287  0.35211  1.0000
  C   C1438     1.0  0.41361  0.57610  0.19762  1.0000
  H   H1154     1.0  0.26511  0.54345  0.04621  1.0000
  C   C1439     1.0  0.06824  0.46859  0.10015  1.0000
  H   H1155     1.0  0.31687  0.56398  0.00413  1.0000
  C   C1440     1.0  0.12765  0.40414  0.28760  1.0000
  H   H1156     1.0  0.36025  0.55676  0.43922  1.0000
  H   H1157     1.0  0.09441  0.46898  0.03749  1.0000
  H   H1158     1.0  0.04326  0.53517  0.25981  1.0000
  C   C1441     1.0  0.11045  0.40723  0.19879  1.0000
  C   C1442     1.0  0.03147  0.47988  0.10710  1.0000
  C   C1443     1.0  0.46658  0.42372  0.07920  1.0000
  C   C1444     1.0  0.44765  0.42014  0.07865  1.0000
  H   H1159     1.0  0.20937  0.41482  0.18351  1.0000
  C   C1445     1.0  0.15683  0.51541  0.00361  1.0000
  C   C1446     1.0  0.31532  0.55674  0.99291  1.0000
  C   C1447     1.0  0.25756  0.58135  0.46873  1.0000
  C   C1448     1.0  0.47190  0.44179  0.03543  1.0000
  H   H1160     1.0  0.00754  0.53534  0.25905  1.0000
  H   H1161     1.0  0.00020  0.41586  0.11629  1.0000
  H   H1162     1.0  0.13221  0.57667  0.26155  1.0000
  H   H1163     1.0  0.44486  0.45933  0.05064  1.0000
  C   C1449     1.0  0.08842  0.49381  0.15419  1.0000
  H   H1164     1.0  0.48735  0.42150  0.09819  1.0000
  H   H1165     1.0  0.13921  0.41711  0.34445  1.0000
  H   H1166     1.0  0.32209  0.55176  0.27757  1.0000
  H   H1167     1.0  0.21914  0.39805  0.99334  1.0000
  C   C1450     1.0  0.33325  0.41984  0.42611  1.0000
  C   C1451     1.0  0.21969  0.43909  0.01047  1.0000
  C   C1452     1.0  0.10860  0.45843  0.03449  1.0000
  H   H1168     1.0  0.12920  0.50790  0.21411  1.0000
  H   H1169     1.0  0.21800  0.39542  0.08667  1.0000
  C   C1453     1.0  0.32657  0.39810  0.36661  1.0000
  C   C1454     1.0  0.44283  0.40768  0.00651  1.0000
  H   H1170     1.0  0.19559  0.46482  0.01206  1.0000
  H   H1171     1.0  0.35658  0.45321  0.09281  1.0000
  H   H1172     1.0  0.42778  0.41011  0.98280  1.0000
  H   H1173     1.0  0.11996  0.40735  0.37865  1.0000
  C   C1455     1.0  0.25559  0.42080  0.28721  1.0000
  C   C1456     1.0  0.26795  0.41899  0.30056  1.0000
  H   H1174     1.0  0.08239  0.46020  0.12550  1.0000
  H   H1175     1.0  0.09728  0.41880  0.30007  1.0000
  H   H1176     1.0  0.08023  0.42921  0.23108  1.0000
  C   C1457     1.0  0.01902  0.53639  0.24538  1.0000
  H   H1177     1.0  0.25896  0.42961  0.27231  1.0000
  H   H1178     1.0  0.28089  0.42643  0.29611  1.0000
  C   C1458     1.0  0.06510  0.48112  0.18379  1.0000
  C   C1459     1.0  0.14694  0.40259  0.19584  1.0000
  H   H1179     1.0  0.04190  0.54399  0.05435  1.0000
  C   C1460     1.0  0.47642  0.46712  0.07439  1.0000
  C   C1461     1.0  0.23258  0.58026  0.99938  1.0000
  C   C1462     1.0  0.30569  0.39840  0.37138  1.0000
  H   H1180     1.0  0.37645  0.57558  0.25068  1.0000
  C   C1463     1.0  0.45377  0.45577  0.00210  1.0000
  C   C1464     1.0  0.10455  0.39697  0.02413  1.0000
  H   H1181     1.0  0.37660  0.57952  0.44940  1.0000
  H   H1182     1.0  0.20170  0.50051  0.00460  1.0000
  S   S201      1.0  0.09139  0.41381  0.12662  1.0000
  H   H1183     1.0  0.05060  0.50105  0.20391  1.0000
  H   H1184     1.0  0.09417  0.38610  0.38523  1.0000
  H   H1185     1.0  0.22948  0.44514  0.01621  1.0000
  C   C1465     1.0  0.24358  0.52250  0.43275  1.0000
  C   C1466     1.0  0.22409  0.53185  0.42927  1.0000
  P   P52       1.0  0.26247  0.50990  0.41465  1.0000
  C   C1467     1.0  0.28602  0.51899  0.40797  1.0000
  C   C1468     1.0  0.26560  0.48375  0.42620  1.0000
  C   C1469     1.0  0.28349  0.47362  0.43284  1.0000
  C   C1470     1.0  0.28513  0.45367  0.44290  1.0000
  C   C1471     1.0  0.26901  0.44373  0.44633  1.0000
  C   C1472     1.0  0.25106  0.45380  0.43998  1.0000
  C   C1473     1.0  0.24928  0.47380  0.43011  1.0000
  C   C1474     1.0  0.30183  0.51165  0.39309  1.0000
  C   C1475     1.0  0.31960  0.51960  0.38657  1.0000
  C   C1476     1.0  0.32172  0.53487  0.39488  1.0000
  C   C1477     1.0  0.30598  0.54236  0.40952  1.0000
  C   C1478     1.0  0.28811  0.53464  0.41590  1.0000
  C   C1479     1.0  0.25509  0.51440  0.39106  1.0000
  C   C1480     1.0  0.25115  0.53414  0.38049  1.0000
  C   C1481     1.0  0.24795  0.53796  0.36112  1.0000
  C   C1482     1.0  0.24892  0.52209  0.35205  1.0000
  C   C1483     1.0  0.25311  0.50237  0.36233  1.0000
  C   C1484     1.0  0.25629  0.49850  0.38174  1.0000
  S   S202      1.0  0.33351  0.52272  0.01449  1.0000
  H   H1186     1.0  0.44154  0.44057  0.17126  1.0000
  H   H1187     1.0  0.22026  0.53272  0.41517  1.0000
  H   H1188     1.0  0.29604  0.48111  0.43052  1.0000
  H   H1189     1.0  0.29883  0.44582  0.44819  1.0000
  H   H1190     1.0  0.26054  0.47679  0.47413  1.0000
  H   H1191     1.0  0.21977  0.41668  0.05295  1.0000
  H   H1192     1.0  0.23514  0.48153  0.42557  1.0000
  H   H1193     1.0  0.30019  0.50019  0.38610  1.0000
  H   H1194     1.0  0.33154  0.51437  0.37466  1.0000
  H   H1195     1.0  0.33542  0.54117  0.38974  1.0000
  H   H1196     1.0  0.30764  0.55417  0.41596  1.0000
  H   H1197     1.0  0.27604  0.54111  0.42684  1.0000
  H   H1198     1.0  0.25141  0.54654  0.38691  1.0000
  H   H1199     1.0  0.24566  0.55317  0.35277  1.0000
  H   H1200     1.0  0.24727  0.52507  0.33674  1.0000
  H   H1201     1.0  0.25472  0.49006  0.35494  1.0000
  H   H1202     1.0  0.26056  0.48310  0.38895  1.0000
  C   C1485     1.0  0.19378  0.52250  0.21624  1.0000
  C   C1486     1.0  0.10247  0.52128  0.20219  1.0000
  C   C1487     1.0  0.02860  0.53860  0.20971  1.0000
  H   H1203     1.0  0.09512  0.41443  0.20454  1.0000
  H   H1204     1.0  0.18168  0.55988  0.04744  1.0000
  H   H1205     1.0  0.20235  0.57731  0.99843  1.0000
  C   C1488     1.0  0.05681  0.55968  0.15106  1.0000
  C   C1489     1.0  0.28424  0.48994  0.99646  1.0000
  C   C1490     1.0  0.27536  0.47449  0.00974  1.0000
  C   C1491     1.0  0.27507  0.45744  0.00280  1.0000
  P   P53       1.0  0.26228  0.47741  0.03482  1.0000
  C   C1492     1.0  0.26653  0.45352  0.05158  1.0000
  C   C1493     1.0  0.27320  0.49444  0.04250  1.0000
  C   C1494     1.0  0.29204  0.48789  0.04829  1.0000
  C   C1495     1.0  0.30077  0.50116  0.05373  1.0000
  C   C1496     1.0  0.25231  0.44858  0.06920  1.0000
  C   C1497     1.0  0.25624  0.43015  0.08208  1.0000
  C   C1498     1.0  0.27442  0.41660  0.07756  1.0000
  C   C1499     1.0  0.28874  0.42152  0.06021  1.0000
  C   C1500     1.0  0.28482  0.43989  0.04736  1.0000
  C   C1501     1.0  0.23551  0.48736  0.03521  1.0000
  C   C1502     1.0  0.22766  0.48950  0.01822  1.0000
  H   H1206     1.0  0.23363  0.44482  0.37631  1.0000
  C   C1503     1.0  0.48099  0.48456  0.07682  1.0000
  C   C1504     1.0  0.19467  0.50537  0.03472  1.0000
  C   C1505     1.0  0.22262  0.49439  0.05197  1.0000
  H   H1207     1.0  0.28459  0.50331  0.00129  1.0000
  H   H1208     1.0  0.26811  0.44542  0.01265  1.0000
  H   H1209     1.0  0.30029  0.47268  0.04819  1.0000
  H   H1210     1.0  0.31556  0.49622  0.05767  1.0000
  H   H1211     1.0  0.23827  0.45882  0.07317  1.0000
  H   H1212     1.0  0.24525  0.42633  0.09562  1.0000
  H   H1213     1.0  0.01004  0.57306  0.11713  1.0000
  H   H1214     1.0  0.40733  0.57825  0.18455  1.0000
  H   H1215     1.0  0.29623  0.44360  0.03417  1.0000
  C   C1506     1.0  0.43452  0.57475  0.44488  1.0000
  C   C1507     1.0  0.48025  0.57348  0.15963  1.0000
  H   H1216     1.0  0.24141  0.41176  0.00680  1.0000
  H   H1217     1.0  0.05783  0.46899  0.19308  1.0000
  C   C1508     1.0  0.32567  0.42670  0.40869  1.0000
  H   H1218     1.0  0.13155  0.41129  0.05243  1.0000
  C   C1509     1.0  0.04888  0.53794  0.21003  1.0000
  H   H1219     1.0  0.02445  0.53943  0.19578  1.0000
  H   H1220     1.0  0.09917  0.49157  0.14044  1.0000
  C   C1510     1.0  0.15001  0.38881  0.18348  1.0000
  C   C1511     1.0  0.42169  0.45114  0.15036  1.0000
  H   H1221     1.0  0.23850  0.44611  0.44291  1.0000
  H   H1222     1.0  0.44814  0.52945  0.26317  1.0000
  H   H1223     1.0  0.29756  0.52537  0.45642  1.0000
  H   H1224     1.0  0.22891  0.42717  0.41169  1.0000
  C   C1512     1.0  0.14320  0.45070  0.01531  1.0000
  C   C1513     1.0  0.15994  0.56698  0.27296  1.0000
  H   H1225     1.0  0.29864  0.47680  0.22717  1.0000
  S   S203      1.0  0.01263  0.47329  0.18908  1.0000
  C   C1514     1.0  0.35380  0.54694  0.45227  1.0000
  C   C1515     1.0  0.07058  0.51517  0.17812  1.0000
  H   H1226     1.0  0.14581  0.53725  0.19967  1.0000
  H   H1227     1.0  0.46503  0.57059  0.16232  1.0000
  C   C1516     1.0  0.41165  0.45484  0.18475  1.0000
  C   C1517     1.0  0.06096  0.49946  0.18986  1.0000
  C   C1518     1.0  0.18810  0.44294  0.99969  1.0000
  C   C1519     1.0  0.20418  0.42007  0.10185  1.0000
  C   C1520     1.0  0.30347  0.50940  0.45942  1.0000
  C   C1521     1.0  0.09237  0.53818  0.19082  1.0000
  C   C1522     1.0  0.12151  0.52112  0.20554  1.0000
  C   C1523     1.0  0.13074  0.53774  0.19751  1.0000
  C   C1524     1.0  0.12091  0.55456  0.18595  1.0000
  C   C1525     1.0  0.10186  0.55476  0.18246  1.0000
  H   H1228     1.0  0.42861  0.47074  0.02172  1.0000
  H   H1229     1.0  0.02845  0.43645  0.27994  1.0000
  C   C1526     1.0  0.40599  0.57706  0.43010  1.0000
  H   H1230     1.0  0.17897  0.51244  0.03448  1.0000
  H   H1231     1.0  0.08209  0.41621  0.27309  1.0000
  C   C1527     1.0  0.21346  0.42341  0.06598  1.0000
  H   H1232     1.0  0.26245  0.51346  0.45467  1.0000
  C   C1528     1.0  0.00318  0.55547  0.14659  1.0000
  H   H1233     1.0  0.18532  0.41768  0.98876  1.0000
  C   C1529     1.0  0.03715  0.41306  0.30404  1.0000
  C   C1530     1.0  0.01376  0.53760  0.22731  1.0000
  H   H1234     1.0  0.31294  0.57472  0.35898  1.0000
  H   H1235     1.0  0.14429  0.52610  0.24481  1.0000
  C   C1531     1.0  0.35000  0.53005  0.27345  1.0000
  H   H1236     1.0  0.19882  0.39958  0.35416  1.0000
  H   H1237     1.0  0.30462  0.40553  0.01921  1.0000
  H   H1238     1.0  0.32628  0.45280  0.47115  1.0000
  C   C1532     1.0  0.39814  0.42833  0.45162  1.0000
  C   C1533     1.0  0.43470  0.41293  0.09627  1.0000
  H   H1239     1.0  0.04815  0.57666  0.12379  1.0000
  C   C1534     1.0  0.21248  0.41144  0.08498  1.0000
  C   C1535     1.0  0.39267  0.57821  0.44849  1.0000
  C   C1536     1.0  0.17588  0.57278  0.05452  1.0000
  H   H1240     1.0  0.17584  0.38644  0.04919  1.0000
  C   C1537     1.0  0.03755  0.39300  0.31319  1.0000
  C   C1538     1.0  0.02263  0.39412  0.23822  1.0000
  H   H1241     1.0  0.48127  0.43985  0.98613  1.0000
  C   C1539     1.0  0.42124  0.57599  0.46330  1.0000
  H   H1242     1.0  0.35334  0.43225  0.97951  1.0000
  C   C1540     1.0  0.01288  0.45486  0.08443  1.0000
  C   C1541     1.0  0.14653  0.57903  0.46397  1.0000
  C   C1542     1.0  0.40238  0.54901  0.29020  1.0000
  H   H1243     1.0  0.14028  0.38736  0.24381  1.0000
  P   P54       1.0  0.00796  0.49009  0.09839  1.0000
  C   C1543     1.0  0.00458  0.42118  0.12734  1.0000
  C   C1544     1.0  0.30997  0.40271  0.98855  1.0000
  H   H1244     1.0  0.45953  0.53220  0.29257  1.0000
  C   C1545     1.0  0.43029  0.56967  0.23119  1.0000
  C   C1546     1.0  0.17310  0.57282  0.28168  1.0000
  S   S204      1.0  0.09234  0.38775  0.18116  1.0000
  H   H1245     1.0  0.27333  0.54151  0.00018  1.0000
  C   C1547     1.0  0.42686  0.57549  0.42824  1.0000
  H   H1246     1.0  0.37509  0.39204  0.46174  1.0000
  C   C1548     1.0  0.16539  0.48405  0.99173  1.0000
  S   S205      1.0  0.29913  0.39438  0.46986  1.0000
  H   H1247     1.0  0.26544  0.57928  0.32221  1.0000
  H   H1248     1.0  0.04351  0.38690  0.32663  1.0000
  H   H1249     1.0  0.24207  0.46706  0.97699  1.0000
  C   C1549     1.0  0.40890  0.55038  0.30685  1.0000
  H   H1250     1.0  0.22482  0.49127  0.47052  1.0000
  C   C1550     1.0  0.42948  0.54434  0.30769  1.0000
  H   H1251     1.0  0.39793  0.55619  0.31910  1.0000
  H   H1252     1.0  0.32556  0.51085  0.98085  1.0000
  H   H1253     1.0  0.22846  0.58200  0.40370  1.0000
  H   H1254     1.0  0.12838  0.56714  0.17901  1.0000
  Fe  Fe101     1.0  0.10587  0.57603  0.06260  1.0000
  H   H1255     1.0  0.43450  0.54558  0.32055  1.0000
  C   C1551     1.0  0.05341  0.57878  0.17633  1.0000
  C   C1552     1.0  0.04983  0.57727  0.13840  1.0000
  H   H1256     1.0  0.05457  0.57954  0.19107  1.0000
  C   C1553     1.0  0.14257  0.58080  0.26832  1.0000
  Fe  Fe102     1.0  0.09607  0.38541  0.14921  1.0000
  Fe  Fe103     1.0  0.34817  0.58442  0.37372  1.0000
  H   H1257     1.0  0.42729  0.57575  0.47603  1.0000
  C   C1554     1.0  0.99921  0.51401  0.06265  1.0000
  H   H1258     1.0  0.06746  0.58225  0.44360  1.0000
  C   C1555     1.0  0.99903  0.47085  0.09194  1.0000
  C   C1556     1.0  0.05734  0.58197  0.45812  1.0000
  C   C1557     1.0  0.06470  0.58278  0.47445  1.0000
  C   C1558     1.0  0.30723  0.56820  0.97659  1.0000
  H   H1259     1.0  0.08052  0.58360  0.47264  1.0000
  C   C1559     1.0  0.29268  0.48833  0.97660  1.0000
  C   C1560     1.0  0.43639  0.58377  0.21430  1.0000
  S   S206      1.0  0.32196  0.39441  0.95058  1.0000
  C   C1561     1.0  0.17870  0.51321  0.97129  1.0000
  S   S207      1.0  0.02085  0.56393  0.55404  1.0000
  C   C1562     1.0  0.22798  0.47923  0.48277  1.0000
  H   H1260     1.0  0.34520  0.47516  0.81054  1.0000
  C   C1563     1.0  0.45997  0.39051  0.94211  1.0000
  H   H1261     1.0  0.18574  0.48476  0.96271  1.0000
  C   C1564     1.0  0.13313  0.47058  0.71430  1.0000
  Fe  Fe104     1.0  0.45005  0.47742  0.68167  1.0000
  S   S208      1.0  0.43429  0.50727  0.66699  1.0000
  S   S209      1.0  0.43548  0.45881  0.71027  1.0000
  Fe  Fe105     1.0  0.44473  0.49477  0.63879  1.0000
  S   S210      1.0  0.42576  0.50274  0.61479  1.0000
  H   H1262     1.0  0.09066  0.38743  0.91945  1.0000
  S   S211      1.0  0.45842  0.46431  0.65392  1.0000
  Fe  Fe106     1.0  0.37711  0.44768  0.82907  1.0000
  Fe  Fe107     1.0  0.37773  0.48805  0.83713  1.0000
  S   S212      1.0  0.40840  0.47741  0.84519  1.0000
  S   S213      1.0  0.36387  0.52083  0.83390  1.0000
  C   C1565     1.0  0.32896  0.57353  0.72154  1.0000
  Fe  Fe108     1.0  0.39629  0.44979  0.86208  1.0000
  S   S214      1.0  0.39939  0.43212  0.89283  1.0000
  S   S215      1.0  0.38713  0.47528  0.80937  1.0000
  S   S216      1.0  0.36474  0.46162  0.85604  1.0000
  Fe  Fe109     1.0  0.46499  0.51580  0.66017  1.0000
  C   C1566     1.0  0.08041  0.43283  0.56671  1.0000
  H   H1263     1.0  0.04470  0.46987  0.58627  1.0000
  C   C1567     1.0  0.16004  0.45438  0.97208  1.0000
  Fe  Fe110     1.0  0.36308  0.45770  0.56058  1.0000
  S   S217      1.0  0.06786  0.40563  0.70169  1.0000
  S   S218      1.0  0.38119  0.44889  0.58536  1.0000
  Fe  Fe111     1.0  0.35895  0.48037  0.51881  1.0000
  S   S219      1.0  0.33278  0.46726  0.51783  1.0000
  C   C1568     1.0  0.46196  0.56641  0.49962  1.0000
  Fe  Fe112     1.0  0.32115  0.47225  0.54928  1.0000
  S   S220      1.0  0.28839  0.48282  0.56431  1.0000
  Fe  Fe113     1.0  0.35079  0.43826  0.53125  1.0000
  S   S221      1.0  0.34592  0.48814  0.54909  1.0000
  S   S222      1.0  0.37791  0.45107  0.53014  1.0000
  Fe  Fe114     1.0  0.17866  0.51537  0.54912  1.0000
  S   S223      1.0  0.17457  0.51976  0.58017  1.0000
  S   S224      1.0  0.20904  0.50955  0.52738  1.0000
  Fe  Fe115     1.0  0.13270  0.51813  0.55426  1.0000
  S   S225      1.0  0.12502  0.52254  0.58599  1.0000
  S   S226      1.0  0.11056  0.51338  0.53819  1.0000
  Fe  Fe116     1.0  0.14739  0.54334  0.57428  1.0000
  C   C1569     1.0  0.03121  0.52888  0.80535  1.0000
  Fe  Fe117     1.0  0.15282  0.49851  0.58932  1.0000
  S   S227      1.0  0.16007  0.47170  0.61327  1.0000
  S   S228      1.0  0.15298  0.54074  0.54217  1.0000
  S   S229      1.0  0.15884  0.49257  0.55851  1.0000
  Fe  Fe118     1.0  0.24157  0.53708  0.94180  1.0000
  S   S230      1.0  0.27392  0.53454  0.92459  1.0000
  S   S231      1.0  0.23251  0.50974  0.96377  1.0000
  H   H1264     1.0  0.05464  0.47991  0.72845  1.0000
  S   S232      1.0  0.47982  0.48704  0.67704  1.0000
  C   C1570     1.0  0.01058  0.51834  0.50224  1.0000
  C   C1571     1.0  0.25202  0.45516  0.50047  1.0000
  H   H1265     1.0  0.02402  0.50656  0.50170  1.0000
  H   H1266     1.0  0.26494  0.40504  0.50166  1.0000
  S   S233      1.0  0.47140  0.54594  0.65990  1.0000
  Fe  Fe119     1.0  0.07721  0.43381  0.70210  1.0000
  C   C1572     1.0  0.35845  0.51898  0.47974  1.0000
  S   S234      1.0  0.11060  0.43404  0.69680  1.0000
  H   H1267     1.0  0.21793  0.46172  0.54944  1.0000
  S   S235      1.0  0.05486  0.45394  0.68447  1.0000
  H   H1268     1.0  0.12223  0.45415  0.94934  1.0000
  C   C1573     1.0  0.12083  0.56869  0.66270  1.0000
  C   C1574     1.0  0.02226  0.52192  0.71188  1.0000
  C   C1575     1.0  0.30332  0.47701  0.48119  1.0000
  P   P55       1.0  0.12949  0.52747  0.66516  1.0000
  S   S236      1.0  0.29669  0.57408  0.94089  1.0000
  Fe  Fe120     1.0  0.25429  0.40920  0.93032  1.0000
  S   S237      1.0  0.23040  0.43736  0.92576  1.0000
  S   S238      1.0  0.28687  0.40991  0.91561  1.0000
  C   C1576     1.0  0.02513  0.43191  0.64459  1.0000
  C   C1577     1.0  0.23228  0.48967  0.95295  1.0000
  C   C1578     1.0  0.22619  0.49320  0.93484  1.0000
  C   C1579     1.0  0.22515  0.47706  0.92691  1.0000
  C   C1580     1.0  0.23126  0.45728  0.93644  1.0000
  C   C1581     1.0  0.23741  0.45372  0.95452  1.0000
  C   C1582     1.0  0.23752  0.46989  0.96293  1.0000
  H   H1269     1.0  0.22191  0.50839  0.92712  1.0000
  H   H1270     1.0  0.22023  0.47992  0.91300  1.0000
  H   H1271     1.0  0.24191  0.43852  0.96209  1.0000
  H   H1272     1.0  0.32281  0.40278  0.88281  1.0000
  C   C1583     1.0  0.03388  0.53621  0.71043  1.0000
  H   H1273     1.0  0.02795  0.55189  0.70552  1.0000
  H   H1274     1.0  0.46658  0.48291  0.59441  1.0000
  C   C1584     1.0  0.14512  0.46290  0.63648  1.0000
  C   C1585     1.0  0.12381  0.46741  0.64077  1.0000
  C   C1586     1.0  0.11281  0.45911  0.65948  1.0000
  C   C1587     1.0  0.12321  0.44609  0.67368  1.0000
  C   C1588     1.0  0.14449  0.44198  0.66938  1.0000
  C   C1589     1.0  0.15535  0.45020  0.65087  1.0000
  H   H1275     1.0  0.11589  0.47677  0.62950  1.0000
  H   H1276     1.0  0.09636  0.46258  0.66281  1.0000
  H   H1277     1.0  0.15263  0.43208  0.68029  1.0000
  H   H1278     1.0  0.17182  0.44663  0.64766  1.0000
  H   H1279     1.0  0.48252  0.38770  0.79425  1.0000
  C   C1590     1.0  0.42713  0.42108  0.56755  1.0000
  H   H1280     1.0  0.26762  0.44867  0.50164  1.0000
  C   C1591     1.0  0.22569  0.38568  0.86517  1.0000
  C   C1592     1.0  0.47405  0.46872  0.83578  1.0000
  C   C1593     1.0  0.13045  0.50572  0.68510  1.0000
  H   H1281     1.0  0.11038  0.56213  0.61005  1.0000
  C   C1594     1.0  0.22391  0.40384  0.85136  1.0000
  H   H1282     1.0  0.11321  0.39035  0.71850  1.0000
  C   C1595     1.0  0.26676  0.48942  0.55346  1.0000
  C   C1596     1.0  0.26825  0.49147  0.53300  1.0000
  C   C1597     1.0  0.25044  0.49735  0.52512  1.0000
  C   C1598     1.0  0.23115  0.50124  0.53762  1.0000
  C   C1599     1.0  0.22976  0.49870  0.55806  1.0000
  C   C1600     1.0  0.24745  0.49291  0.56590  1.0000
  H   H1283     1.0  0.28309  0.48870  0.52338  1.0000
  H   H1284     1.0  0.25154  0.49903  0.50935  1.0000
  H   H1285     1.0  0.21510  0.50125  0.56792  1.0000
  H   H1286     1.0  0.24617  0.49120  0.58175  1.0000
  H   H1287     1.0  0.38366  0.40416  0.87683  1.0000
  H   H1288     1.0  0.47668  0.48351  0.82810  1.0000
  H   H1289     1.0  0.46813  0.55302  0.49336  1.0000
  H   H1290     1.0  0.04175  0.43777  0.54327  1.0000
  C   C1601     1.0  0.08885  0.40133  0.64991  1.0000
  C   C1602     1.0  0.32515  0.57077  0.50093  1.0000
  C   C1603     1.0  0.16178  0.54082  0.63572  1.0000
  H   H1291     1.0  0.33092  0.51204  0.50004  1.0000
  C   C1604     1.0  0.32392  0.41994  0.50107  1.0000
  H   H1292     1.0  0.00414  0.57641  0.65352  1.0000
  H   H1293     1.0  0.44548  0.55101  0.52681  1.0000
  C   C1605     1.0  0.48725  0.54755  0.67521  1.0000
  H   H1294     1.0  0.39174  0.51467  0.97120  1.0000
  H   H1295     1.0  0.02030  0.45751  0.65793  1.0000
  C   C1606     1.0  0.20052  0.43444  0.59458  1.0000
  P   P56       1.0  0.49760  0.41072  0.82905  1.0000
  C   C1607     1.0  0.40322  0.54531  0.53815  1.0000
  C   C1608     1.0  0.02355  0.58100  0.47910  1.0000
  H   H1296     1.0  0.31057  0.53127  0.95197  1.0000
  C   C1609     1.0  0.00908  0.46181  0.77258  1.0000
  H   H1297     1.0  0.29830  0.42755  0.48681  1.0000
  C   C1610     1.0  0.33805  0.52818  0.84462  1.0000
  C   C1611     1.0  0.32762  0.54679  0.83633  1.0000
  C   C1612     1.0  0.48737  0.43325  0.59665  1.0000
  H   H1298     1.0  0.14954  0.57808  0.97601  1.0000
  C   C1613     1.0  0.30696  0.52257  0.86884  1.0000
  C   C1614     1.0  0.32775  0.51605  0.86096  1.0000
  C   C1615     1.0  0.21766  0.42209  0.85789  1.0000
  H   H1299     1.0  0.26225  0.45145  0.54312  1.0000
  H   H1300     1.0  0.29902  0.51317  0.88139  1.0000
  H   H1301     1.0  0.33577  0.50172  0.86750  1.0000
  C   C1616     1.0  0.40082  0.44439  0.91126  1.0000
  C   C1617     1.0  0.40971  0.46133  0.90632  1.0000
  C   C1618     1.0  0.41301  0.46917  0.92143  1.0000
  C   C1619     1.0  0.40653  0.46080  0.94155  1.0000
  C   C1620     1.0  0.39660  0.44458  0.94649  1.0000
  C   C1621     1.0  0.39409  0.43621  0.93138  1.0000
  H   H1302     1.0  0.41452  0.46808  0.89089  1.0000
  H   H1303     1.0  0.42066  0.48172  0.91755  1.0000
  H   H1304     1.0  0.39150  0.43805  0.96196  1.0000
  H   H1305     1.0  0.38687  0.42336  0.93531  1.0000
  C   C1622     1.0  0.41390  0.48728  0.60664  1.0000
  C   C1623     1.0  0.41509  0.46687  0.61480  1.0000
  C   C1624     1.0  0.40513  0.45534  0.60802  1.0000
  C   C1625     1.0  0.39385  0.46403  0.59303  1.0000
  C   C1626     1.0  0.39277  0.48441  0.58482  1.0000
  C   C1627     1.0  0.40272  0.49593  0.59161  1.0000
  H   H1306     1.0  0.42356  0.46000  0.62641  1.0000
  H   H1307     1.0  0.38402  0.49132  0.57344  1.0000
  H   H1308     1.0  0.40155  0.51173  0.58533  1.0000
  C   C1628     1.0  0.43935  0.46044  0.73345  1.0000
  C   C1629     1.0  0.42922  0.44940  0.75086  1.0000
  H   H1309     1.0  0.49160  0.45424  0.71481  1.0000
  C   C1630     1.0  0.14035  0.45552  0.96940  1.0000
  C   C1631     1.0  0.45413  0.47391  0.75378  1.0000
  C   C1632     1.0  0.45189  0.47266  0.73495  1.0000
  C   C1633     1.0  0.02257  0.42490  0.62876  1.0000
  H   H1310     1.0  0.46374  0.48349  0.75487  1.0000
  H   H1311     1.0  0.45958  0.48140  0.72164  1.0000
  C   C1634     1.0  0.04563  0.54955  0.55019  1.0000
  C   C1635     1.0  0.04916  0.53002  0.54695  1.0000
  C   C1636     1.0  0.06918  0.51914  0.54295  1.0000
  C   C1637     1.0  0.08567  0.52746  0.54288  1.0000
  C   C1638     1.0  0.08211  0.54684  0.54654  1.0000
  C   C1639     1.0  0.06212  0.55797  0.54986  1.0000
  H   H1312     1.0  0.03649  0.52344  0.54719  1.0000
  H   H1313     1.0  0.07185  0.50410  0.54027  1.0000
  H   H1314     1.0  0.09479  0.55318  0.54672  1.0000
  H   H1315     1.0  0.49204  0.44280  0.75984  1.0000
  H   H1316     1.0  0.12056  0.57838  0.51704  1.0000
  C   C1640     1.0  0.45906  0.40256  0.71329  1.0000
  C   C1641     1.0  0.17726  0.49314  0.97415  1.0000
  C   C1642     1.0  0.39289  0.54045  0.50423  1.0000
  C   C1643     1.0  0.39876  0.52371  0.51839  1.0000
  C   C1644     1.0  0.40381  0.52613  0.53539  1.0000
  C   C1645     1.0  0.06042  0.50986  0.72204  1.0000
  H   H1317     1.0  0.23589  0.52761  0.48105  1.0000
  H   H1318     1.0  0.27388  0.39005  0.53603  1.0000
  H   H1319     1.0  0.46782  0.41239  0.70192  1.0000
  H   H1320     1.0  0.39904  0.50884  0.51630  1.0000
  H   H1321     1.0  0.40810  0.51310  0.54645  1.0000
  S   S239      1.0  0.01446  0.48399  0.72116  1.0000
  C   C1646     1.0  0.00903  0.52314  0.78651  1.0000
  C   C1647     1.0  0.47981  0.41503  0.90891  1.0000
  H   H1322     1.0  0.00179  0.52178  0.81845  1.0000
  C   C1648     1.0  0.06967  0.42934  0.55404  1.0000
  H   H1323     1.0  0.00273  0.48092  0.63196  1.0000
  C   C1649     1.0  0.44158  0.40561  0.59666  1.0000
  C   C1650     1.0  0.47267  0.45107  0.59586  1.0000
  H   H1324     1.0  0.08294  0.58233  0.63188  1.0000
  C   C1651     1.0  0.07109  0.58054  0.58654  1.0000
  H   H1325     1.0  0.44732  0.41994  0.66884  1.0000
  C   C1652     1.0  0.04620  0.49536  0.62184  1.0000
  C   C1653     1.0  0.05147  0.51297  0.60956  1.0000
  C   C1654     1.0  0.06862  0.51198  0.59406  1.0000
  C   C1655     1.0  0.07991  0.49343  0.59011  1.0000
  H   H1326     1.0  0.03297  0.49604  0.63397  1.0000
  H   H1327     1.0  0.04229  0.52738  0.61203  1.0000
  H   H1328     1.0  0.07283  0.52563  0.58476  1.0000
  H   H1329     1.0  0.09263  0.49300  0.57751  1.0000
  H   H1330     1.0  0.13887  0.46358  0.53378  1.0000
  H   H1331     1.0  0.10352  0.46644  0.55286  1.0000
  C   C1656     1.0  0.33966  0.41538  0.85418  1.0000
  H   H1332     1.0  0.43994  0.39675  0.61159  1.0000
  C   C1657     1.0  0.05294  0.53019  0.71560  1.0000
  C   C1658     1.0  0.49449  0.42227  0.71965  1.0000
  H   H1333     1.0  0.40602  0.43961  0.61452  1.0000
  S   S240      1.0  0.41210  0.47004  0.96016  1.0000
  H   H1334     1.0  0.02811  0.40931  0.62774  1.0000
  H   H1335     1.0  0.02297  0.45455  0.76389  1.0000
  C   C1659     1.0  0.42172  0.51775  0.74814  1.0000
  C   C1660     1.0  0.43514  0.52658  0.73190  1.0000
  C   C1661     1.0  0.43055  0.53172  0.71300  1.0000
  C   C1662     1.0  0.41273  0.52775  0.71027  1.0000
  C   C1663     1.0  0.39948  0.51833  0.72635  1.0000
  C   C1664     1.0  0.40385  0.51382  0.74545  1.0000
  P   P57       1.0  0.37601  0.51431  0.72263  1.0000
  C   C1665     1.0  0.35770  0.53757  0.72208  1.0000
  C   C1666     1.0  0.38126  0.50614  0.69914  1.0000
  C   C1667     1.0  0.37979  0.52023  0.68139  1.0000
  C   C1668     1.0  0.39140  0.47949  0.68010  1.0000
  C   C1669     1.0  0.38737  0.48572  0.69826  1.0000
  C   C1670     1.0  0.34126  0.54081  0.71274  1.0000
  H   H1336     1.0  0.01886  0.48980  0.76566  1.0000
  H   H1337     1.0  0.34878  0.56280  0.92750  1.0000
  C   C1671     1.0  0.47064  0.40135  0.62669  1.0000
  C   C1672     1.0  0.35947  0.55241  0.73136  1.0000
  C   C1673     1.0  0.36581  0.49530  0.74239  1.0000
  C   C1674     1.0  0.34475  0.49741  0.75024  1.0000
  C   C1675     1.0  0.33698  0.48245  0.76520  1.0000
  C   C1676     1.0  0.35014  0.46529  0.77242  1.0000
  C   C1677     1.0  0.37111  0.46317  0.76491  1.0000
  C   C1678     1.0  0.37890  0.47805  0.74987  1.0000
  H   H1338     1.0  0.42527  0.51372  0.76282  1.0000
  H   H1339     1.0  0.44906  0.52951  0.73394  1.0000
  H   H1340     1.0  0.44078  0.53883  0.70040  1.0000
  H   H1341     1.0  0.40933  0.53216  0.69558  1.0000
  H   H1342     1.0  0.39357  0.50728  0.75833  1.0000
  H   H1343     1.0  0.37598  0.53610  0.68142  1.0000
  C   C1679     1.0  0.08317  0.39822  0.63352  1.0000
  H   H1344     1.0  0.38949  0.47451  0.71141  1.0000
  H   H1345     1.0  0.33944  0.52943  0.70575  1.0000
  C   C1680     1.0  0.32240  0.40637  0.96960  1.0000
  C   C1681     1.0  0.49730  0.53902  0.70711  1.0000
  C   C1682     1.0  0.24805  0.47101  0.48478  1.0000
  H   H1346     1.0  0.37186  0.55020  0.73888  1.0000
  H   H1347     1.0  0.33422  0.51051  0.74489  1.0000
  H   H1348     1.0  0.32076  0.48416  0.77127  1.0000
  H   H1349     1.0  0.34412  0.45370  0.78401  1.0000
  H   H1350     1.0  0.39515  0.47614  0.74399  1.0000
  S   S241      1.0  0.26095  0.58254  0.90543  1.0000
  C   C1683     1.0  0.29533  0.49750  0.47714  1.0000
  H   H1351     1.0  0.22847  0.39760  0.56983  1.0000
  C   C1684     1.0  0.45881  0.42026  0.91593  1.0000
  H   H1352     1.0  0.45552  0.41342  0.82678  1.0000
  P   P58       1.0  0.24064  0.42582  0.53330  1.0000
  C   C1685     1.0  0.08593  0.43228  0.61655  1.0000
  H   H1353     1.0  0.07646  0.41797  0.54509  1.0000
  H   H1354     1.0  0.49342  0.43379  0.65296  1.0000
  H   H1355     1.0  0.08955  0.38953  0.66295  1.0000
  H   H1356     1.0  0.35072  0.57063  0.95883  1.0000
  H   H1357     1.0  0.41964  0.43978  0.74981  1.0000
  H   H1358     1.0  0.20950  0.55875  0.50599  1.0000
  C   C1686     1.0  0.33570  0.40415  0.82596  1.0000
  H   H1359     1.0  0.26591  0.50650  0.88076  1.0000
  P   P59       1.0  0.47969  0.40954  0.60027  1.0000
  C   C1687     1.0  0.21875  0.39809  0.53092  1.0000
  H   H1360     1.0  0.18710  0.55076  0.61381  1.0000
  C   C1688     1.0  0.48618  0.45182  0.82865  1.0000
  H   H1361     1.0  0.34772  0.41981  0.95192  1.0000
  H   H1362     1.0  0.00769  0.52661  0.70761  1.0000
  C   C1689     1.0  0.13747  0.45310  0.95135  1.0000
  C   C1690     1.0  0.15420  0.44959  0.93581  1.0000
  C   C1691     1.0  0.17382  0.44850  0.93832  1.0000
  C   C1692     1.0  0.17675  0.45090  0.95633  1.0000
  C   C1693     1.0  0.25350  0.50369  0.87580  1.0000
  C   C1694     1.0  0.39182  0.55981  0.50705  1.0000
  C   C1695     1.0  0.00827  0.46531  0.63108  1.0000
  C   C1696     1.0  0.21823  0.51300  0.87276  1.0000
  C   C1697     1.0  0.46126  0.41536  0.63904  1.0000
  C   C1698     1.0  0.12751  0.54906  0.69434  1.0000
  C   C1699     1.0  0.22046  0.38614  0.88557  1.0000
  H   H1363     1.0  0.02724  0.54119  0.48563  1.0000
  H   H1364     1.0  0.29927  0.50035  0.96632  1.0000
  C   C1700     1.0  0.29879  0.48462  0.84143  1.0000
  C   C1701     1.0  0.15306  0.56835  0.48136  1.0000
  C   C1702     1.0  0.32274  0.39177  0.83869  1.0000
  H   H1365     1.0  0.27987  0.51428  0.84122  1.0000
  H   H1366     1.0  0.31833  0.41204  0.55266  1.0000
  C   C1703     1.0  0.45658  0.38855  0.66769  1.0000
  C   C1704     1.0  0.45434  0.40897  0.65945  1.0000
  H   H1367     1.0  0.15198  0.44787  0.92178  1.0000
  H   H1368     1.0  0.18686  0.44592  0.92627  1.0000
  H   H1369     1.0  0.19210  0.45016  0.95783  1.0000
  C   C1705     1.0  0.31141  0.41634  0.49001  1.0000
  C   C1706     1.0  0.00669  0.48189  0.77367  1.0000
  H   H1370     1.0  0.42238  0.44320  0.78301  1.0000
  C   C1707     1.0  0.30687  0.44854  0.91896  1.0000
  C   C1708     1.0  0.28656  0.45811  0.91998  1.0000
  C   C1709     1.0  0.27890  0.46537  0.90260  1.0000
  C   C1710     1.0  0.27837  0.44960  0.85495  1.0000
  Fe  Fe121     1.0  0.04568  0.41006  0.73012  1.0000
  C   C1711     1.0  0.28056  0.42994  0.83033  1.0000
  C   C1712     1.0  0.27211  0.41545  0.84531  1.0000
  C   C1713     1.0  0.26634  0.41821  0.86498  1.0000
  C   C1714     1.0  0.26942  0.43521  0.86982  1.0000
  H   H1371     1.0  0.32129  0.45773  0.83678  1.0000
  H   H1372     1.0  0.47792  0.39838  0.75982  1.0000
  H   H1373     1.0  0.31247  0.44191  0.93250  1.0000
  H   H1374     1.0  0.27654  0.45931  0.93431  1.0000
  H   H1375     1.0  0.26292  0.47172  0.90392  1.0000
  C   C1715     1.0  0.31783  0.39138  0.85917  1.0000
  H   H1376     1.0  0.28517  0.42773  0.81509  1.0000
  H   H1377     1.0  0.27034  0.40191  0.84180  1.0000
  H   H1378     1.0  0.25991  0.40691  0.87656  1.0000
  H   H1379     1.0  0.26475  0.43714  0.88516  1.0000
  C   C1716     1.0  0.46191  0.39781  0.83180  1.0000
  C   C1717     1.0  0.35871  0.55237  0.93653  1.0000
  C   C1718     1.0  0.34517  0.57034  0.73103  1.0000
  H   H1380     1.0  0.03400  0.52987  0.81941  1.0000
  C   C1719     1.0  0.14825  0.44204  0.57984  1.0000
  P   P60       1.0  0.08581  0.45190  0.59465  1.0000
  H   H1381     1.0  0.38133  0.45001  0.77084  1.0000
  H   H1382     1.0  0.01040  0.48427  0.68285  1.0000
  H   H1383     1.0  0.12577  0.43853  0.60672  1.0000
  H   H1384     1.0  0.04507  0.56253  0.63268  1.0000
  C   C1720     1.0  0.12443  0.56669  0.70151  1.0000
  C   C1721     1.0  0.19094  0.51864  0.62023  1.0000
  C   C1722     1.0  0.38261  0.52530  0.96152  1.0000
  C   C1723     1.0  0.44319  0.46362  0.77120  1.0000
  H   H1385     1.0  0.09689  0.42246  0.66264  1.0000
  H   H1386     1.0  0.40712  0.54709  0.55141  1.0000
  H   H1387     1.0  0.09551  0.42407  0.56741  1.0000
  C   C1724     1.0  0.43075  0.45132  0.76968  1.0000
  C   C1725     1.0  0.31730  0.47381  0.83234  1.0000
  H   H1388     1.0  0.16077  0.43609  0.58747  1.0000
  C   C1726     1.0  0.29252  0.47127  0.96990  1.0000
  H   H1389     1.0  0.29720  0.46781  0.49508  1.0000
  H   H1390     1.0  0.35242  0.55639  0.51134  1.0000
  H   H1391     1.0  0.46354  0.41608  0.86296  1.0000
  H   H1392     1.0  0.45013  0.43392  0.90883  1.0000
  C   C1727     1.0  0.46860  0.38618  0.72577  1.0000
  C   C1728     1.0  0.01796  0.45210  0.64584  1.0000
  C   C1729     1.0  0.21577  0.45596  0.51222  1.0000
  S   S242      1.0  0.14671  0.57334  0.58079  1.0000
  H   H1393     1.0  0.31440  0.56121  0.70510  1.0000
  H   H1394     1.0  0.30386  0.53120  0.81450  1.0000
  H   H1395     1.0  0.49590  0.53044  0.72214  1.0000
  C   C1730     1.0  0.49836  0.47005  0.59334  1.0000
  H   H1396     1.0  0.45929  0.43123  0.63304  1.0000
  H   H1397     1.0  0.43055  0.41976  0.70640  1.0000
  C   C1731     1.0  0.02390  0.52670  0.76902  1.0000
  C   C1732     1.0  0.34425  0.41592  0.83364  1.0000
  C   C1733     1.0  0.08168  0.41363  0.61689  1.0000
  H   H1398     1.0  0.47400  0.43170  0.56088  1.0000
  C   C1734     1.0  0.10783  0.52876  0.65489  1.0000
  C   C1735     1.0  0.10957  0.51817  0.63993  1.0000
  C   C1736     1.0  0.09203  0.51606  0.63488  1.0000
  C   C1737     1.0  0.07279  0.52412  0.64502  1.0000
  C   C1738     1.0  0.07101  0.53513  0.65948  1.0000
  C   C1739     1.0  0.08845  0.53780  0.66411  1.0000
  H   H1399     1.0  0.33538  0.43899  0.89968  1.0000
  C   C1740     1.0  0.31574  0.55837  0.88953  1.0000
  H   H1400     1.0  0.28311  0.50430  0.48786  1.0000
  C   C1741     1.0  0.18210  0.50222  0.63073  1.0000
  C   C1742     1.0  0.16319  0.50504  0.64382  1.0000
  C   C1743     1.0  0.31572  0.39830  0.48319  1.0000
  H   H1401     1.0  0.09334  0.50758  0.62360  1.0000
  H   H1402     1.0  0.05920  0.52165  0.64194  1.0000
  H   H1403     1.0  0.05611  0.54104  0.66763  1.0000
  H   H1404     1.0  0.08677  0.54593  0.67573  1.0000
  C   C1744     1.0  0.04884  0.49556  0.72334  1.0000
  H   H1405     1.0  0.05304  0.46327  0.62728  1.0000
  H   H1406     1.0  0.33931  0.40444  0.81012  1.0000
  H   H1407     1.0  0.18967  0.48727  0.62840  1.0000
  H   H1408     1.0  0.15651  0.49211  0.65162  1.0000
  C   C1745     1.0  0.29641  0.54090  0.85993  1.0000
  C   C1746     1.0  0.11587  0.45922  0.56053  1.0000
  P   P61       1.0  0.36746  0.52724  0.90893  1.0000
  C   C1747     1.0  0.39128  0.52487  0.89079  1.0000
  C   C1748     1.0  0.35877  0.50372  0.91608  1.0000
  C   C1749     1.0  0.36160  0.49176  0.90198  1.0000
  C   C1750     1.0  0.35585  0.47312  0.90782  1.0000
  C   C1751     1.0  0.34718  0.46629  0.92765  1.0000
  C   C1752     1.0  0.34374  0.47828  0.94167  1.0000
  C   C1753     1.0  0.34934  0.49701  0.93592  1.0000
  C   C1754     1.0  0.39100  0.52578  0.87083  1.0000
  C   C1755     1.0  0.40910  0.52410  0.85648  1.0000
  C   C1756     1.0  0.42772  0.52153  0.86189  1.0000
  C   C1757     1.0  0.42821  0.52068  0.88168  1.0000
  C   C1758     1.0  0.41007  0.52243  0.89607  1.0000
  C   C1759     1.0  0.07164  0.44744  0.57850  1.0000
  C   C1760     1.0  0.47814  0.46934  0.59434  1.0000
  S   S243      1.0  0.05727  0.43659  0.73218  1.0000
  H   H1409     1.0  0.29909  0.47011  0.95451  1.0000
  H   H1410     1.0  0.02623  0.46373  0.56381  1.0000
  H   H1411     1.0  0.19151  0.43652  0.60916  1.0000
  H   H1412     1.0  0.07695  0.41093  0.60455  1.0000
  C   C1761     1.0  0.09278  0.41994  0.64981  1.0000
  H   H1413     1.0  0.36854  0.49653  0.88656  1.0000
  H   H1414     1.0  0.35878  0.46359  0.89711  1.0000
  H   H1415     1.0  0.34352  0.45154  0.93217  1.0000
  H   H1416     1.0  0.33715  0.47284  0.95708  1.0000
  H   H1417     1.0  0.34663  0.50598  0.94708  1.0000
  H   H1418     1.0  0.37671  0.52783  0.86631  1.0000
  H   H1419     1.0  0.40855  0.52471  0.84117  1.0000
  H   H1420     1.0  0.44173  0.52023  0.85072  1.0000
  H   H1421     1.0  0.12525  0.56592  0.71674  1.0000
  H   H1422     1.0  0.30037  0.55634  0.89132  1.0000
  S   S244      1.0  0.35654  0.40923  0.51991  1.0000
  H   H1423     1.0  0.43108  0.58165  0.54115  1.0000
  H   H1424     1.0  0.19696  0.46604  0.58234  1.0000
  P   P62       1.0  0.38336  0.58111  0.48878  1.0000
  C   C1762     1.0  0.01284  0.43791  0.61422  1.0000
  H   H1425     1.0  0.38875  0.53827  0.49126  1.0000
  C   C1763     1.0  0.29096  0.43348  0.54822  1.0000
  H   H1426     1.0  0.48123  0.42231  0.73171  1.0000
  C   C1764     1.0  0.23587  0.44758  0.51431  1.0000
  C   C1765     1.0  0.12822  0.44365  0.59079  1.0000
  C   C1766     1.0  0.44895  0.40816  0.93255  1.0000
  H   H1427     1.0  0.02137  0.52603  0.75474  1.0000
  C   C1767     1.0  0.00576  0.45811  0.61525  1.0000
  Fe  Fe122     1.0  0.03414  0.45487  0.71455  1.0000
  Fe  Fe123     1.0  0.04348  0.42601  0.68679  1.0000
  H   H1428     1.0  0.18817  0.51998  0.95781  1.0000
  C   C1768     1.0  0.02961  0.50161  0.71851  1.0000
  S   S245      1.0  0.02054  0.42875  0.71520  1.0000
  H   H1429     1.0  0.14648  0.55559  0.49011  1.0000
  C   C1769     1.0  0.37154  0.54331  0.96694  1.0000
  C   C1770     1.0  0.33734  0.52166  0.48666  1.0000
  C   C1771     1.0  0.38157  0.52069  0.94377  1.0000
  C   C1772     1.0  0.23444  0.51626  0.87910  1.0000
  C   C1773     1.0  0.48227  0.43270  0.83806  1.0000
  C   C1774     1.0  0.13593  0.45749  0.54961  1.0000
  C   C1775     1.0  0.42610  0.39431  0.73006  1.0000
  H   H1430     1.0  0.07512  0.50519  0.72611  1.0000
  H   H1431     1.0  0.48746  0.42453  0.89615  1.0000
  H   H1432     1.0  0.01093  0.43232  0.60201  1.0000
  S   S246      1.0  0.03710  0.41474  0.66253  1.0000
  C   C1776     1.0  0.30360  0.41462  0.54882  1.0000
  C   C1777     1.0  0.32625  0.40326  0.86696  1.0000
  C   C1778     1.0  0.38372  0.51391  0.66327  1.0000
  C   C1779     1.0  0.21527  0.44853  0.56069  1.0000
  S   S247      1.0  0.47417  0.50595  0.63081  1.0000
  C   C1780     1.0  0.05202  0.45858  0.57733  1.0000
  H   H1433     1.0  0.34665  0.42405  0.86024  1.0000
  C   C1781     1.0  0.25127  0.39881  0.50785  1.0000
  C   C1782     1.0  0.21298  0.42237  0.87823  1.0000
  H   H1434     1.0  0.29867  0.56700  0.83673  1.0000
  C   C1783     1.0  0.32928  0.54384  0.89960  1.0000
  H   H1435     1.0  0.21683  0.43605  0.84716  1.0000
  H   H1436     1.0  0.20875  0.43648  0.88331  1.0000
  C   C1784     1.0  0.01233  0.53810  0.49326  1.0000
  H   H1437     1.0  0.13070  0.53485  0.70426  1.0000
  C   C1785     1.0  0.22391  0.42920  0.55685  1.0000
  H   H1438     1.0  0.38153  0.39707  0.84492  1.0000
  C   C1786     1.0  0.27849  0.40244  0.53907  1.0000
  S   S248      1.0  0.27000  0.54850  0.86771  1.0000
  C   C1787     1.0  0.34069  0.40540  0.50567  1.0000
  C   C1788     1.0  0.34487  0.38726  0.49901  1.0000
  H   H1439     1.0  0.32035  0.43379  0.50644  1.0000
  H   H1440     1.0  0.11905  0.56964  0.64779  1.0000
  C   C1789     1.0  0.45822  0.46658  0.85251  1.0000
  C   C1790     1.0  0.45455  0.44755  0.86218  1.0000
  C   C1791     1.0  0.46665  0.43066  0.85515  1.0000
  Fe  Fe124     1.0  0.29388  0.38895  0.94349  1.0000
  C   C1792     1.0  0.38941  0.49355  0.66265  1.0000
  H   H1441     1.0  0.39648  0.46375  0.67950  1.0000
  C   C1793     1.0  0.15212  0.44857  0.55921  1.0000
  Fe  Fe125     1.0  0.25980  0.55315  0.89925  1.0000
  C   C1794     1.0  0.44462  0.42900  0.55827  1.0000
  H   H1442     1.0  0.19629  0.47854  0.49530  1.0000
  C   C1795     1.0  0.01287  0.52426  0.80471  1.0000
  Fe  Fe126     1.0  0.05292  0.57832  0.69974  1.0000
  H   H1443     1.0  0.44858  0.47966  0.85784  1.0000
  H   H1444     1.0  0.44205  0.44584  0.87490  1.0000
  Fe  Fe127     1.0  0.27227  0.56405  0.93236  1.0000
  C   C1796     1.0  0.39748  0.56211  0.52393  1.0000
  H   H1445     1.0  0.32405  0.53074  0.90923  1.0000
  C   C1797     1.0  0.31161  0.53826  0.96358  1.0000
  H   H1446     1.0  0.22766  0.40406  0.83555  1.0000
  H   H1447     1.0  0.20861  0.49476  0.85789  1.0000
  C   C1798     1.0  0.11361  0.49626  0.69316  1.0000
  H   H1448     1.0  0.21082  0.40463  0.90783  1.0000
  P   P63       1.0  0.28147  0.47183  0.86143  1.0000
  H   H1449     1.0  0.41171  0.40384  0.59402  1.0000
  C   C1799     1.0  0.26580  0.42146  0.53821  1.0000
  C   C1800     1.0  0.12586  0.54996  0.67479  1.0000
  C   C1801     1.0  0.30750  0.51512  0.81929  1.0000
  H   H1450     1.0  0.05351  0.53413  0.75617  1.0000
  C   C1802     1.0  0.18062  0.53795  0.62250  1.0000
  H   H1451     1.0  0.28965  0.45828  0.82316  1.0000
  C   C1803     1.0  0.48666  0.53559  0.69420  1.0000
  H   H1452     1.0  0.48094  0.43839  0.79625  1.0000
  H   H1453     1.0  0.22351  0.57975  0.86083  1.0000
  H   H1454     1.0  0.06000  0.53616  0.78829  1.0000
  C   C1804     1.0  0.16802  0.57414  0.48757  1.0000
  H   H1455     1.0  0.24220  0.47268  0.85165  1.0000
  H   H1456     1.0  0.20544  0.51642  0.60982  1.0000
  C   C1805     1.0  0.24026  0.48467  0.85947  1.0000
  C   C1806     1.0  0.48207  0.39204  0.83453  1.0000
  C   C1807     1.0  0.32699  0.55876  0.71243  1.0000
  C   C1808     1.0  0.25657  0.48771  0.86606  1.0000
  H   H1457     1.0  0.39751  0.57672  0.52626  1.0000
  H   H1458     1.0  0.33556  0.55616  0.82374  1.0000
  C   C1809     1.0  0.27210  0.43689  0.54301  1.0000
  S   S249      1.0  0.22736  0.55360  0.91577  1.0000
  C   C1810     1.0  0.14984  0.48007  0.70668  1.0000
  C   C1811     1.0  0.20266  0.56052  0.53682  1.0000
  H   H1459     1.0  0.12556  0.39326  0.90313  1.0000
  H   H1460     1.0  0.40967  0.39773  0.73194  1.0000
  H   H1461     1.0  0.16392  0.47365  0.71176  1.0000
  C   C1812     1.0  0.30680  0.55295  0.84370  1.0000
  H   H1462     1.0  0.09942  0.50200  0.68819  1.0000
  H   H1463     1.0  0.16162  0.50472  0.68625  1.0000
  Fe  Fe128     1.0  0.48696  0.47657  0.64817  1.0000
  C   C1813     1.0  0.11182  0.45184  0.58115  1.0000
  C   C1814     1.0  0.04220  0.53129  0.76974  1.0000
  C   C1815     1.0  0.22114  0.49720  0.86294  1.0000
  H   H1464     1.0  0.20722  0.40234  0.60285  1.0000
  H   H1465     1.0  0.20689  0.40384  0.54255  1.0000
  C   C1816     1.0  0.20931  0.41518  0.59098  1.0000
  C   C1817     1.0  0.49100  0.39782  0.91874  1.0000
  C   C1818     1.0  0.35553  0.56360  0.88459  1.0000
  H   H1466     1.0  0.31654  0.55980  0.51062  1.0000
  C   C1819     1.0  0.19434  0.57269  0.55093  1.0000
  Fe  Fe129     1.0  0.41686  0.46267  0.81857  1.0000
  H   H1467     1.0  0.43282  0.41290  0.93811  1.0000
  C   C1820     1.0  0.44105  0.58255  0.52653  1.0000
  S   S250      1.0  0.24106  0.56537  0.95172  1.0000
  C   C1821     1.0  0.36977  0.53423  0.93104  1.0000
  H   H1468     1.0  0.38693  0.45606  0.48759  1.0000
  H   H1469     1.0  0.45682  0.45084  0.59701  1.0000
  C   C1822     1.0  0.31970  0.44677  0.90047  1.0000
  S   S251      1.0  0.36098  0.43064  0.81700  1.0000
  H   H1470     1.0  0.20312  0.45020  0.52267  1.0000
  H   H1471     1.0  0.20349  0.52282  0.87534  1.0000
  C   C1823     1.0  0.15304  0.52433  0.64677  1.0000
  H   H1472     1.0  0.29570  0.44543  0.55198  1.0000
  H   H1473     1.0  0.39277  0.48873  0.64855  1.0000
  S   S252      1.0  0.26090  0.38975  0.95920  1.0000
  H   H1474     1.0  0.41445  0.42443  0.56015  1.0000
  C   C1824     1.0  0.30535  0.55901  0.96190  1.0000
  H   H1475     1.0  0.48971  0.39007  0.56527  1.0000
  H   H1476     1.0  0.49834  0.45375  0.81566  1.0000
  C   C1825     1.0  0.33087  0.48363  0.81718  1.0000
  C   C1826     1.0  0.32611  0.50431  0.81077  1.0000
  H   H1477     1.0  0.33696  0.51195  0.79943  1.0000
  C   C1827     1.0  0.23687  0.40560  0.52394  1.0000
  H   H1478     1.0  0.23238  0.52868  0.88639  1.0000
  H   H1479     1.0  0.47734  0.52428  0.69924  1.0000
  H   H1480     1.0  0.38293  0.52476  0.64954  1.0000
  H   H1481     1.0  0.44554  0.43835  0.54357  1.0000
  C   C1828     1.0  0.04141  0.45513  0.56455  1.0000
  S   S253      1.0  0.06734  0.54799  0.71443  1.0000
  S   S254      1.0  0.40780  0.43383  0.83618  1.0000
  S   S255      1.0  0.44523  0.46618  0.79474  1.0000
  S   S256      1.0  0.33740  0.44211  0.56290  1.0000
  H   H1482     1.0  0.20857  0.54476  0.54158  1.0000
  H   H1483     1.0  0.44264  0.51868  0.88592  1.0000
  H   H1484     1.0  0.41093  0.52186  0.91120  1.0000
  C   C1829     1.0  0.05761  0.47680  0.61807  1.0000
  C   C1830     1.0  0.07429  0.47569  0.60195  1.0000
  C   C1831     1.0  0.29740  0.39913  0.54419  1.0000
  C   C1832     1.0  0.20352  0.45108  0.57944  1.0000
  C   C1833     1.0  0.05016  0.44049  0.55298  1.0000
  C   C1834     1.0  0.34937  0.54624  0.89695  1.0000
  C   C1835     1.0  0.29166  0.46376  0.88390  1.0000
  C   C1836     1.0  0.43787  0.40669  0.71562  1.0000
  H   H1485     1.0  0.19347  0.56629  0.56662  1.0000
  C   C1837     1.0  0.33763  0.41752  0.96637  1.0000
  C   C1838     1.0  0.21418  0.40439  0.89206  1.0000
  C   C1839     1.0  0.04585  0.53242  0.78787  1.0000
  C   C1840     1.0  0.35969  0.55688  0.95440  1.0000
  C   C1841     1.0  0.29391  0.50538  0.83459  1.0000
  C   C1842     1.0  0.11499  0.47880  0.70769  1.0000
  C   C1843     1.0  0.31218  0.45448  0.88304  1.0000
  C   C1844     1.0  0.04937  0.57302  0.61910  1.0000
  H   H1486     1.0  0.08055  0.39323  0.74308  1.0000
  C   C1845     1.0  0.09111  0.43540  0.63329  1.0000
  H   H1487     1.0  0.09411  0.44976  0.63339  1.0000
  C   C1846     1.0  0.22116  0.41256  0.57223  1.0000
  C   C1847     1.0  0.44913  0.56529  0.51846  1.0000
  H   H1488     1.0  0.10208  0.47134  0.71343  1.0000
  C   C1848     1.0  0.14849  0.49763  0.69220  1.0000
  H   H1489     1.0  0.12435  0.51091  0.63272  1.0000
  H   H1490     1.0  0.07392  0.55164  0.60590  1.0000
  C   C1849     1.0  0.28346  0.44709  0.83506  1.0000
  H   H1491     1.0  0.16768  0.44764  0.55085  1.0000
  H   H1492     1.0  0.13422  0.45671  0.72513  1.0000
  H   H1493     1.0  0.38959  0.50630  0.94021  1.0000
  H   H1494     1.0  0.32233  0.45266  0.86904  1.0000
  H   H1495     1.0  0.37091  0.56583  0.88259  1.0000
  Fe  Fe130     1.0  0.22972  0.58179  0.92414  1.0000
  C   C1850     1.0  0.46062  0.42528  0.56816  1.0000
  C   C1851     1.0  0.20313  0.56857  0.51665  1.0000
  C   C1852     1.0  0.45913  0.41370  0.58751  1.0000
  H   H1496     1.0  0.15420  0.55592  0.63710  1.0000
  C   C1853     1.0  0.39048  0.38953  0.87316  1.0000
  C   C1854     1.0  0.06552  0.56689  0.60401  1.0000
  S   S257      1.0  0.37488  0.49999  0.49233  1.0000
  H   H1497     1.0  0.43433  0.38805  0.83321  1.0000
  C   C1855     1.0  0.34569  0.56877  0.50110  1.0000
  C   C1856     1.0  0.49498  0.42930  0.78995  1.0000
  H   H1498     1.0  0.02176  0.58041  0.51029  1.0000
  C   C1857     1.0  0.21185  0.47186  0.49660  1.0000
  H   H1499     1.0  0.17270  0.56564  0.50111  1.0000
  H   H1500     1.0  0.30819  0.53922  0.48190  1.0000
  C   C1858     1.0  0.42561  0.40940  0.58671  1.0000
  C   C1859     1.0  0.35711  0.58260  0.48817  1.0000
  H   H1501     1.0  0.30265  0.58425  0.97522  1.0000
  H   H1502     1.0  0.34669  0.58176  0.73814  1.0000
  C   C1860     1.0  0.34195  0.57800  0.87444  1.0000
  C   C1861     1.0  0.11064  0.57762  0.60938  1.0000
  H   H1503     1.0  0.08369  0.57544  0.57513  1.0000
  C   C1862     1.0  0.32212  0.57526  0.87678  1.0000
  H   H1504     1.0  0.05928  0.57298  0.55255  1.0000
  H   H1505     1.0  0.05750  0.58209  0.50607  1.0000
  S   S258      1.0  0.04405  0.58332  0.67028  1.0000
  C   C1863     1.0  0.03128  0.58129  0.49552  1.0000
  C   C1864     1.0  0.05174  0.58215  0.49319  1.0000
  C   C1865     1.0  0.48115  0.38575  0.93540  1.0000
  C   C1866     1.0  0.38916  0.38552  0.85523  1.0000
  H   H1506     1.0  0.24847  0.58407  0.82882  1.0000
  C   C1867     1.0  0.32450  0.53701  0.47636  1.0000
  H   H1507     1.0  0.41057  0.42598  0.47727  1.0000
  C   C1868     1.0  0.46691  0.58474  0.48892  1.0000
  Fe  Fe131     1.0  0.48038  0.70253  0.41208  1.0000
  C   C1869     1.0  0.11425  0.64715  0.10436  1.0000
  C   C1870     1.0  0.08082  0.66437  0.47507  1.0000
  S   S259      1.0  0.11073  0.60360  0.03847  1.0000
  S   S260      1.0  0.45013  0.71461  0.40332  1.0000
  C   C1871     1.0  0.15077  0.77688  0.42429  1.0000
  C   C1872     1.0  0.02962  0.74466  0.97632  1.0000
  S   S261      1.0  0.04722  0.75743  0.97979  1.0000
  H   H1508     1.0  0.01478  0.71571  0.37425  1.0000
  S   S262      1.0  0.43356  0.76909  0.40610  1.0000
  P   P64       1.0  0.14636  0.77937  0.39965  1.0000
  C   C1873     1.0  0.01376  0.64094  0.46732  1.0000
  S   S263      1.0  0.40977  0.68096  0.43837  1.0000
  H   H1509     1.0  0.05550  0.61236  0.41226  1.0000
  S   S264      1.0  0.35211  0.61645  0.36604  1.0000
  H   H1510     1.0  0.17657  0.61387  0.44977  1.0000
  Fe  Fe132     1.0  0.18169  0.65180  0.40709  1.0000
  S   S265      1.0  0.18213  0.68434  0.39685  1.0000
  S   S266      1.0  0.20815  0.62844  0.41625  1.0000
  Fe  Fe133     1.0  0.13692  0.65765  0.40589  1.0000
  S   S267      1.0  0.13331  0.69104  0.39530  1.0000
  S   S268      1.0  0.11549  0.63587  0.41327  1.0000
  Fe  Fe134     1.0  0.16378  0.68411  0.37508  1.0000
  S   S269      1.0  0.17315  0.70049  0.34346  1.0000
  Fe  Fe135     1.0  0.15187  0.68928  0.41769  1.0000
  S   S270      1.0  0.14807  0.71402  0.43400  1.0000
  S   S271      1.0  0.16602  0.65069  0.38349  1.0000
  S   S272      1.0  0.15293  0.65666  0.43014  1.0000
  C   C1874     1.0  0.22553  0.59262  0.37330  1.0000
  C   C1875     1.0  0.47476  0.60386  0.10588  1.0000
  Fe  Fe136     1.0  0.07629  0.76306  0.03703  1.0000
  S   S273      1.0  0.10025  0.73566  0.04295  1.0000
  C   C1876     1.0  0.25254  0.62317  0.29066  1.0000
  Fe  Fe137     1.0  0.07810  0.71818  0.04048  1.0000
  S   S274      1.0  0.07510  0.68906  0.06232  1.0000
  S   S275      1.0  0.05275  0.74535  0.03765  1.0000
  H   H1511     1.0  0.08986  0.60002  0.11978  1.0000
  C   C1877     1.0  0.48041  0.63422  0.42179  1.0000
  C   C1878     1.0  0.48389  0.65366  0.05955  1.0000
  H   H1512     1.0  0.37604  0.66159  0.44416  1.0000
  H   H1513     1.0  0.07354  0.72813  0.39209  1.0000
  H   H1514     1.0  0.12383  0.59895  0.09777  1.0000
  H   H1515     1.0  0.48668  0.73881  0.46537  1.0000
  H   H1516     1.0  0.14785  0.76492  0.01679  1.0000
  H   H1517     1.0  0.17898  0.74712  0.99807  1.0000
  H   H1518     1.0  0.10724  0.63291  0.98305  1.0000
  C   C1879     1.0  0.44338  0.61622  0.12764  1.0000
  C   C1880     1.0  0.04641  0.59634  0.16362  1.0000
  S   S276      1.0  0.39389  0.61963  0.39305  1.0000
  H   H1519     1.0  0.19026  0.77009  0.02262  1.0000
  C   C1881     1.0  0.17007  0.60117  0.45881  1.0000
  C   C1882     1.0  0.13839  0.60005  0.27244  1.0000
  C   C1883     1.0  0.01840  0.73046  0.37110  1.0000
  C   C1884     1.0  0.17436  0.58992  0.08086  1.0000
  H   H1520     1.0  0.36678  0.73571  0.41879  1.0000
  H   H1521     1.0  0.49206  0.64003  0.40981  1.0000
  H   H1522     1.0  0.19445  0.62640  0.14245  1.0000
  H   H1523     1.0  0.06347  0.64423  0.45244  1.0000
  H   H1524     1.0  0.03239  0.69885  0.43997  1.0000
  C   C1885     1.0  0.16515  0.63138  0.00682  1.0000
  H   H1525     1.0  0.25080  0.63920  0.28884  1.0000
  H   H1526     1.0  0.00269  0.70762  0.99906  1.0000
  C   C1886     1.0  0.12484  0.62972  0.09712  1.0000
  H   H1527     1.0  0.00473  0.61035  0.44659  1.0000
  C   C1887     1.0  0.26857  0.62812  0.40522  1.0000
  C   C1888     1.0  0.34692  0.76387  0.42335  1.0000
  H   H1528     1.0  0.43295  0.65599  0.46643  1.0000
  C   C1889     1.0  0.06761  0.69673  0.29584  1.0000
  C   C1890     1.0  0.16231  0.61429  0.12007  1.0000
  H   H1529     1.0  0.28132  0.62000  0.41193  1.0000
  C   C1891     1.0  0.08450  0.66567  0.05481  1.0000
  C   C1892     1.0  0.09577  0.66390  0.03560  1.0000
  C   C1893     1.0  0.10371  0.64483  0.03066  1.0000
  C   C1894     1.0  0.10037  0.62744  0.04484  1.0000
  C   C1895     1.0  0.08913  0.62931  0.06395  1.0000
  C   C1896     1.0  0.08125  0.64828  0.06888  1.0000
  H   H1530     1.0  0.09847  0.67713  0.02461  1.0000
  H   H1531     1.0  0.11238  0.64358  0.01583  1.0000
  H   H1532     1.0  0.08636  0.61618  0.07498  1.0000
  H   H1533     1.0  0.07252  0.64948  0.08371  1.0000
  C   C1897     1.0  0.44885  0.62183  0.43270  1.0000
  C   C1898     1.0  0.16512  0.72671  0.33820  1.0000
  C   C1899     1.0  0.17916  0.73855  0.32656  1.0000
  H   H1534     1.0  0.45202  0.58627  0.12172  1.0000
  H   H1535     1.0  0.17961  0.59003  0.09390  1.0000
  C   C1900     1.0  0.13839  0.75656  0.33769  1.0000
  C   C1901     1.0  0.14475  0.73581  0.34404  1.0000
  H   H1536     1.0  0.19489  0.73162  0.32187  1.0000
  C   C1902     1.0  0.11162  0.64047  0.46538  1.0000
  H   H1537     1.0  0.07689  0.68231  0.30045  1.0000
  H   H1538     1.0  0.13374  0.72675  0.35278  1.0000
  C   C1903     1.0  0.24877  0.61541  0.27583  1.0000
  H   H1539     1.0  0.24668  0.61340  0.42769  1.0000
  H   H1540     1.0  0.21769  0.62941  0.45673  1.0000
  C   C1904     1.0  0.06222  0.69640  0.44551  1.0000
  H   H1541     1.0  0.07065  0.63137  0.13097  1.0000
  H   H1542     1.0  0.12231  0.74890  0.44596  1.0000
  C   C1905     1.0  0.23522  0.64948  0.38843  1.0000
  C   C1906     1.0  0.23228  0.63471  0.40559  1.0000
  C   C1907     1.0  0.24894  0.62434  0.41413  1.0000
  H   H1543     1.0  0.99886  0.72653  0.45019  1.0000
  C   C1908     1.0  0.11737  0.73616  0.45645  1.0000
  C   C1909     1.0  0.09464  0.64785  0.11624  1.0000
  C   C1910     1.0  0.36537  0.75183  0.41617  1.0000
  H   H1544     1.0  0.07379  0.77687  0.42801  1.0000
  C   C1911     1.0  0.20553  0.75773  0.97926  1.0000
  C   C1912     1.0  0.38715  0.65706  0.43144  1.0000
  Fe  Fe138     1.0  0.43694  0.69642  0.43243  1.0000
  Fe  Fe139     1.0  0.32122  0.62249  0.38610  1.0000
  H   H1545     1.0  0.10960  0.67783  0.97981  1.0000
  C   C1913     1.0  0.12281  0.77141  0.40157  1.0000
  H   H1546     1.0  0.46640  0.76697  0.36361  1.0000
  C   C1914     1.0  0.42818  0.58688  0.19746  1.0000
  C   C1915     1.0  0.46431  0.62859  0.41734  1.0000
  H   H1547     1.0  0.27950  0.60440  0.36393  1.0000
  H   H1548     1.0  0.17091  0.60291  0.14845  1.0000
  H   H1549     1.0  0.48306  0.76627  0.40489  1.0000
  C   C1916     1.0  0.04850  0.64429  0.40999  1.0000
  C   C1917     1.0  0.05637  0.66129  0.40883  1.0000
  C   C1918     1.0  0.07716  0.65932  0.40917  1.0000
  C   C1919     1.0  0.08984  0.64030  0.41104  1.0000
  C   C1920     1.0  0.08177  0.62352  0.41223  1.0000
  C   C1921     1.0  0.06140  0.62552  0.41142  1.0000
  H   H1550     1.0  0.04650  0.67585  0.40762  1.0000
  H   H1551     1.0  0.08322  0.67239  0.40833  1.0000
  H   H1552     1.0  0.09141  0.60881  0.41370  1.0000
  S   S277      1.0  0.43232  0.72093  0.44962  1.0000
  Fe  Fe140     1.0  0.06500  0.74737  0.00470  1.0000
  C   C1922     1.0  0.45619  0.60081  0.11857  1.0000
  C   C1923     1.0  0.16887  0.59210  0.28577  1.0000
  H   H1553     1.0  0.29979  0.59301  0.30677  1.0000
  H   H1554     1.0  0.43321  0.66478  0.40294  1.0000
  H   H1555     1.0  0.42656  0.64070  0.38587  1.0000
  H   H1556     1.0  0.03908  0.60908  0.13477  1.0000
  H   H1557     1.0  0.22107  0.64956  0.98136  1.0000
  H   H1558     1.0  0.16060  0.69112  0.01537  1.0000
  C   C1924     1.0  0.26464  0.77000  0.97903  1.0000
  H   H1559     1.0  0.25710  0.66475  0.36621  1.0000
  H   H1560     1.0  0.08155  0.73371  0.20629  1.0000
  C   C1925     1.0  0.09461  0.65450  0.46059  1.0000
  H   H1561     1.0  0.01802  0.71924  0.29708  1.0000
  C   C1926     1.0  0.45801  0.77788  0.35341  1.0000
  C   C1927     1.0  0.48111  0.63302  0.44162  1.0000
  P   P65       1.0  0.26432  0.61982  0.32651  1.0000
  H   H1562     1.0  0.08627  0.66157  0.12114  1.0000
  C   C1928     1.0  0.17301  0.61363  0.13455  1.0000
  H   H1563     1.0  0.48457  0.59146  0.09952  1.0000
  C   C1929     1.0  0.41549  0.64525  0.39860  1.0000
  C   C1930     1.0  0.22094  0.58955  0.47091  1.0000
  H   H1564     1.0  0.42914  0.61368  0.13769  1.0000
  C   C1931     1.0  0.08495  0.71422  0.41889  1.0000
  S   S278      1.0  0.08876  0.71919  0.00766  1.0000
  H   H1565     1.0  0.03969  0.71896  0.40606  1.0000
  C   C1932     1.0  0.08581  0.63089  0.12171  1.0000
  C   C1933     1.0  0.15343  0.60492  0.05647  1.0000
  H   H1566     1.0  0.23567  0.70535  0.99866  1.0000
  H   H1567     1.0  0.43122  0.76483  0.36435  1.0000
  H   H1568     1.0  0.47210  0.65219  0.10882  1.0000
  C   C1934     1.0  0.10161  0.73911  0.47294  1.0000
  C   C1935     1.0  0.17004  0.74553  0.38478  1.0000
  C   C1936     1.0  0.25408  0.60597  0.35057  1.0000
  Fe  Fe141     1.0  0.36413  0.61023  0.39413  1.0000
  H   H1569     1.0  0.22243  0.65764  0.38184  1.0000
  H   H1570     1.0  0.49573  0.71314  0.98234  1.0000
  H   H1571     1.0  0.14821  0.62058  0.28451  1.0000
  C   C1937     1.0  0.15509  0.59539  0.45267  1.0000
  C   C1938     1.0  0.12716  0.60451  0.98140  1.0000
  C   C1939     1.0  0.04466  0.59557  0.14463  1.0000
  H   H1572     1.0  0.03710  0.77944  0.42106  1.0000
  H   H1573     1.0  0.00942  0.75703  0.45252  1.0000
  C   C1940     1.0  0.41931  0.65890  0.40826  1.0000
  C   C1941     1.0  0.26464  0.60082  0.36613  1.0000
  C   C1942     1.0  0.04359  0.73409  0.28457  1.0000
  H   H1574     1.0  0.12179  0.63254  0.45418  1.0000
  P   P66       1.0  0.05732  0.68029  0.46956  1.0000
  C   C1943     1.0  0.25485  0.65344  0.37959  1.0000
  H   H1575     1.0  0.24424  0.62544  0.26277  1.0000
  H   H1576     1.0  0.35598  0.60953  0.46531  1.0000
  C   C1944     1.0  0.05124  0.71435  0.41496  1.0000
  C   C1945     1.0  0.14858  0.76236  0.03232  1.0000
  C   C1946     1.0  0.04643  0.69892  0.29974  1.0000
  H   H1577     1.0  0.00354  0.63194  0.46656  1.0000
  H   H1578     1.0  0.32000  0.61221  0.46450  1.0000
  C   C1947     1.0  0.06482  0.73216  0.28123  1.0000
  C   C1948     1.0  0.07681  0.71323  0.28644  1.0000
  P   P67       1.0  0.07655  0.75376  0.27004  1.0000
  C   C1949     1.0  0.09932  0.74984  0.27978  1.0000
  C   C1950     1.0  0.08260  0.75673  0.24316  1.0000
  C   C1951     1.0  0.09188  0.77257  0.23121  1.0000
  C   C1952     1.0  0.09758  0.77423  0.21057  1.0000
  C   C1953     1.0  0.04023  0.66502  0.46833  1.0000
  C   C1954     1.0  0.08441  0.74457  0.21327  1.0000
  C   C1955     1.0  0.07881  0.74279  0.23397  1.0000
  C   C1956     1.0  0.09832  0.74313  0.30030  1.0000
  C   C1957     1.0  0.11573  0.73920  0.30815  1.0000
  C   C1958     1.0  0.13444  0.74185  0.29561  1.0000
  C   C1959     1.0  0.13574  0.74832  0.27515  1.0000
  C   C1960     1.0  0.11832  0.75220  0.26722  1.0000
  C   C1961     1.0  0.44941  0.62081  0.45250  1.0000
  H   H1579     1.0  0.43609  0.61801  0.42918  1.0000
  C   C1962     1.0  0.04717  0.70289  0.43413  1.0000
  H   H1580     1.0  0.49352  0.63781  0.44466  1.0000
  C   C1963     1.0  0.27837  0.77748  0.98539  1.0000
  H   H1581     1.0  0.47028  0.65315  0.07114  1.0000
  H   H1582     1.0  0.17322  0.68339  0.46126  1.0000
  H   H1583     1.0  0.12490  0.61059  0.26894  1.0000
  C   C1964     1.0  0.22728  0.72004  0.99339  1.0000
  H   H1584     1.0  0.26373  0.58828  0.39710  1.0000
  H   H1585     1.0  0.09324  0.71126  0.28370  1.0000
  H   H1586     1.0  0.21944  0.58888  0.07169  1.0000
  H   H1587     1.0  0.24114  0.64339  0.04350  1.0000
  C   C1965     1.0  0.00303  0.74692  0.37508  1.0000
  C   C1966     1.0  0.08688  0.77246  0.41667  1.0000
  H   H1588     1.0  0.47278  0.59134  0.18227  1.0000
  H   H1589     1.0  0.08417  0.74050  0.31035  1.0000
  H   H1590     1.0  0.11460  0.73412  0.32405  1.0000
  H   H1591     1.0  0.14794  0.73876  0.30175  1.0000
  H   H1592     1.0  0.21293  0.77345  0.35242  1.0000
  H   H1593     1.0  0.12007  0.75671  0.25132  1.0000
  H   H1594     1.0  0.09450  0.75417  0.47494  1.0000
  C   C1967     1.0  0.07028  0.71965  0.40716  1.0000
  H   H1595     1.0  0.15603  0.58791  0.03417  1.0000
  C   C1968     1.0  0.14827  0.73949  0.06404  1.0000
  H   H1596     1.0  0.36926  0.63781  0.42689  1.0000
  S   S279      1.0  0.33334  0.61859  0.41366  1.0000
  S   S280      1.0  0.47896  0.72754  0.42718  1.0000
  C   C1969     1.0  0.25861  0.61025  0.30753  1.0000
  H   H1597     1.0  0.15286  0.63628  0.01863  1.0000
  C   C1970     1.0  0.00792  0.76592  0.37115  1.0000
  C   C1971     1.0  0.23477  0.62762  0.02393  1.0000
  C   C1972     1.0  0.18462  0.62276  0.01045  1.0000
  C   C1973     1.0  0.38210  0.76054  0.40570  1.0000
  C   C1974     1.0  0.49344  0.77644  0.39779  1.0000
  H   H1598     1.0  0.15194  0.60405  0.12300  1.0000
  C   C1975     1.0  0.23749  0.73407  0.97937  1.0000
  H   H1599     1.0  0.39862  0.64929  0.47112  1.0000
  H   H1600     1.0  0.43929  0.64665  0.13117  1.0000
  C   C1976     1.0  0.03445  0.71755  0.29395  1.0000
  C   C1977     1.0  0.15127  0.77383  0.06095  1.0000
  C   C1978     1.0  0.17304  0.75938  0.32130  1.0000
  H   H1601     1.0  0.09215  0.65749  0.44557  1.0000
  H   H1602     1.0  0.05025  0.72044  0.35921  1.0000
  C   C1979     1.0  0.38320  0.64360  0.42164  1.0000
  H   H1603     1.0  0.18717  0.62090  0.02525  1.0000
  H   H1604     1.0  0.43705  0.61604  0.46419  1.0000
  H   H1605     1.0  0.09510  0.78344  0.23791  1.0000
  H   H1606     1.0  0.10675  0.78366  0.42782  1.0000
  H   H1607     1.0  0.09848  0.76148  0.18557  1.0000
  H   H1608     1.0  0.20723  0.66568  0.44621  1.0000
  C   C1980     1.0  0.12702  0.71683  0.45369  1.0000
  C   C1981     1.0  0.04310  0.75231  0.35790  1.0000
  Fe  Fe142     1.0  0.33135  0.58631  0.41754  1.0000
  H   H1609     1.0  0.09946  0.71898  0.41321  1.0000
  H   H1610     1.0  0.14707  0.72481  0.07309  1.0000
  C   C1982     1.0  0.24187  0.62132  0.97850  1.0000
  C   C1983     1.0  0.01921  0.67011  0.47599  1.0000
  H   H1611     1.0  0.17757  0.76906  0.27831  1.0000
  C   C1984     1.0  0.99883  0.75020  0.46480  1.0000
  H   H1612     1.0  0.39654  0.75121  0.40040  1.0000
  C   C1985     1.0  0.25108  0.59474  0.27771  1.0000
  C   C1986     1.0  0.12113  0.70033  0.46771  1.0000
  H   H1613     1.0  0.03929  0.68622  0.30740  1.0000
  H   H1614     1.0  0.28479  0.76910  0.99809  1.0000
  Fe  Fe143     1.0  0.44748  0.73822  0.42083  1.0000
  H   H1615     1.0  0.22675  0.77119  0.01131  1.0000
  C   C1987     1.0  0.46768  0.63786  0.11126  1.0000
  C   C1988     1.0  0.14767  0.74327  0.04391  1.0000
  C   C1989     1.0  0.48247  0.66636  0.04116  1.0000
  Fe  Fe144     1.0  0.46422  0.70826  0.45459  1.0000
  H   H1616     1.0  0.18769  0.72029  0.37185  1.0000
  C   C1990     1.0  0.39742  0.63754  0.40519  1.0000
  C   C1991     1.0  0.27160  0.64261  0.38784  1.0000
  C   C1992     1.0  0.16142  0.63379  0.98786  1.0000
  S   S281      1.0  0.46762  0.68234  0.43988  1.0000
  C   C1993     1.0  0.32616  0.60025  0.31163  1.0000
  H   H1617     1.0  0.17307  0.74929  0.42317  1.0000
  H   H1618     1.0  0.05266  0.75978  0.30952  1.0000
  H   H1619     1.0  0.39978  0.61648  0.46419  1.0000
  C   C1994     1.0  0.48071  0.62239  0.10217  1.0000
  H   H1620     1.0  0.33395  0.75705  0.43143  1.0000
  H   H1621     1.0  0.21011  0.59013  0.37627  1.0000
  C   C1995     1.0  0.19538  0.74362  0.99317  1.0000
  C   C1996     1.0  0.46553  0.62641  0.45712  1.0000
  C   C1997     1.0  0.17794  0.66743  0.46639  1.0000
  C   C1998     1.0  0.20621  0.72481  0.00026  1.0000
  C   C1999     1.0  0.18682  0.73563  0.37265  1.0000
  H   H1622     1.0  0.19065  0.66587  0.02401  1.0000
  C   C2000     1.0  0.16822  0.76589  0.38470  1.0000
  C   C2001     1.0  0.16833  0.75863  0.45089  1.0000
  H   H1623     1.0  0.04218  0.61049  0.16855  1.0000
  H   H1624     1.0  0.26070  0.75584  0.98704  1.0000
  C   C2002     1.0  0.25568  0.59161  0.38510  1.0000
  C   C2003     1.0  0.09652  0.61331  0.11515  1.0000
  C   C2004     1.0  0.23014  0.61658  0.05971  1.0000
  H   H1625     1.0  0.02808  0.72426  0.00455  1.0000
  H   H1626     1.0  0.18639  0.63889  0.05374  1.0000
  H   H1627     1.0  0.46796  0.67553  0.03875  1.0000
  S   S282      1.0  0.02271  0.64506  0.41026  1.0000
  C   C2005     1.0  0.26062  0.58953  0.30941  1.0000
  C   C2006     1.0  0.30518  0.60272  0.31313  1.0000
  Fe  Fe145     1.0  0.10928  0.73847  0.00984  1.0000
  C   C2007     1.0  0.19714  0.65749  0.45798  1.0000
  H   H1628     1.0  0.14615  0.73147  0.03729  1.0000
  C   C2008     1.0  0.03443  0.63612  0.45903  1.0000
  C   C2009     1.0  0.48464  0.58526  0.17089  1.0000
  C   C2010     1.0  0.44910  0.63476  0.12395  1.0000
  S   S283      1.0  0.99965  0.70050  0.42204  1.0000
  C   C2011     1.0  0.03843  0.73317  0.36251  1.0000
  H   H1629     1.0  0.10025  0.75077  0.37605  1.0000
  C   C2012     1.0  0.20226  0.74563  0.36103  1.0000
  C   C2013     1.0  0.16150  0.58856  0.04700  1.0000
  C   C2014     1.0  0.09392  0.76020  0.20159  1.0000
  H   H1630     1.0  0.09257  0.69839  0.44676  1.0000
  H   H1631     1.0  0.49369  0.73365  0.38337  1.0000
  S   S284      1.0  0.05322  0.77196  0.47290  1.0000
  C   C2015     1.0  0.11587  0.61275  0.10271  1.0000
  S   S285      1.0  0.14297  0.73198  0.99648  1.0000
  H   H1632     1.0  0.19815  0.71388  0.01083  1.0000
  H   H1633     1.0  0.14633  0.64041  0.98518  1.0000
  H   H1634     1.0  0.15030  0.75025  0.26544  1.0000
  H   H1635     1.0  0.21511  0.73785  0.35160  1.0000
  H   H1636     1.0  0.44767  0.59217  0.21419  1.0000
  H   H1637     1.0  0.13013  0.69412  0.99234  1.0000
  C   C2016     1.0  0.15151  0.60569  0.28119  1.0000
  C   C2017     1.0  0.10183  0.75776  0.38749  1.0000
  C   C2018     1.0  0.22356  0.59978  0.05837  1.0000
  P   P68       1.0  0.22613  0.60695  0.99873  1.0000
  C   C2019     1.0  0.02789  0.76866  0.36241  1.0000
  C   C2020     1.0  0.40525  0.66471  0.42489  1.0000
  C   C2021     1.0  0.04764  0.64815  0.45938  1.0000
  H   H1638     1.0  0.12091  0.59791  0.99662  1.0000
  S   S286      1.0  0.06797  0.75542  0.34618  1.0000
  C   C2022     1.0  0.43810  0.77662  0.35381  1.0000
  H   H1639     1.0  0.11612  0.77949  0.09471  1.0000
  H   H1640     1.0  0.03405  0.74844  0.28034  1.0000
  C   C2023     1.0  0.25375  0.68093  0.30979  1.0000
  C   C2024     1.0  0.23556  0.68690  0.32288  1.0000
  C   C2025     1.0  0.22610  0.67255  0.33711  1.0000
  C   C2026     1.0  0.23467  0.65224  0.33826  1.0000
  C   C2027     1.0  0.25299  0.64606  0.32524  1.0000
  C   C2028     1.0  0.26242  0.66059  0.31093  1.0000
  C   C2029     1.0  0.29152  0.61700  0.32344  1.0000
  H   H1641     1.0  0.22606  0.60562  0.34251  1.0000
  C   C2030     1.0  0.08097  0.70260  0.43799  1.0000
  H   H1642     1.0  0.23945  0.63847  0.01085  1.0000
  C   C2031     1.0  0.33363  0.61204  0.32031  1.0000
  C   C2032     1.0  0.32014  0.62653  0.33023  1.0000
  C   C2033     1.0  0.29919  0.62895  0.33187  1.0000
  H   H1643     1.0  0.26119  0.69207  0.29888  1.0000
  H   H1644     1.0  0.22877  0.70262  0.32213  1.0000
  H   H1645     1.0  0.21213  0.67718  0.34742  1.0000
  H   H1646     1.0  0.22703  0.64159  0.34962  1.0000
  H   H1647     1.0  0.27659  0.65619  0.30077  1.0000
  H   H1648     1.0  0.07012  0.76075  0.40194  1.0000
  C   C2034     1.0  0.13650  0.68825  0.97878  1.0000
  H   H1649     1.0  0.17918  0.74598  0.45658  1.0000
  H   H1650     1.0  0.34983  0.60967  0.31973  1.0000
  H   H1651     1.0  0.32579  0.63569  0.33707  1.0000
  H   H1652     1.0  0.28898  0.63989  0.34012  1.0000
  P   P69       1.0  0.15092  0.62841  0.08358  1.0000
  C   C2035     1.0  0.16503  0.62798  0.10192  1.0000
  C   C2036     1.0  0.16007  0.60596  0.07320  1.0000
  C   C2037     1.0  0.20052  0.61676  0.99498  1.0000
  C   C2038     1.0  0.17808  0.64147  0.09876  1.0000
  C   C2039     1.0  0.18871  0.64081  0.11332  1.0000
  C   C2040     1.0  0.18625  0.62684  0.13116  1.0000
  C   C2041     1.0  0.15384  0.64889  0.06246  1.0000
  C   C2042     1.0  0.13690  0.66291  0.05706  1.0000
  C   C2043     1.0  0.13943  0.67817  0.04028  1.0000
  C   C2044     1.0  0.15880  0.67934  0.02846  1.0000
  C   C2045     1.0  0.17570  0.66518  0.03340  1.0000
  C   C2046     1.0  0.17322  0.64998  0.05028  1.0000
  H   H1653     1.0  0.12107  0.66026  0.10071  1.0000
  S   S287      1.0  0.08673  0.76688  0.00385  1.0000
  H   H1654     1.0  0.14191  0.61679  0.05077  1.0000
  H   H1655     1.0  0.17987  0.65271  0.08531  1.0000
  H   H1656     1.0  0.19870  0.65129  0.11087  1.0000
  S   S288      1.0  0.29619  0.64727  0.37629  1.0000
  H   H1657     1.0  0.12162  0.66202  0.06543  1.0000
  H   H1658     1.0  0.12623  0.68898  0.03633  1.0000
  C   C2047     1.0  0.00818  0.71962  0.98769  1.0000
  H   H1659     1.0  0.43321  0.59755  0.18426  1.0000
  H   H1660     1.0  0.33659  0.58865  0.30440  1.0000
  H   H1661     1.0  0.04016  0.62340  0.45177  1.0000
  C   C2048     1.0  0.20096  0.76566  0.36144  1.0000
  C   C2049     1.0  0.23461  0.60144  0.35421  1.0000
  C   C2050     1.0  0.22245  0.59690  0.03985  1.0000
  C   C2051     1.0  0.04935  0.77348  0.29893  1.0000
  H   H1662     1.0  0.12858  0.68536  0.46559  1.0000
  C   C2052     1.0  0.00613  0.65790  0.47579  1.0000
  C   C2053     1.0  0.05884  0.77512  0.27867  1.0000
  H   H1663     1.0  0.07172  0.73039  0.24271  1.0000
  H   H1664     1.0  0.15009  0.60370  0.43912  1.0000
  C   C2054     1.0  0.02259  0.72901  0.99083  1.0000
  H   H1665     1.0  0.46351  0.62996  0.40197  1.0000
  C   C2055     1.0  0.38042  0.78127  0.40240  1.0000
  H   H1666     1.0  0.17901  0.59646  0.29262  1.0000
  H   H1667     1.0  0.23110  0.61872  0.07406  1.0000
  C   C2056     1.0  0.12065  0.76199  0.38713  1.0000
  H   H1668     1.0  0.45401  0.77854  0.43311  1.0000
  C   C2057     1.0  0.20305  0.63681  0.46406  1.0000
  H   H1669     1.0  0.13334  0.75846  0.37526  1.0000
  H   H1670     1.0  0.12250  0.76332  0.34153  1.0000
  C   C2058     1.0  0.22807  0.61079  0.02246  1.0000
  H   H1671     1.0  0.04905  0.72359  0.46972  1.0000
  H   H1672     1.0  0.15838  0.73738  0.39389  1.0000
  H   H1673     1.0  0.18413  0.76843  0.31282  1.0000
  S   S289      1.0  0.31654  0.59108  0.39167  1.0000
  C   C2059     1.0  0.08485  0.76336  0.40205  1.0000
  C   C2060     1.0  0.23575  0.63049  0.04249  1.0000
  H   H1674     1.0  0.24848  0.58869  0.26610  1.0000
  C   C2061     1.0  0.15259  0.76846  0.32662  1.0000
  H   H1675     1.0  0.10052  0.76964  0.07148  1.0000
  C   C2062     1.0  0.16491  0.76064  0.43182  1.0000
  C   C2063     1.0  0.15015  0.75475  0.07253  1.0000
  C   C2064     1.0  0.09632  0.78479  0.07412  1.0000
  H   H1676     1.0  0.20791  0.78347  0.25933  1.0000
  C   C2065     1.0  0.10576  0.77639  0.41647  1.0000
  C   C2066     1.0  0.18408  0.77574  0.37327  1.0000
  C   C2067     1.0  0.34524  0.78463  0.42028  1.0000
  C   C2068     1.0  0.17573  0.78374  0.26881  1.0000
  C   C2069     1.0  0.15750  0.77268  0.46267  1.0000
  H   H1677     1.0  0.04954  0.77577  0.09205  1.0000
  H   H1678     1.0  0.01806  0.77940  0.08013  1.0000
  C   C2070     1.0  0.23596  0.58792  0.38878  1.0000
  H   H1679     1.0  0.15043  0.75193  0.08820  1.0000
  C   C2071     1.0  0.32709  0.60032  0.47497  1.0000
  H   H1680     1.0  0.47696  0.58534  0.47437  1.0000
  C   C2072     1.0  0.34754  0.59857  0.47532  1.0000
  C   C2073     1.0  0.15028  0.77787  0.04077  1.0000
  C   C2074     1.0  0.21559  0.78502  0.01064  1.0000
  H   H1681     1.0  0.03152  0.78337  0.35920  1.0000
  C   C2075     1.0  0.19484  0.78445  0.01707  1.0000
  H   H1682     1.0  0.18192  0.61706  0.52048  1.0000
  C   C2076     1.0  0.04789  0.72887  0.65344  1.0000
  C   C2077     1.0  0.01579  0.61563  0.54220  1.0000
  H   H1683     1.0  0.02065  0.70405  0.68630  1.0000
  C   C2078     1.0  0.06423  0.64263  0.56536  1.0000
  C   C2079     1.0  0.18747  0.60123  0.52468  1.0000
  H   H1684     1.0  0.02406  0.76413  0.71984  1.0000
  C   C2080     1.0  0.04979  0.67879  0.96929  1.0000
  Fe  Fe146     1.0  0.06146  0.75891  0.50264  1.0000
  C   C2081     1.0  0.39273  0.61935  0.47900  1.0000
  H   H1685     1.0  0.03374  0.68341  0.97547  1.0000
  C   C2082     1.0  0.06250  0.69282  0.96287  1.0000
  H   H1686     1.0  0.11158  0.63324  0.60668  1.0000
  H   H1687     1.0  0.02072  0.74405  0.67089  1.0000
  H   H1688     1.0  0.04720  0.67864  0.67957  1.0000
  C   C2083     1.0  0.39200  0.63814  0.48281  1.0000
  C   C2084     1.0  0.03781  0.75754  0.88787  1.0000
  H   H1689     1.0  0.23608  0.59447  0.49204  1.0000
  C   C2085     1.0  0.07492  0.75245  0.66750  1.0000
  H   H1690     1.0  0.29891  0.60314  0.83747  1.0000
  S   S290      1.0  0.02771  0.70204  0.87588  1.0000
  C   C2086     1.0  0.13291  0.67194  0.95363  1.0000
  Fe  Fe147     1.0  0.07614  0.73444  0.76933  1.0000
  S   S291      1.0  0.09449  0.70340  0.77569  1.0000
  S   S292      1.0  0.04343  0.74324  0.78487  1.0000
  Fe  Fe148     1.0  0.11055  0.74957  0.73789  1.0000
  S   S293      1.0  0.13168  0.71968  0.74207  1.0000
  Fe  Fe149     1.0  0.10464  0.70694  0.74266  1.0000
  S   S294      1.0  0.10904  0.68204  0.72583  1.0000
  Fe  Fe150     1.0  0.11961  0.71897  0.77479  1.0000
  S   S295      1.0  0.13772  0.70648  0.79917  1.0000
  S   S296      1.0  0.08441  0.73696  0.73609  1.0000
  S   S297      1.0  0.10050  0.74990  0.77064  1.0000
  Fe  Fe151     1.0  0.05713  0.61109  0.66342  1.0000
  S   S298      1.0  0.06874  0.60439  0.69155  1.0000
  S   S299      1.0  0.07644  0.62461  0.63492  1.0000
  C   C2087     1.0  0.02898  0.74671  0.62104  1.0000
  S   S300      1.0  0.02353  0.59508  0.71490  1.0000
  C   C2088     1.0  0.38372  0.60495  0.49392  1.0000
  Fe  Fe152     1.0  0.03858  0.62194  0.70417  1.0000
  S   S301      1.0  0.03457  0.64516  0.72311  1.0000
  H   H1691     1.0  0.99948  0.71080  0.78568  1.0000
  S   S302      1.0  0.02770  0.63043  0.67543  1.0000
  C   C2089     1.0  0.37313  0.61006  0.51230  1.0000
  Fe  Fe153     1.0  0.22123  0.72273  0.88212  1.0000
  S   S303      1.0  0.22056  0.74837  0.89623  1.0000
  S   S304      1.0  0.23644  0.69197  0.89639  1.0000
  Fe  Fe154     1.0  0.20420  0.75031  0.84728  1.0000
  C   C2090     1.0  0.03526  0.68546  0.50741  1.0000
  S   S305      1.0  0.19389  0.75568  0.81813  1.0000
  H   H1692     1.0  0.15426  0.70598  0.57277  1.0000
  H   H1693     1.0  0.34643  0.62211  0.78935  1.0000
  H   H1694     1.0  0.06939  0.62752  0.51763  1.0000
  H   H1695     1.0  0.10546  0.62567  0.56302  1.0000
  S   S306      1.0  0.23625  0.73756  0.85175  1.0000
  S   S307      1.0  0.18938  0.73358  0.87663  1.0000
  C   C2091     1.0  0.14151  0.71372  0.53134  1.0000
  S   S308      1.0  0.20471  0.60963  0.92333  1.0000
  H   H1696     1.0  0.11439  0.74537  0.81546  1.0000
  H   H1697     1.0  0.36449  0.63266  0.53035  1.0000
  C   C2092     1.0  0.25994  0.61215  0.96713  1.0000
  H   H1698     1.0  0.23722  0.73484  0.93960  1.0000
  H   H1699     1.0  0.09572  0.70726  0.69231  1.0000
  S   S309      1.0  0.07751  0.72678  0.50882  1.0000
  H   H1700     1.0  0.43044  0.74691  0.54211  1.0000
  H   H1701     1.0  0.00924  0.77329  0.88036  1.0000
  C   C2093     1.0  0.17252  0.74872  0.93980  1.0000
  C   C2094     1.0  0.16809  0.73921  0.95983  1.0000
  H   H1702     1.0  0.27552  0.77918  0.92138  1.0000
  C   C2095     1.0  0.12655  0.58635  0.59643  1.0000
  C   C2096     1.0  0.02414  0.77324  0.70507  1.0000
  H   H1703     1.0  0.18688  0.74375  0.93032  1.0000
  C   C2097     1.0  0.23207  0.59167  0.85700  1.0000
  H   H1704     1.0  0.26818  0.61101  0.82004  1.0000
  H   H1705     1.0  0.05629  0.70829  0.96413  1.0000
  C   C2098     1.0  0.22672  0.66955  0.90363  1.0000
  C   C2099     1.0  0.20703  0.66875  0.90252  1.0000
  C   C2100     1.0  0.20034  0.65030  0.90856  1.0000
  C   C2101     1.0  0.21324  0.63266  0.91572  1.0000
  C   C2102     1.0  0.23287  0.63355  0.91670  1.0000
  C   C2103     1.0  0.23952  0.65187  0.91060  1.0000
  H   H1706     1.0  0.19707  0.68225  0.89694  1.0000
  H   H1707     1.0  0.18529  0.64962  0.90733  1.0000
  H   H1708     1.0  0.24297  0.62015  0.92224  1.0000
  H   H1709     1.0  0.25478  0.65234  0.91119  1.0000
  C   C2104     1.0  0.15236  0.72080  0.80497  1.0000
  C   C2105     1.0  0.15509  0.73952  0.79337  1.0000
  C   C2106     1.0  0.16720  0.75036  0.79810  1.0000
  C   C2107     1.0  0.17675  0.74262  0.81438  1.0000
  C   C2108     1.0  0.17342  0.72422  0.82642  1.0000
  C   C2109     1.0  0.16136  0.71331  0.82165  1.0000
  H   H1710     1.0  0.14810  0.74550  0.78060  1.0000
  H   H1711     1.0  0.07559  0.66941  0.50500  1.0000
  H   H1712     1.0  0.18058  0.71815  0.83907  1.0000
  H   H1713     1.0  0.15915  0.69891  0.83077  1.0000
  C   C2110     1.0  0.08830  0.67145  0.72587  1.0000
  C   C2111     1.0  0.06868  0.67778  0.73649  1.0000
  C   C2112     1.0  0.05243  0.66934  0.73580  1.0000
  C   C2113     1.0  0.05564  0.65456  0.72449  1.0000
  C   C2114     1.0  0.07539  0.64786  0.71433  1.0000
  C   C2115     1.0  0.09160  0.65639  0.71488  1.0000
  H   H1714     1.0  0.06601  0.68920  0.74520  1.0000
  H   H1715     1.0  0.03730  0.67429  0.74405  1.0000
  H   H1716     1.0  0.07817  0.63627  0.70586  1.0000
  H   H1717     1.0  0.10675  0.65132  0.70671  1.0000
  C   C2116     1.0  0.03157  0.71395  0.85080  1.0000
  C   C2117     1.0  0.01623  0.72830  0.84301  1.0000
  C   C2118     1.0  0.02005  0.73760  0.82280  1.0000
  C   C2119     1.0  0.03906  0.73245  0.81040  1.0000
  C   C2120     1.0  0.05436  0.71837  0.81841  1.0000
  C   C2121     1.0  0.05058  0.70900  0.83847  1.0000
  C   C2122     1.0  0.49836  0.69184  0.87200  1.0000
  C   C2123     1.0  0.11203  0.73251  0.90767  1.0000
  H   H1718     1.0  0.06916  0.71463  0.80920  1.0000
  H   H1719     1.0  0.06247  0.69789  0.84444  1.0000
  C   C2124     1.0  0.05577  0.66001  0.78665  1.0000
  C   C2125     1.0  0.45898  0.60216  0.49698  1.0000
  C   C2126     1.0  0.09401  0.65576  0.65861  1.0000
  C   C2127     1.0  0.31590  0.58644  0.48779  1.0000
  C   C2128     1.0  0.02218  0.75074  0.95866  1.0000
  H   H1720     1.0  0.36503  0.59962  0.52357  1.0000
  H   H1721     1.0  0.43932  0.61410  0.52233  1.0000
  H   H1722     1.0  0.02732  0.76300  0.94747  1.0000
  H   H1723     1.0  0.12497  0.73230  0.95089  1.0000
  C   C2129     1.0  0.08790  0.73861  0.87151  1.0000
  C   C2130     1.0  0.07372  0.69269  0.66931  1.0000
  C   C2131     1.0  0.49454  0.63364  0.79008  1.0000
  H   H1724     1.0  0.14076  0.72883  0.91609  1.0000
  C   C2132     1.0  0.42073  0.67595  0.48690  1.0000
  C   C2133     1.0  0.05343  0.75742  0.89723  1.0000
  C   C2134     1.0  0.09614  0.72275  0.48738  1.0000
  H   H1725     1.0  0.49049  0.75784  0.53336  1.0000
  H   H1726     1.0  0.48538  0.69846  0.86513  1.0000
  H   H1727     1.0  0.07295  0.71670  0.63150  1.0000
  H   H1728     1.0  0.04563  0.62850  0.49686  1.0000
  C   C2135     1.0  0.11552  0.63675  0.48445  1.0000
  H   H1729     1.0  0.14634  0.70124  0.54249  1.0000
  C   C2136     1.0  0.04431  0.60647  0.59930  1.0000
  H   H1730     1.0  0.12870  0.62582  0.48806  1.0000
  H   H1731     1.0  0.00079  0.71130  0.74705  1.0000
  H   H1732     1.0  0.24208  0.66970  0.95401  1.0000
  H   H1733     1.0  0.12855  0.78305  0.93848  1.0000
  S   S310      1.0  0.47464  0.70019  0.48397  1.0000
  H   H1734     1.0  0.01614  0.68945  0.53597  1.0000
  C   C2137     1.0  0.06626  0.66421  0.58660  1.0000
  C   C2138     1.0  0.04427  0.72077  0.71403  1.0000
  C   C2139     1.0  0.49349  0.73242  0.47821  1.0000
  H   H1735     1.0  0.48355  0.68245  0.80420  1.0000
  C   C2140     1.0  0.25036  0.74066  0.93032  1.0000
  H   H1736     1.0  0.48695  0.76500  0.57529  1.0000
  C   C2141     1.0  0.09556  0.60911  0.62079  1.0000
  H   H1737     1.0  0.18030  0.60233  0.55597  1.0000
  H   H1738     1.0  0.05603  0.73207  0.60328  1.0000
  C   C2142     1.0  0.10844  0.61589  0.55252  1.0000
  C   C2143     1.0  0.07838  0.65299  0.95915  1.0000
  C   C2144     1.0  0.37263  0.62882  0.51612  1.0000
  H   H1739     1.0  0.21726  0.71244  0.81524  1.0000
  H   H1740     1.0  0.09536  0.67475  0.61151  1.0000
  H   H1741     1.0  0.05796  0.72579  0.71359  1.0000
  H   H1742     1.0  0.43696  0.67285  0.52909  1.0000
  C   C2145     1.0  0.16479  0.68201  0.95132  1.0000
  C   C2146     1.0  0.44587  0.60095  0.51582  1.0000
  C   C2147     1.0  0.02137  0.65365  0.79695  1.0000
  C   C2148     1.0  0.06060  0.65956  0.55047  1.0000
  H   H1743     1.0  0.10306  0.70152  0.65667  1.0000
  C   C2149     1.0  0.14263  0.72782  0.49636  1.0000
  H   H1744     1.0  0.23877  0.69142  0.79124  1.0000
  C   C2150     1.0  0.10471  0.67114  0.65529  1.0000
  C   C2151     1.0  0.38216  0.64282  0.50140  1.0000
  H   H1745     1.0  0.13042  0.65710  0.61401  1.0000
  C   C2152     1.0  0.27169  0.76561  0.92005  1.0000
  C   C2153     1.0  0.44845  0.65169  0.50946  1.0000
  H   H1746     1.0  0.14091  0.61320  0.54743  1.0000
  H   H1747     1.0  0.10582  0.64492  0.51329  1.0000
  C   C2154     1.0  0.05861  0.74230  0.55683  1.0000
  C   C2155     1.0  0.43569  0.66872  0.51577  1.0000
  H   H1748     1.0  0.01112  0.62130  0.51228  1.0000
  C   C2156     1.0  0.49028  0.71370  0.48951  1.0000
  C   C2157     1.0  0.26207  0.73111  0.91477  1.0000
  C   C2158     1.0  0.10103  0.75234  0.86334  1.0000
  C   C2159     1.0  0.04165  0.64858  0.78713  1.0000
  C   C2160     1.0  0.05449  0.62418  0.52471  1.0000
  C   C2161     1.0  0.13858  0.78370  0.56059  1.0000
  C   C2162     1.0  0.22910  0.60452  0.87016  1.0000
  H   H1749     1.0  0.31792  0.58745  0.72125  1.0000
  H   H1750     1.0  0.17917  0.72698  0.96571  1.0000
  C   C2163     1.0  0.12793  0.67168  0.60439  1.0000
  C   C2164     1.0  0.14919  0.74518  0.97201  1.0000
  C   C2165     1.0  0.16461  0.65668  0.48090  1.0000
  C   C2166     1.0  0.17712  0.62764  0.97246  1.0000
  C   C2167     1.0  0.14610  0.77907  0.57797  1.0000
  C   C2168     1.0  0.19521  0.58895  0.51041  1.0000
  C   C2169     1.0  0.48778  0.76275  0.60577  1.0000
  C   C2170     1.0  0.09375  0.73016  0.83896  1.0000
  H   H1751     1.0  0.18033  0.68295  0.94358  1.0000
  C   C2171     1.0  0.11792  0.58628  0.66980  1.0000
  C   C2172     1.0  0.15164  0.60206  0.95040  1.0000
  C   C2173     1.0  0.04962  0.67643  0.79609  1.0000
  C   C2174     1.0  0.02856  0.74130  0.65624  1.0000
  Fe  Fe155     1.0  0.01550  0.60190  0.68482  1.0000
  C   C2175     1.0  0.14888  0.71222  0.51131  1.0000
  C   C2176     1.0  0.04217  0.71581  0.48413  1.0000
  H   H1752     1.0  0.49509  0.62164  0.76463  1.0000
  H   H1753     1.0  0.16457  0.59363  0.94157  1.0000
  H   H1754     1.0  0.00100  0.61182  0.54906  1.0000
  C   C2177     1.0  0.13966  0.77091  0.94445  1.0000
  H   H1755     1.0  0.10170  0.64143  0.65465  1.0000
  C   C2178     1.0  0.09427  0.73748  0.94672  1.0000
  C   C2179     1.0  0.14501  0.76054  0.59072  1.0000
  P   P70       1.0  0.06019  0.71715  0.67418  1.0000
  H   H1756     1.0  0.45948  0.64274  0.51811  1.0000
  C   C2180     1.0  0.09697  0.59618  0.53542  1.0000
  H   H1757     1.0  0.15097  0.62852  0.92766  1.0000
  H   H1758     1.0  0.16537  0.69671  0.97447  1.0000
  C   C2181     1.0  0.05790  0.72594  0.63414  1.0000
  H   H1759     1.0  0.21795  0.60279  0.88400  1.0000
  C   C2182     1.0  0.24730  0.65369  0.95808  1.0000
  C   C2183     1.0  0.10487  0.70031  0.59024  1.0000
  H   H1760     1.0  0.16931  0.76472  0.78895  1.0000
  C   C2184     1.0  0.28317  0.75617  0.90438  1.0000
  C   C2185     1.0  0.14448  0.68055  0.59357  1.0000
  P   P71       1.0  0.11762  0.73329  0.56233  1.0000
  H   H1761     1.0  0.15051  0.75713  0.60440  1.0000
  C   C2186     1.0  0.48386  0.72089  0.82516  1.0000
  C   C2187     1.0  0.03039  0.72704  0.49832  1.0000
  P   P72       1.0  0.46542  0.62574  0.48279  1.0000
  H   H1762     1.0  0.28581  0.61650  0.94318  1.0000
  H   H1763     1.0  0.45786  0.76551  0.52309  1.0000
  C   C2188     1.0  0.11134  0.61770  0.60764  1.0000
  C   C2189     1.0  0.00795  0.74119  0.95543  1.0000
  C   C2190     1.0  0.10753  0.73415  0.68627  1.0000
  H   H1764     1.0  0.03841  0.74522  0.88085  1.0000
  P   P73       1.0  0.19569  0.59881  0.48419  1.0000
  H   H1765     1.0  0.05769  0.69166  0.54175  1.0000
  C   C2191     1.0  0.49013  0.62783  0.48527  1.0000
  C   C2192     1.0  0.04095  0.62498  0.51283  1.0000
  C   C2193     1.0  0.02934  0.68174  0.80561  1.0000
  C   C2194     1.0  0.25516  0.75795  0.93320  1.0000
  H   H1766     1.0  0.47348  0.73283  0.83194  1.0000
  H   H1767     1.0  0.04769  0.64817  0.97188  1.0000
  C   C2195     1.0  0.02938  0.61458  0.55415  1.0000
  C   C2196     1.0  0.09069  0.73636  0.91377  1.0000
  C   C2197     1.0  0.42185  0.68087  0.50446  1.0000
  C   C2198     1.0  0.18685  0.59304  0.54487  1.0000
  H   H1768     1.0  0.48284  0.72972  0.95176  1.0000
  C   C2199     1.0  0.05768  0.65893  0.96722  1.0000
  H   H1769     1.0  0.15923  0.69884  0.50732  1.0000
  C   C2200     1.0  0.12431  0.73143  0.92094  1.0000
  C   C2201     1.0  0.04839  0.73469  0.61806  1.0000
  H   H1770     1.0  0.08940  0.70761  0.58933  1.0000
  H   H1771     1.0  0.11984  0.72710  0.69403  1.0000
  H   H1772     1.0  0.18134  0.71781  0.73968  1.0000
  H   H1773     1.0  0.10222  0.69078  0.49631  1.0000
  C   C2202     1.0  0.12480  0.67927  0.97140  1.0000
  C   C2203     1.0  0.09516  0.58902  0.62174  1.0000
  C   C2204     1.0  0.05248  0.77372  0.90584  1.0000
  H   H1774     1.0  0.20265  0.75829  0.76239  1.0000
  C   C2205     1.0  0.11717  0.58919  0.52660  1.0000
  H   H1775     1.0  0.08499  0.59076  0.53235  1.0000
  H   H1776     1.0  0.06210  0.69578  0.57409  1.0000
  H   H1777     1.0  0.12063  0.76597  0.97357  1.0000
  H   H1778     1.0  0.13917  0.61310  0.58588  1.0000
  H   H1779     1.0  0.06554  0.74127  0.93870  1.0000
  C   C2206     1.0  0.19487  0.75599  0.75193  1.0000
  C   C2207     1.0  0.02359  0.69677  0.52159  1.0000
  C   C2208     1.0  0.27832  0.73899  0.90168  1.0000
  C   C2209     1.0  0.08392  0.72791  0.85903  1.0000
  H   H1780     1.0  0.09098  0.72167  0.82939  1.0000
  C   C2210     1.0  0.06433  0.71394  0.90677  1.0000
  C   C2211     1.0  0.04516  0.71442  0.91966  1.0000
  C   C2212     1.0  0.03678  0.69718  0.92654  1.0000
  C   C2213     1.0  0.04756  0.67926  0.92072  1.0000
  C   C2214     1.0  0.06694  0.67849  0.90838  1.0000
  C   C2215     1.0  0.07541  0.69573  0.90159  1.0000
  H   H1781     1.0  0.07297  0.71811  0.86458  1.0000
  C   C2216     1.0  0.19360  0.73642  0.75187  1.0000
  H   H1782     1.0  0.03651  0.72812  0.92428  1.0000
  H   H1783     1.0  0.02187  0.69780  0.93634  1.0000
  H   H1784     1.0  0.04080  0.66605  0.92569  1.0000
  H   H1785     1.0  0.07516  0.66465  0.90371  1.0000
  H   H1786     1.0  0.09028  0.69500  0.89185  1.0000
  H   H1787     1.0  0.11369  0.60063  0.66039  1.0000
  H   H1788     1.0  0.02163  0.75350  0.60855  1.0000
  H   H1789     1.0  0.16489  0.74633  0.71696  1.0000
  C   C2217     1.0  0.01494  0.67068  0.80570  1.0000
  C   C2218     1.0  0.03887  0.59283  0.61679  1.0000
  H   H1790     1.0  0.06460  0.77430  0.91263  1.0000
  C   C2219     1.0  0.09243  0.60958  0.54849  1.0000
  H   H1791     1.0  0.48054  0.77824  0.60592  1.0000
  H   H1792     1.0  0.41234  0.69437  0.50904  1.0000
  C   C2220     1.0  0.15822  0.76452  0.93209  1.0000
  C   C2221     1.0  0.24620  0.59409  0.83897  1.0000
  H   H1793     1.0  0.14965  0.66436  0.48723  1.0000
  H   H1794     1.0  0.02814  0.74317  0.49468  1.0000
  C   C2222     1.0  0.02109  0.71760  0.51699  1.0000
  C   C2223     1.0  0.14331  0.59336  0.96982  1.0000
  H   H1795     1.0  0.01078  0.64433  0.79756  1.0000
  C   C2224     1.0  0.27190  0.62375  0.95187  1.0000
  H   H1796     1.0  0.10991  0.75932  0.52481  1.0000
  H   H1797     1.0  0.01173  0.72653  0.52772  1.0000
  H   H1798     1.0  0.08416  0.63758  0.95754  1.0000
  H   H1799     1.0  0.08742  0.73931  0.96189  1.0000
  H   H1800     1.0  0.08470  0.76284  0.61366  1.0000
  C   C2225     1.0  0.12861  0.60896  0.54357  1.0000
  C   C2226     1.0  0.02958  0.71962  0.73178  1.0000
  C   C2227     1.0  0.10253  0.64735  0.49866  1.0000
  H   H1801     1.0  0.15982  0.67286  0.59487  1.0000
  H   H1802     1.0  0.09282  0.69792  0.94976  1.0000
  C   C2228     1.0  0.25641  0.78071  0.96245  1.0000
  Fe  Fe156     1.0  0.23345  0.76405  0.86569  1.0000
  S   S311      1.0  0.26042  0.78002  0.85831  1.0000
  C   C2229     1.0  0.08866  0.76371  0.66847  1.0000
  H   H1803     1.0  0.11571  0.76311  0.67853  1.0000
  C   C2230     1.0  0.00934  0.77349  0.69479  1.0000
  H   H1804     1.0  0.05004  0.73568  0.55017  1.0000
  C   C2231     1.0  0.17031  0.63596  0.48672  1.0000
  C   C2232     1.0  0.23962  0.68696  0.80680  1.0000
  H   H1805     1.0  0.03222  0.72361  0.74466  1.0000
  C   C2233     1.0  0.14127  0.69928  0.58104  1.0000
  C   C2234     1.0  0.12734  0.63310  0.95393  1.0000
  H   H1806     1.0  0.25799  0.71807  0.91229  1.0000
  C   C2235     1.0  0.23795  0.58897  0.47854  1.0000
  C   C2236     1.0  0.08522  0.66108  0.49399  1.0000
  C   C2237     1.0  0.10815  0.68163  0.60287  1.0000
  H   H1807     1.0  0.26482  0.59611  0.96952  1.0000
  C   C2238     1.0  0.02115  0.77343  0.88767  1.0000
  C   C2239     1.0  0.24071  0.61940  0.86563  1.0000
  C   C2240     1.0  0.25548  0.62143  0.84790  1.0000
  P   P74       1.0  0.27032  0.64071  0.84227  1.0000
  C   C2241     1.0  0.25396  0.66369  0.83353  1.0000
  C   C2242     1.0  0.27892  0.64152  0.86397  1.0000
  C   C2243     1.0  0.28300  0.65932  0.86636  1.0000
  C   C2244     1.0  0.29173  0.65927  0.88212  1.0000
  C   C2245     1.0  0.29673  0.64142  0.89540  1.0000
  C   C2246     1.0  0.29267  0.62367  0.89313  1.0000
  C   C2247     1.0  0.28390  0.62373  0.87741  1.0000
  C   C2248     1.0  0.25274  0.66936  0.81339  1.0000
  C   C2249     1.0  0.06728  0.64512  0.58336  1.0000
  C   C2250     1.0  0.22735  0.69874  0.82034  1.0000
  C   C2251     1.0  0.22791  0.69274  0.84053  1.0000
  C   C2252     1.0  0.24108  0.67524  0.84712  1.0000
  C   C2253     1.0  0.29385  0.63483  0.82469  1.0000
  C   C2254     1.0  0.32125  0.64548  0.79792  1.0000
  C   C2255     1.0  0.30244  0.65010  0.81075  1.0000
  C   C2256     1.0  0.06276  0.68099  0.57164  1.0000
  H   H1808     1.0  0.00409  0.75950  0.64236  1.0000
  H   H1809     1.0  0.27958  0.67321  0.85601  1.0000
  H   H1810     1.0  0.29453  0.67313  0.88404  1.0000
  H   H1811     1.0  0.30364  0.64135  0.90751  1.0000
  H   H1812     1.0  0.29638  0.60981  0.90351  1.0000
  H   H1813     1.0  0.28128  0.60985  0.87550  1.0000
  H   H1814     1.0  0.26176  0.66014  0.80280  1.0000
  C   C2257     1.0  0.11544  0.73363  0.94051  1.0000
  H   H1815     1.0  0.07050  0.63229  0.59491  1.0000
  H   H1816     1.0  0.21809  0.70161  0.85112  1.0000
  H   H1817     1.0  0.24109  0.67069  0.86284  1.0000
  H   H1818     1.0  0.12127  0.76484  0.83705  1.0000
  H   H1819     1.0  0.29481  0.66560  0.80999  1.0000
  C   C2258     1.0  0.46037  0.75379  0.53587  1.0000
  C   C2259     1.0  0.44494  0.74334  0.54659  1.0000
  C   C2260     1.0  0.44820  0.72841  0.56319  1.0000
  C   C2261     1.0  0.46708  0.72357  0.56867  1.0000
  C   C2262     1.0  0.48305  0.73327  0.55732  1.0000
  C   C2263     1.0  0.47917  0.74907  0.54147  1.0000
  C   C2264     1.0  0.04894  0.61872  0.54549  1.0000
  C   C2265     1.0  0.04140  0.71509  0.69739  1.0000
  C   C2266     1.0  0.12927  0.75096  0.56831  1.0000
  H   H1820     1.0  0.33194  0.59513  0.81470  1.0000
  C   C2267     1.0  0.04448  0.69492  0.48849  1.0000
  H   H1821     1.0  0.23828  0.62921  0.87603  1.0000
  C   C2268     1.0  0.26572  0.64451  0.94753  1.0000
  H   H1822     1.0  0.29544  0.76260  0.89390  1.0000
  H   H1823     1.0  0.05827  0.65801  0.53651  1.0000
  C   C2269     1.0  0.09383  0.72293  0.68528  1.0000
  H   H1824     1.0  0.08638  0.72152  0.54929  1.0000
  C   C2270     1.0  0.32362  0.61046  0.81344  1.0000
  C   C2271     1.0  0.25761  0.60916  0.83424  1.0000
  C   C2272     1.0  0.13637  0.74665  0.58608  1.0000
  C   C2273     1.0  0.17483  0.76854  0.72648  1.0000
  C   C2274     1.0  0.12690  0.60631  0.59580  1.0000
  C   C2275     1.0  0.09456  0.68965  0.66019  1.0000
  C   C2276     1.0  0.08192  0.73871  0.93346  1.0000
  P   P75       1.0  0.07459  0.73654  0.89723  1.0000
  C   C2277     1.0  0.43357  0.65901  0.48047  1.0000
  H   H1825     1.0  0.17437  0.62961  0.95767  1.0000
  H   H1826     1.0  0.43614  0.72053  0.57174  1.0000
  H   H1827     1.0  0.46937  0.71203  0.58164  1.0000
  C   C2278     1.0  0.33180  0.62566  0.79920  1.0000
  S   S312      1.0  0.03059  0.76977  0.52038  1.0000
  C   C2279     1.0  0.02155  0.62082  0.52154  1.0000
  H   H1828     1.0  0.13509  0.73275  0.59657  1.0000
  C   C2280     1.0  0.13030  0.76972  0.55570  1.0000
  C   C2281     1.0  0.30482  0.61504  0.82625  1.0000
  H   H1829     1.0  0.41028  0.68559  0.47789  1.0000
  C   C2282     1.0  0.06009  0.67866  0.55350  1.0000
  H   H1830     1.0  0.46006  0.70899  0.82035  1.0000
  C   C2283     1.0  0.47634  0.70741  0.81869  1.0000
  C   C2284     1.0  0.18966  0.62586  0.47851  1.0000
  H   H1831     1.0  0.31171  0.58609  0.86862  1.0000
  H   H1832     1.0  0.02456  0.61012  0.57007  1.0000
  C   C2285     1.0  0.15642  0.68970  0.96871  1.0000
  C   C2286     1.0  0.13380  0.68556  0.88560  1.0000
  C   C2287     1.0  0.12960  0.67248  0.87583  1.0000
  C   C2288     1.0  0.12193  0.65551  0.88688  1.0000
  C   C2289     1.0  0.11864  0.65149  0.90768  1.0000
  C   C2290     1.0  0.12320  0.66435  0.91760  1.0000
  C   C2291     1.0  0.13037  0.68165  0.90641  1.0000
  P   P76       1.0  0.11843  0.65923  0.94450  1.0000
  C   C2292     1.0  0.10506  0.75448  0.67769  1.0000
  H   H1833     1.0  0.14867  0.58945  0.52464  1.0000
  C   C2293     1.0  0.48979  0.69215  0.80973  1.0000
  H   H1834     1.0  0.03648  0.66938  0.51089  1.0000
  H   H1835     1.0  0.04643  0.63586  0.77975  1.0000
  S   S313      1.0  0.16297  0.77641  0.90707  1.0000
  C   C2294     1.0  0.15315  0.67297  0.94394  1.0000
  C   C2295     1.0  0.09077  0.74332  0.56402  1.0000
  H   H1836     1.0  0.48370  0.62498  0.80006  1.0000
  H   H1837     1.0  0.20025  0.72402  0.76222  1.0000
  C   C2296     1.0  0.18533  0.77224  0.73933  1.0000
  C   C2297     1.0  0.08136  0.76048  0.57213  1.0000
  C   C2298     1.0  0.12777  0.73093  0.53656  1.0000
  C   C2299     1.0  0.04934  0.75937  0.56494  1.0000
  S   S314      1.0  0.12345  0.77418  0.71463  1.0000
  P   P77       1.0  0.06646  0.61786  0.56086  1.0000
  H   H1838     1.0  0.13958  0.69880  0.87698  1.0000
  H   H1839     1.0  0.13209  0.67564  0.85969  1.0000
  H   H1840     1.0  0.11845  0.64552  0.87926  1.0000
  H   H1841     1.0  0.11253  0.63837  0.91604  1.0000
  H   H1842     1.0  0.13337  0.69212  0.91369  1.0000
  Fe  Fe157     1.0  0.19017  0.76049  0.88804  1.0000
  C   C2300     1.0  0.09139  0.66686  0.95346  1.0000
  H   H1843     1.0  0.02649  0.59766  0.62857  1.0000
  H   H1844     1.0  0.20861  0.61446  0.96383  1.0000
  H   H1845     1.0  0.16002  0.66667  0.93073  1.0000
  H   H1846     1.0  0.27483  0.65346  0.93552  1.0000
  H   H1847     1.0  0.06494  0.64692  0.66965  1.0000
  H   H1848     1.0  0.49378  0.69367  0.55448  1.0000
  P   P78       1.0  0.23982  0.77062  0.95304  1.0000
  H   H1849     1.0  0.11933  0.73004  0.89281  1.0000
  H   H1850     1.0  0.12349  0.75671  0.48986  1.0000
  H   H1851     1.0  0.04858  0.77431  0.62845  1.0000
  H   H1852     1.0  0.02498  0.69448  0.81292  1.0000
  C   C2301     1.0  0.13299  0.59550  0.53075  1.0000
  S   S315      1.0  0.20279  0.77809  0.85843  1.0000
  H   H1853     1.0  0.21603  0.77401  0.92338  1.0000
  C   C2302     1.0  0.49350  0.75039  0.62291  1.0000
  H   H1854     1.0  0.06197  0.75984  0.66090  1.0000
  H   H1855     1.0  0.03575  0.62168  0.59769  1.0000
  C   C2303     1.0  0.18290  0.73292  0.73922  1.0000
  C   C2304     1.0  0.07956  0.77777  0.61685  1.0000
  H   H1856     1.0  0.07146  0.65617  0.77892  1.0000
  H   H1857     1.0  0.32779  0.65731  0.78714  1.0000
  C   C2305     1.0  0.49167  0.75522  0.58834  1.0000
  H   H1858     1.0  0.49830  0.64675  0.81297  1.0000
  C   C2306     1.0  0.10709  0.74351  0.83108  1.0000
  C   C2307     1.0  0.07772  0.73188  0.67546  1.0000
  C   C2308     1.0  0.44749  0.64670  0.49172  1.0000
  C   C2309     1.0  0.07926  0.73435  0.55629  1.0000
  C   C2310     1.0  0.01191  0.71269  0.73315  1.0000
  H   H1859     1.0  0.00838  0.74893  0.81682  1.0000
  H   H1860     1.0  0.10364  0.76142  0.87245  1.0000
  C   C2311     1.0  0.14376  0.62188  0.94248  1.0000
  C   C2312     1.0  0.02345  0.70835  0.69887  1.0000
  C   C2313     1.0  0.17364  0.74897  0.72643  1.0000
  C   C2314     1.0  0.00888  0.70700  0.71671  1.0000
  C   C2315     1.0  0.06317  0.67706  0.67265  1.0000
  C   C2316     1.0  0.06043  0.60044  0.58398  1.0000
  C   C2317     1.0  0.07324  0.65884  0.66707  1.0000
  C   C2318     1.0  0.11082  0.75455  0.84325  1.0000
  C   C2319     1.0  0.12145  0.70924  0.57904  1.0000
  H   H1861     1.0  0.12426  0.77391  0.54232  1.0000
  H   H1862     1.0  0.12086  0.66875  0.64886  1.0000
  H   H1863     1.0  0.06818  0.66582  0.60080  1.0000
  H   H1864     1.0  0.28681  0.73214  0.88909  1.0000
  H   H1865     1.0  0.06054  0.68512  0.79605  1.0000
  C   C2320     1.0  0.11974  0.58529  0.68922  1.0000
  H   H1866     1.0  0.15950  0.62773  0.49735  1.0000
  H   H1867     1.0  0.38152  0.65750  0.50417  1.0000
  C   C2321     1.0  0.13514  0.76120  0.96434  1.0000
  H   H1868     1.0  0.05078  0.78423  0.70419  1.0000
  H   H1869     1.0  0.03355  0.76609  0.56460  1.0000
  C   C2322     1.0  0.01910  0.75008  0.64011  1.0000
  H   H1870     1.0  0.11696  0.59892  0.69492  1.0000
  H   H1871     1.0  0.01267  0.68369  0.48183  1.0000
  C   C2323     1.0  0.10604  0.70334  0.48487  1.0000
  H   H1872     1.0  0.00153  0.73230  0.85252  1.0000
  C   C2324     1.0  0.08316  0.68693  0.95474  1.0000
  H   H1873     1.0  0.00384  0.68590  0.84951  1.0000
  H   H1874     1.0  0.19661  0.77204  0.97382  1.0000
  C   C2325     1.0  0.12127  0.74632  0.52136  1.0000
  H   H1875     1.0  0.08649  0.77963  0.66232  1.0000
  C   C2326     1.0  0.00095  0.72550  0.96991  1.0000
  C   C2327     1.0  0.23541  0.64218  0.97348  1.0000
  H   H1876     1.0  0.00228  0.74610  0.94183  1.0000
  C   C2328     1.0  0.12886  0.74486  0.50141  1.0000
  H   H1877     1.0  0.34686  0.59117  0.86463  1.0000
  H   H1878     1.0  0.30020  0.58753  0.48715  1.0000
  H   H1879     1.0  0.00276  0.66971  0.88460  1.0000
  C   C2329     1.0  0.11929  0.62434  0.97356  1.0000
  H   H1880     1.0  0.49087  0.75629  0.63631  1.0000
  H   H1881     1.0  0.08991  0.76828  0.57745  1.0000
  H   H1882     1.0  0.16674  0.78080  0.71710  1.0000
  H   H1883     1.0  0.49676  0.69121  0.51500  1.0000
  C   C2330     1.0  0.49506  0.64685  0.48144  1.0000
  C   C2331     1.0  0.06071  0.76836  0.57266  1.0000
  H   H1884     1.0  0.05371  0.78198  0.57830  1.0000
  Fe  Fe158     1.0  0.02317  0.78456  0.49058  1.0000
  H   H1885     1.0  0.16004  0.77104  0.47749  1.0000
  H   H1886     1.0  0.14801  0.72650  0.48086  1.0000
  C   C2332     1.0  0.19658  0.61905  0.97601  1.0000
  S   S316      1.0  0.07442  0.78491  0.50348  1.0000
  C   C2333     1.0  0.22672  0.75309  0.97224  1.0000
  C   C2334     1.0  0.17656  0.59071  0.47641  1.0000
  C   C2335     1.0  0.05912  0.78430  0.62520  1.0000
  C   C2336     1.0  0.03914  0.78470  0.69629  1.0000
  H   H1887     1.0  0.48444  0.66013  0.47647  1.0000
  H   H1888     1.0  0.25373  0.72994  0.97374  1.0000
  H   H1889     1.0  0.02840  0.91788  0.26258  1.0000
  Fe  Fe159     1.0  0.42087  0.92548  0.39132  1.0000
  S   S317      1.0  0.39152  0.92831  0.38197  1.0000
  S   S318      1.0  0.43541  0.95211  0.38715  1.0000
  Fe  Fe160     1.0  0.42730  0.87985  0.40326  1.0000
  S   S319      1.0  0.39865  0.87921  0.39469  1.0000
  S   S320      1.0  0.44716  0.85168  0.41665  1.0000
  Fe  Fe161     1.0  0.40804  0.90202  0.36784  1.0000
  S   S321      1.0  0.40611  0.89736  0.33822  1.0000
  Fe  Fe162     1.0  0.38487  0.90528  0.40972  1.0000
  S   S322      1.0  0.35397  0.90535  0.42976  1.0000
  S   S323      1.0  0.43810  0.90065  0.37502  1.0000
  S   S324      1.0  0.41285  0.90456  0.42047  1.0000
  H   H1890     1.0  0.32828  0.92603  0.00813  1.0000
  C   C2337     1.0  0.16923  0.83308  0.17723  1.0000
  C   C2338     1.0  0.30492  0.84466  0.43621  1.0000
  C   C2339     1.0  0.43781  0.79165  0.40942  1.0000
  C   C2340     1.0  0.03517  0.78949  0.30584  1.0000
  C   C2341     1.0  0.12409  0.83499  0.03671  1.0000
  C   C2342     1.0  0.32442  0.83308  0.43164  1.0000
  H   H1891     1.0  0.38530  0.93406  0.12381  1.0000
  Fe  Fe163     1.0  0.06316  0.79918  0.47521  1.0000
  H   H1892     1.0  0.01830  0.92401  0.32379  1.0000
  S   S325      1.0  0.41248  0.96909  0.02596  1.0000
  H   H1893     1.0  0.04089  0.89138  0.33097  1.0000
  S   S326      1.0  0.19435  0.96365  0.18351  1.0000
  C   C2343     1.0  0.05866  0.98466  0.13807  1.0000
  S   S327      1.0  0.24298  0.94812  0.16782  1.0000
  C   C2344     1.0  0.02697  0.79098  0.41307  1.0000
  Fe  Fe164     1.0  0.21357  0.94260  0.16376  1.0000
  S   S328      1.0  0.20228  0.91319  0.17148  1.0000
  H   H1894     1.0  0.15258  0.84143  0.07459  1.0000
  H   H1895     1.0  0.00367  0.86836  0.04623  1.0000
  S   S329      1.0  0.21319  0.96540  0.13535  1.0000
  S   S330      1.0  0.32598  0.94047  0.30642  1.0000
  Fe  Fe165     1.0  0.08645  0.88069  0.13905  1.0000
  S   S331      1.0  0.11024  0.87902  0.15608  1.0000
  S   S332      1.0  0.06317  0.90944  0.13733  1.0000
  Fe  Fe166     1.0  0.10817  0.84275  0.12235  1.0000
  S   S333      1.0  0.13418  0.83921  0.13736  1.0000
  S   S334      1.0  0.11207  0.81607  0.10742  1.0000
  Fe  Fe167     1.0  0.11007  0.84614  0.16397  1.0000
  Fe  Fe168     1.0  0.13224  0.87234  0.12822  1.0000
  S   S335      1.0  0.15835  0.88886  0.11478  1.0000
  S   S336      1.0  0.08398  0.84827  0.14974  1.0000
  S   S337      1.0  0.10858  0.87554  0.11048  1.0000
  C   C2345     1.0  0.17071  0.82232  0.24524  1.0000
  Fe  Fe169     1.0  0.31855  0.97409  0.29787  1.0000
  H   H1896     1.0  0.06014  0.79501  0.24973  1.0000
  C   C2346     1.0  0.09290  0.98407  0.19222  1.0000
  C   C2347     1.0  0.36078  0.96172  0.23282  1.0000
  H   H1897     1.0  0.41823  0.95214  0.44588  1.0000
  H   H1898     1.0  0.01043  0.86520  0.29791  1.0000
  H   H1899     1.0  0.05718  0.87183  0.30436  1.0000
  C   C2348     1.0  0.24654  0.95721  0.37253  1.0000
  H   H1900     1.0  0.08706  0.80131  0.14884  1.0000
  S   S338      1.0  0.08418  0.81445  0.44934  1.0000
  H   H1901     1.0  0.44101  0.86770  0.31629  1.0000
  H   H1902     1.0  0.49714  0.85387  0.30391  1.0000
  C   C2349     1.0  0.18676  0.82068  0.00901  1.0000
  Fe  Fe170     1.0  0.36872  0.96154  0.98098  1.0000
  S   S339      1.0  0.11568  0.82511  0.19244  1.0000
  H   H1903     1.0  0.33859  0.94380  0.36309  1.0000
  H   H1904     1.0  0.17575  0.83463  0.00833  1.0000
  C   C2350     1.0  0.05473  0.82718  0.42660  1.0000
  C   C2351     1.0  0.07550  0.82304  0.42690  1.0000
  H   H1905     1.0  0.12829  0.80308  0.43123  1.0000
  H   H1906     1.0  0.99946  0.89439  0.36735  1.0000
  C   C2352     1.0  0.05354  0.79308  0.26543  1.0000
  H   H1907     1.0  0.04360  0.82502  0.44040  1.0000
  Fe  Fe171     1.0  0.22354  0.97124  0.18522  1.0000
  H   H1908     1.0  0.29714  0.84440  0.45161  1.0000
  C   C2353     1.0  0.03753  0.91122  0.14972  1.0000
  C   C2354     1.0  0.02871  0.89433  0.15813  1.0000
  C   C2355     1.0  0.00770  0.89671  0.16642  1.0000
  H   H1909     1.0  0.28059  0.86596  0.42450  1.0000
  C   C2356     1.0  0.31414  0.96676  0.40211  1.0000
  C   C2357     1.0  0.02551  0.93032  0.15034  1.0000
  H   H1910     1.0  0.03798  0.87954  0.15798  1.0000
  H   H1911     1.0  0.10501  0.78635  0.20153  1.0000
  C   C2358     1.0  0.01887  0.78959  0.08908  1.0000
  H   H1912     1.0  0.03239  0.94337  0.14411  1.0000
  C   C2359     1.0  0.39681  0.84634  0.35590  1.0000
  C   C2360     1.0  0.18895  0.90793  0.15569  1.0000
  C   C2361     1.0  0.19232  0.91596  0.13528  1.0000
  C   C2362     1.0  0.18277  0.91012  0.12288  1.0000
  C   C2363     1.0  0.16940  0.89661  0.13084  1.0000
  C   C2364     1.0  0.16538  0.88923  0.15135  1.0000
  C   C2365     1.0  0.17530  0.89469  0.16364  1.0000
  H   H1913     1.0  0.20286  0.92610  0.12894  1.0000
  H   H1914     1.0  0.18594  0.91592  0.10702  1.0000
  H   H1915     1.0  0.15515  0.87880  0.15766  1.0000
  H   H1916     1.0  0.17246  0.88847  0.17934  1.0000
  C   C2366     1.0  0.08363  0.84556  0.21645  1.0000
  H   H1917     1.0  0.13247  0.79790  0.36285  1.0000
  C   C2367     1.0  0.13969  0.79071  0.43641  1.0000
  C   C2368     1.0  0.37627  0.82925  0.34532  1.0000
  H   H1918     1.0  0.28964  0.88881  0.45484  1.0000
  H   H1919     1.0  0.37180  0.82514  0.33350  1.0000
  H   H1920     1.0  0.21247  0.83542  0.99718  1.0000
  C   C2369     1.0  0.37280  0.82817  0.38058  1.0000
  H   H1921     1.0  0.33087  0.79362  0.42607  1.0000
  H   H1922     1.0  0.21306  0.85133  0.16310  1.0000
  C   C2370     1.0  0.14148  0.80534  0.00444  1.0000
  C   C2371     1.0  0.40043  0.88700  0.99582  1.0000
  C   C2372     1.0  0.00457  0.93270  0.15853  1.0000
  C   C2373     1.0  0.43838  0.86344  0.30360  1.0000
  Fe  Fe172     1.0  0.07192  0.82708  0.34529  1.0000
  H   H1923     1.0  0.01280  0.79376  0.97851  1.0000
  C   C2374     1.0  0.07855  0.83832  0.25261  1.0000
  H   H1924     1.0  0.09525  0.80686  0.99492  1.0000
  S   S340      1.0  0.09506  0.79327  0.30606  1.0000
  C   C2375     1.0  0.19278  0.79193  0.25820  1.0000
  S   S341      1.0  0.31539  0.95152  0.04125  1.0000
  C   C2376     1.0  0.13641  0.80939  0.36813  1.0000
  C   C2377     1.0  0.38074  0.84929  0.43872  1.0000
  C   C2378     1.0  0.00244  0.80506  0.09343  1.0000
  H   H1925     1.0  0.16897  0.80777  0.98156  1.0000
  H   H1926     1.0  0.18066  0.88509  0.20926  1.0000
  S   S342      1.0  0.14515  0.79456  0.31893  1.0000
  C   C2379     1.0  0.39312  0.94812  0.47095  1.0000
  H   H1927     1.0  0.14111  0.98063  0.12990  1.0000
  C   C2380     1.0  0.00383  0.87067  0.35146  1.0000
  C   C2381     1.0  0.38324  0.90953  0.33060  1.0000
  C   C2382     1.0  0.37377  0.92890  0.33366  1.0000
  C   C2383     1.0  0.35628  0.93877  0.32602  1.0000
  C   C2384     1.0  0.34794  0.92900  0.31595  1.0000
  C   C2385     1.0  0.35729  0.90957  0.31318  1.0000
  C   C2386     1.0  0.37503  0.89999  0.32022  1.0000
  H   H1928     1.0  0.38038  0.93654  0.34119  1.0000
  H   H1929     1.0  0.34933  0.95397  0.32777  1.0000
  H   H1930     1.0  0.35089  0.90200  0.30537  1.0000
  H   H1931     1.0  0.38222  0.88505  0.31783  1.0000
  C   C2387     1.0  0.34514  0.92875  0.43663  1.0000
  C   C2388     1.0  0.32476  0.93445  0.44580  1.0000
  C   C2389     1.0  0.31792  0.95301  0.45176  1.0000
  C   C2390     1.0  0.33173  0.96538  0.44954  1.0000
  C   C2391     1.0  0.35219  0.95938  0.44080  1.0000
  C   C2392     1.0  0.35877  0.94141  0.43380  1.0000
  H   H1932     1.0  0.31427  0.92457  0.44831  1.0000
  C   C2393     1.0  0.42452  0.87660  0.29289  1.0000
  H   H1933     1.0  0.37460  0.93693  0.42705  1.0000
  C   C2394     1.0  0.41843  0.97456  0.39123  1.0000
  H   H1934     1.0  0.39394  0.98034  0.18521  1.0000
  C   C2395     1.0  0.13499  0.82870  0.35662  1.0000
  S   S343      1.0  0.09087  0.79677  0.35290  1.0000
  H   H1935     1.0  0.30304  0.96289  0.18227  1.0000
  H   H1936     1.0  0.23898  0.97345  0.25167  1.0000
  H   H1937     1.0  0.39208  0.96096  0.40346  1.0000
  H   H1938     1.0  0.49756  0.81738  0.36105  1.0000
  H   H1939     1.0  0.00168  0.79045  0.43802  1.0000
  H   H1940     1.0  0.42743  0.84956  0.25811  1.0000
  H   H1941     1.0  0.09459  0.83455  0.37702  1.0000
  C   C2396     1.0  0.43033  0.80951  0.39732  1.0000
  C   C2397     1.0  0.43293  0.82794  0.39964  1.0000
  C   C2398     1.0  0.44345  0.82864  0.41377  1.0000
  C   C2399     1.0  0.45131  0.81072  0.42564  1.0000
  H   H1942     1.0  0.15165  0.85092  0.38540  1.0000
  H   H1943     1.0  0.42240  0.80908  0.38617  1.0000
  H   H1944     1.0  0.42698  0.84158  0.39032  1.0000
  H   H1945     1.0  0.37082  0.95524  0.24316  1.0000
  C   C2400     1.0  0.08977  0.82599  0.40896  1.0000
  H   H1946     1.0  0.42126  0.92473  0.12702  1.0000
  C   C2401     1.0  0.05692  0.91273  0.19704  1.0000
  C   C2402     1.0  0.48898  0.81988  0.29263  1.0000
  H   H1947     1.0  0.36285  0.96526  0.36017  1.0000
  C   C2403     1.0  0.49822  0.79957  0.29387  1.0000
  P   P79       1.0  0.38639  0.87255  0.98828  1.0000
  C   C2404     1.0  0.38781  0.84786  0.00378  1.0000
  H   H1948     1.0  0.44567  0.97204  0.04188  1.0000
  H   H1949     1.0  0.41302  0.79960  0.00397  1.0000
  H   H1950     1.0  0.31870  0.98445  0.05748  1.0000
  H   H1951     1.0  0.40896  0.97390  0.34024  1.0000
  C   C2405     1.0  0.42750  0.95429  0.11421  1.0000
  C   C2406     1.0  0.08551  0.82394  0.08149  1.0000
  C   C2407     1.0  0.40161  0.83135  0.99716  1.0000
  C   C2408     1.0  0.40242  0.81229  0.00924  1.0000
  C   C2409     1.0  0.37484  0.84497  0.02266  1.0000
  C   C2410     1.0  0.35982  0.88477  0.99228  1.0000
  C   C2411     1.0  0.35361  0.90330  0.99844  1.0000
  C   C2412     1.0  0.33293  0.91174  0.00334  1.0000
  C   C2413     1.0  0.31827  0.90206  0.00161  1.0000
  C   C2414     1.0  0.32426  0.88372  0.99535  1.0000
  C   C2415     1.0  0.34491  0.87492  0.99107  1.0000
  P   P80       1.0  0.16781  0.84726  0.23025  1.0000
  C   C2416     1.0  0.02178  0.92365  0.29249  1.0000
  C   C2417     1.0  0.05925  0.90955  0.21664  1.0000
  H   H1952     1.0  0.00319  0.98077  0.16583  1.0000
  C   C2418     1.0  0.18028  0.80231  0.01644  1.0000
  C   C2419     1.0  0.39739  0.97993  0.44915  1.0000
  C   C2420     1.0  0.33027  0.96248  0.22181  1.0000
  C   C2421     1.0  0.12080  0.80437  0.00797  1.0000
  C   C2422     1.0  0.44862  0.84522  0.29781  1.0000
  H   H1953     1.0  0.00532  0.91185  0.09576  1.0000
  H   H1954     1.0  0.18337  0.79129  0.37329  1.0000
  H   H1955     1.0  0.36457  0.91141  0.99949  1.0000
  C   C2423     1.0  0.44826  0.79225  0.42367  1.0000
  H   H1956     1.0  0.30229  0.90892  0.00493  1.0000
  H   H1957     1.0  0.00440  0.84895  0.33464  1.0000
  C   C2424     1.0  0.01242  0.95337  0.10740  1.0000
  C   C2425     1.0  0.36734  0.82259  0.36522  1.0000
  C   C2426     1.0  0.14741  0.83931  0.38057  1.0000
  H   H1958     1.0  0.20155  0.90504  0.21629  1.0000
  C   C2427     1.0  0.13135  0.86076  0.25501  1.0000
  S   S344      1.0  0.06437  0.84358  0.27575  1.0000
  C   C2428     1.0  0.19945  0.84657  0.17269  1.0000
  C   C2429     1.0  0.19787  0.89181  0.22704  1.0000
  Fe  Fe173     1.0  0.07369  0.78683  0.33552  1.0000
  H   H1959     1.0  0.05514  0.89640  0.22715  1.0000
  C   C2430     1.0  0.14302  0.78859  0.45550  1.0000
  C   C2431     1.0  0.48189  0.97747  0.18340  1.0000
  C   C2432     1.0  0.46599  0.85339  0.35780  1.0000
  C   C2433     1.0  0.46224  0.84162  0.34630  1.0000
  H   H1960     1.0  0.48885  0.98416  0.22557  1.0000
  C   C2434     1.0  0.24961  0.98042  0.23949  1.0000
  H   H1961     1.0  0.39888  0.93224  0.47496  1.0000
  H   H1962     1.0  0.45721  0.85372  0.37277  1.0000
  H   H1963     1.0  0.45021  0.83309  0.35259  1.0000
  C   C2435     1.0  0.25186  0.97019  0.35452  1.0000
  C   C2436     1.0  0.28502  0.90385  0.44692  1.0000
  H   H1964     1.0  0.30068  0.96761  0.41386  1.0000
  C   C2437     1.0  0.37370  0.82526  0.42302  1.0000
  C   C2438     1.0  0.27374  0.94293  0.42670  1.0000
  C   C2439     1.0  0.28883  0.92929  0.41671  1.0000
  C   C2440     1.0  0.29441  0.90967  0.42699  1.0000
  P   P81       1.0  0.30071  0.93720  0.39096  1.0000
  C   C2441     1.0  0.31798  0.95361  0.38891  1.0000
  C   C2442     1.0  0.31510  0.91603  0.37975  1.0000
  C   C2443     1.0  0.30893  0.91076  0.36461  1.0000
  C   C2444     1.0  0.32124  0.89559  0.35482  1.0000
  C   C2445     1.0  0.33973  0.88554  0.36007  1.0000
  C   C2446     1.0  0.34592  0.89059  0.37516  1.0000
  C   C2447     1.0  0.33368  0.90578  0.38492  1.0000
  C   C2448     1.0  0.39786  0.97465  0.39982  1.0000
  S   S345      1.0  0.33762  0.98013  0.98905  1.0000
  H   H1965     1.0  0.04518  0.94792  0.26067  1.0000
  C   C2449     1.0  0.22195  0.80337  0.00356  1.0000
  H   H1966     1.0  0.06970  0.79618  0.18450  1.0000
  C   C2450     1.0  0.28137  0.95047  0.37708  1.0000
  C   C2451     1.0  0.02859  0.81904  0.16391  1.0000
  C   C2452     1.0  0.38222  0.95476  0.28434  1.0000
  C   C2453     1.0  0.14021  0.84374  0.36297  1.0000
  C   C2454     1.0  0.15621  0.79459  0.26737  1.0000
  C   C2455     1.0  0.26128  0.94718  0.38369  1.0000
  H   H1967     1.0  0.36975  0.95119  0.28009  1.0000
  H   H1968     1.0  0.13880  0.85878  0.35420  1.0000
  H   H1969     1.0  0.10176  0.86013  0.04582  1.0000
  H   H1970     1.0  0.48382  0.86838  0.40342  1.0000
  H   H1971     1.0  0.30620  0.89891  0.41985  1.0000
  H   H1972     1.0  0.29505  0.91877  0.35975  1.0000
  H   H1973     1.0  0.31681  0.89227  0.34256  1.0000
  H   H1974     1.0  0.34958  0.87428  0.35203  1.0000
  H   H1975     1.0  0.36053  0.88325  0.37882  1.0000
  H   H1976     1.0  0.33904  0.91012  0.39600  1.0000
  C   C2456     1.0  0.20753  0.82119  0.00266  1.0000
  H   H1977     1.0  0.08450  0.88493  0.24713  1.0000
  H   H1978     1.0  0.25298  0.94790  0.45416  1.0000
  H   H1979     1.0  0.06119  0.97591  0.23948  1.0000
  H   H1980     1.0  0.31587  0.98193  0.11885  1.0000
  C   C2457     1.0  0.27575  0.95865  0.09343  1.0000
  C   C2458     1.0  0.06691  0.92330  0.22257  1.0000
  C   C2459     1.0  0.00079  0.82124  0.39282  1.0000
  C   C2460     1.0  0.14926  0.81988  0.39190  1.0000
  H   H1981     1.0  0.25690  0.93696  0.39743  1.0000
  H   H1982     1.0  0.35983  0.85683  0.41918  1.0000
  H   H1983     1.0  0.42841  0.98244  0.25979  1.0000
  H   H1984     1.0  0.03229  0.83836  0.40826  1.0000
  C   C2461     1.0  0.01198  0.86931  0.26665  1.0000
  C   C2462     1.0  0.01653  0.93396  0.10375  1.0000
  C   C2463     1.0  0.01869  0.98177  0.15804  1.0000
  P   P82       1.0  0.07497  0.96627  0.17179  1.0000
  C   C2464     1.0  0.06967  0.94371  0.18927  1.0000
  C   C2465     1.0  0.09912  0.96058  0.15475  1.0000
  C   C2466     1.0  0.10514  0.94219  0.14832  1.0000
  C   C2467     1.0  0.12393  0.93774  0.13543  1.0000
  C   C2468     1.0  0.13688  0.95155  0.12881  1.0000
  H   H1985     1.0  0.34918  0.86037  0.98694  1.0000
  C   C2469     1.0  0.15286  0.80772  0.98476  1.0000
  H   H1986     1.0  0.47410  0.79415  0.37802  1.0000
  C   C2470     1.0  0.06201  0.92976  0.18346  1.0000
  H   H1987     1.0  0.37109  0.88886  0.46602  1.0000
  H   H1988     1.0  0.46838  0.93502  0.35752  1.0000
  H   H1989     1.0  0.39761  0.87078  0.02634  1.0000
  C   C2471     1.0  0.11615  0.85031  0.04760  1.0000
  C   C2472     1.0  0.37028  0.84484  0.42639  1.0000
  C   C2473     1.0  0.42047  0.87160  0.27658  1.0000
  H   H1990     1.0  0.13903  0.85360  0.26720  1.0000
  C   C2474     1.0  0.18624  0.88024  0.22291  1.0000
  H   H1991     1.0  0.37835  0.86453  0.44084  1.0000
  H   H1992     1.0  0.39014  0.79477  0.03732  1.0000
  P   P83       1.0  0.36074  0.82008  0.40622  1.0000
  H   H1993     1.0  0.09545  0.93120  0.15308  1.0000
  H   H1994     1.0  0.12855  0.92346  0.13062  1.0000
  H   H1995     1.0  0.15161  0.94785  0.11913  1.0000
  C   C2475     1.0  0.27012  0.91760  0.45675  1.0000
  H   H1996     1.0  0.41369  0.89295  0.03693  1.0000
  H   H1997     1.0  0.07808  0.95072  0.21385  1.0000
  H   H1998     1.0  0.05980  0.93212  0.16841  1.0000
  C   C2476     1.0  0.04836  0.83472  0.40841  1.0000
  S   S346      1.0  0.05267  0.81657  0.33037  1.0000
  H   H1999     1.0  0.01237  0.82394  0.16856  1.0000
  C   C2477     1.0  0.36780  0.97799  0.47611  1.0000
  H   H2000     1.0  0.03235  0.80733  0.19412  1.0000
  H   H2001     1.0  0.05834  0.86039  0.23601  1.0000
  C   C2478     1.0  0.39090  0.84125  0.34066  1.0000
  H   H2002     1.0  0.06533  0.82913  0.06123  1.0000
  H   H2003     1.0  0.05233  0.79920  0.11127  1.0000
  H   H2004     1.0  0.39773  0.84660  0.32528  1.0000
  C   C2479     1.0  0.41857  0.91228  0.00817  1.0000
  H   H2005     1.0  0.01074  0.96545  0.31719  1.0000
  C   C2480     1.0  0.06091  0.80307  0.17315  1.0000
  H   H2006     1.0  0.11189  0.80161  0.02305  1.0000
  H   H2007     1.0  0.39259  0.84388  0.38731  1.0000
  C   C2481     1.0  0.40300  0.88315  0.01553  1.0000
  C   C2482     1.0  0.14481  0.83977  0.06378  1.0000
  C   C2483     1.0  0.02166  0.81650  0.11141  1.0000
  P   P84       1.0  0.46695  0.82817  0.31112  1.0000
  H   H2008     1.0  0.29119  0.97817  0.15085  1.0000
  H   H2009     1.0  0.40347  0.83794  0.45659  1.0000
  H   H2010     1.0  0.47784  0.97622  0.28911  1.0000
  C   C2484     1.0  0.01818  0.96704  0.27416  1.0000
  H   H2011     1.0  0.15000  0.83067  0.20641  1.0000
  H   H2012     1.0  0.06874  0.92084  0.23772  1.0000
  H   H2013     1.0  0.20568  0.86471  0.27218  1.0000
  H   H2014     1.0  0.39367  0.78772  0.39446  1.0000
  C   C2485     1.0  0.47729  0.92014  0.31335  1.0000
  C   C2486     1.0  0.47905  0.92002  0.33257  1.0000
  C   C2487     1.0  0.46701  0.93504  0.34261  1.0000
  C   C2488     1.0  0.45322  0.95025  0.33348  1.0000
  C   C2489     1.0  0.45128  0.95051  0.31416  1.0000
  C   C2490     1.0  0.46354  0.93533  0.30416  1.0000
  P   P85       1.0  0.43531  0.97114  0.30098  1.0000
  C   C2491     1.0  0.39954  0.94015  0.28699  1.0000
  H   H2015     1.0  0.18559  0.84389  0.26484  1.0000
  H   H2016     1.0  0.23096  0.95507  0.37790  1.0000
  H   H2017     1.0  0.20417  0.85451  0.19819  1.0000
  H   H2018     1.0  0.11566  0.83365  0.02641  1.0000
  C   C2492     1.0  0.03661  0.78748  0.09588  1.0000
  H   H2019     1.0  0.29855  0.86682  0.38929  1.0000
  H   H2020     1.0  0.42830  0.93289  0.29552  1.0000
  H   H2021     1.0  0.21394  0.89523  0.24792  1.0000
  H   H2022     1.0  0.12975  0.83190  0.34282  1.0000
  H   H2023     1.0  0.48702  0.95249  0.10883  1.0000
  H   H2024     1.0  0.40049  0.92525  0.28470  1.0000
  S   S347      1.0  0.22857  0.97195  0.21555  1.0000
  C   C2493     1.0  0.39802  0.81475  0.44470  1.0000
  C   C2494     1.0  0.48844  0.79210  0.38239  1.0000
  H   H2025     1.0  0.30214  0.95742  0.45858  1.0000
  C   C2495     1.0  0.30193  0.96095  0.06284  1.0000
  C   C2496     1.0  0.48846  0.85332  0.31897  1.0000
  H   H2026     1.0  0.42706  0.81659  0.31761  1.0000
  C   C2497     1.0  0.47831  0.98328  0.23986  1.0000
  H   H2027     1.0  0.10127  0.81520  0.26480  1.0000
  H   H2028     1.0  0.44457  0.96186  0.34157  1.0000
  H   H2029     1.0  0.46294  0.93554  0.28899  1.0000
  H   H2030     1.0  0.12002  0.86417  0.07000  1.0000
  H   H2031     1.0  0.20364  0.81734  0.23827  1.0000
  C   C2498     1.0  0.18908  0.85710  0.25404  1.0000
  C   C2499     1.0  0.03827  0.89740  0.31600  1.0000
  C   C2500     1.0  0.08182  0.79868  0.06471  1.0000
  C   C2501     1.0  0.10520  0.79043  0.08722  1.0000
  H   H2032     1.0  0.42933  0.98487  0.10025  1.0000
  H   H2033     1.0  0.02632  0.82180  0.36805  1.0000
  H   H2034     1.0  0.13918  0.87033  0.20429  1.0000
  H   H2035     1.0  0.27588  0.98347  0.33397  1.0000
  C   C2502     1.0  0.36438  0.97869  0.21830  1.0000
  H   H2036     1.0  0.10577  0.82304  0.40912  1.0000
  P   P86       1.0  0.02408  0.83471  0.12449  1.0000
  C   C2503     1.0  0.03809  0.80090  0.10688  1.0000
  C   C2504     1.0  0.28638  0.95169  0.07587  1.0000
  C   C2505     1.0  0.45596  0.80738  0.32701  1.0000
  H   H2037     1.0  0.15554  0.81665  0.40506  1.0000
  C   C2506     1.0  0.09625  0.82362  0.25141  1.0000
  H   H2038     1.0  0.45952  0.81115  0.43656  1.0000
  C   C2507     1.0  0.18689  0.83900  0.16494  1.0000
  C   C2508     1.0  0.19412  0.84865  0.19261  1.0000
  C   C2509     1.0  0.11078  0.86970  0.25924  1.0000
  C   C2510     1.0  0.32514  0.84559  0.39649  1.0000
  C   C2511     1.0  0.11135  0.80706  0.99205  1.0000
  H   H2039     1.0  0.04958  0.79514  0.38588  1.0000
  C   C2512     1.0  0.05476  0.97517  0.15816  1.0000
  C   C2513     1.0  0.03119  0.91244  0.27751  1.0000
  H   H2040     1.0  0.26301  0.91319  0.47224  1.0000
  Fe  Fe174     1.0  0.34044  0.96663  0.02069  1.0000
  H   H2041     1.0  0.33163  0.82407  0.44364  1.0000
  C   C2514     1.0  0.17587  0.84363  0.20480  1.0000
  C   C2515     1.0  0.07216  0.84919  0.23513  1.0000
  C   C2516     1.0  0.43323  0.98415  0.04556  1.0000
  C   C2517     1.0  0.38643  0.96521  0.11117  1.0000
  H   H2042     1.0  0.00081  0.88367  0.17272  1.0000
  C   C2518     1.0  0.07067  0.80599  0.15311  1.0000
  C   C2519     1.0  0.35877  0.95518  0.09261  1.0000
  C   C2520     1.0  0.34240  0.96847  0.13180  1.0000
  H   H2043     1.0  0.26903  0.95812  0.41906  1.0000
  C   C2521     1.0  0.02081  0.81480  0.38321  1.0000
  C   C2522     1.0  0.31405  0.96445  0.16825  1.0000
  C   C2523     1.0  0.33487  0.95782  0.16782  1.0000
  C   C2524     1.0  0.34902  0.95997  0.14973  1.0000
  C   C2525     1.0  0.37448  0.95226  0.07591  1.0000
  C   C2526     1.0  0.37342  0.94022  0.06332  1.0000
  C   C2527     1.0  0.35656  0.93119  0.06714  1.0000
  C   C2528     1.0  0.34092  0.93394  0.08377  1.0000
  C   C2529     1.0  0.34197  0.94589  0.09649  1.0000
  H   H2044     1.0  0.36404  0.85747  0.02808  1.0000
  H   H2045     1.0  0.02816  0.86914  0.26278  1.0000
  H   H2046     1.0  0.41160  0.78962  0.34125  1.0000
  C   C2530     1.0  0.00382  0.81850  0.10450  1.0000
  C   C2531     1.0  0.41384  0.96383  0.29658  1.0000
  C   C2532     1.0  0.39477  0.83431  0.44769  1.0000
  H   H2047     1.0  0.28257  0.93906  0.07240  1.0000
  P   P87       1.0  0.15344  0.80196  0.02521  1.0000
  H   H2048     1.0  0.45228  0.82628  0.27668  1.0000
  C   C2533     1.0  0.00177  0.92693  0.09850  1.0000
  H   H2049     1.0  0.23803  0.80384  0.99875  1.0000
  C   C2534     1.0  0.28071  0.97488  0.09804  1.0000
  H   H2050     1.0  0.38743  0.95957  0.07235  1.0000
  H   H2051     1.0  0.38551  0.93828  0.05036  1.0000
  H   H2052     1.0  0.35530  0.92247  0.05698  1.0000
  H   H2053     1.0  0.32761  0.92735  0.08641  1.0000
  H   H2054     1.0  0.32942  0.94805  0.10898  1.0000
  C   C2535     1.0  0.34570  0.97816  0.38549  1.0000
  C   C2536     1.0  0.41208  0.89574  0.02163  1.0000
  Fe  Fe175     1.0  0.24060  0.97318  0.14117  1.0000
  P   P88       1.0  0.36032  0.97142  0.10815  1.0000
  C   C2537     1.0  0.20493  0.88620  0.24475  1.0000
  C   C2538     1.0  0.13882  0.92363  0.19727  1.0000
  C   C2539     1.0  0.14479  0.93800  0.18069  1.0000
  C   C2540     1.0  0.14668  0.95652  0.18316  1.0000
  C   C2541     1.0  0.14251  0.96076  0.20225  1.0000
  C   C2542     1.0  0.13632  0.94646  0.21906  1.0000
  C   C2543     1.0  0.13490  0.92767  0.21642  1.0000
  P   P89       1.0  0.13336  0.95112  0.24375  1.0000
  C   C2544     1.0  0.12014  0.97664  0.24482  1.0000
  C   C2545     1.0  0.11947  0.93352  0.26199  1.0000
  C   C2546     1.0  0.12716  0.92211  0.27867  1.0000
  C   C2547     1.0  0.11619  0.90873  0.29276  1.0000
  C   C2548     1.0  0.09747  0.90663  0.29035  1.0000
  C   C2549     1.0  0.08984  0.91769  0.27368  1.0000
  C   C2550     1.0  0.10088  0.93091  0.25943  1.0000
  H   H2055     1.0  0.03033  0.84790  0.08095  1.0000
  C   C2551     1.0  0.14248  0.82179  0.03933  1.0000
  Fe  Fe176     1.0  0.11120  0.80471  0.32328  1.0000
  H   H2056     1.0  0.36567  0.82379  0.04924  1.0000
  H   H2057     1.0  0.42500  0.92241  0.01306  1.0000
  C   C2552     1.0  0.15824  0.94882  0.24865  1.0000
  C   C2553     1.0  0.17590  0.94074  0.23597  1.0000
  C   C2554     1.0  0.19510  0.94039  0.23914  1.0000
  C   C2555     1.0  0.19683  0.94794  0.25501  1.0000
  C   C2556     1.0  0.17934  0.95580  0.26782  1.0000
  C   C2557     1.0  0.16009  0.95629  0.26465  1.0000
  H   H2058     1.0  0.13797  0.90912  0.19520  1.0000
  H   H2059     1.0  0.14863  0.93456  0.16592  1.0000
  H   H2060     1.0  0.15192  0.96742  0.17027  1.0000
  H   H2061     1.0  0.14298  0.78838  0.27592  1.0000
  H   H2062     1.0  0.13138  0.91586  0.22904  1.0000
  H   H2063     1.0  0.14163  0.92341  0.28090  1.0000
  H   H2064     1.0  0.12219  0.90002  0.30562  1.0000
  H   H2065     1.0  0.08894  0.89634  0.30140  1.0000
  H   H2066     1.0  0.07536  0.91601  0.27188  1.0000
  H   H2067     1.0  0.09489  0.93926  0.24648  1.0000
  H   H2068     1.0  0.46765  0.97924  0.19412  1.0000
  H   H2069     1.0  0.40962  0.88184  0.26839  1.0000
  C   C2558     1.0  0.07650  0.81828  0.06846  1.0000
  C   C2559     1.0  0.00691  0.79729  0.42268  1.0000
  H   H2070     1.0  0.36688  0.98489  0.28681  1.0000
  H   H2071     1.0  0.17504  0.93527  0.22326  1.0000
  H   H2072     1.0  0.20874  0.93510  0.22876  1.0000
  H   H2073     1.0  0.21179  0.94832  0.25689  1.0000
  H   H2074     1.0  0.18077  0.96206  0.27983  1.0000
  H   H2075     1.0  0.14667  0.96292  0.27439  1.0000
  C   C2560     1.0  0.03745  0.85310  0.10710  1.0000
  H   H2076     1.0  0.30204  0.96594  0.35326  1.0000
  C   C2561     1.0  0.05662  0.87957  0.10073  1.0000
  C   C2562     1.0  0.05650  0.88315  0.08048  1.0000
  C   C2563     1.0  0.04694  0.87172  0.07347  1.0000
  C   C2564     1.0  0.03743  0.85674  0.08672  1.0000
  H   H2077     1.0  0.12126  0.80839  0.23192  1.0000
  H   H2078     1.0  0.40914  0.80318  0.45141  1.0000
  H   H2079     1.0  0.42063  0.92924  0.97820  1.0000
  C   C2565     1.0  0.03988  0.80953  0.17855  1.0000
  C   C2566     1.0  0.33411  0.97916  0.20697  1.0000
  C   C2567     1.0  0.03393  0.79974  0.39330  1.0000
  H   H2080     1.0  0.06394  0.89472  0.07026  1.0000
  H   H2081     1.0  0.04703  0.87432  0.05774  1.0000
  C   C2568     1.0  0.41958  0.97388  0.10582  1.0000
  C   C2569     1.0  0.10133  0.83081  0.21531  1.0000
  C   C2570     1.0  0.03043  0.80740  0.29265  1.0000
  C   C2571     1.0  0.43048  0.85343  0.27082  1.0000
  C   C2572     1.0  0.15369  0.81369  0.25544  1.0000
  C   C2573     1.0  0.20036  0.86896  0.25835  1.0000
  C   C2574     1.0  0.05950  0.81592  0.13849  1.0000
  H   H2082     1.0  0.39091  0.79503  0.42995  1.0000
  C   C2575     1.0  0.39466  0.94539  0.11910  1.0000
  C   C2576     1.0  0.39914  0.97937  0.10433  1.0000
  C   C2577     1.0  0.44455  0.84029  0.28136  1.0000
  C   C2578     1.0  0.19030  0.81113  0.24639  1.0000
  C   C2579     1.0  0.39623  0.97834  0.29409  1.0000
  H   H2083     1.0  0.13413  0.79925  0.46476  1.0000
  C   C2580     1.0  0.10758  0.81985  0.23279  1.0000
  C   C2581     1.0  0.40434  0.95937  0.45462  1.0000
  H   H2084     1.0  0.06749  0.81883  0.12315  1.0000
  H   H2085     1.0  0.49267  0.78815  0.30591  1.0000
  C   C2582     1.0  0.14325  0.80487  0.38602  1.0000
  C   C2583     1.0  0.03835  0.82241  0.14370  1.0000
  H   H2086     1.0  0.16723  0.81482  0.05497  1.0000
  C   C2584     1.0  0.48080  0.86518  0.34989  1.0000
  C   C2585     1.0  0.04405  0.89397  0.28177  1.0000
  C   C2586     1.0  0.04749  0.88637  0.30101  1.0000
  C   C2587     1.0  0.03463  0.97393  0.16811  1.0000
  C   C2588     1.0  0.02545  0.91597  0.31180  1.0000
  Fe  Fe177     1.0  0.07594  0.82418  0.30260  1.0000
  H   H2087     1.0  0.48227  0.79420  0.34023  1.0000
  H   H2088     1.0  0.01751  0.86255  0.35667  1.0000
  H   H2089     1.0  0.48681  0.90870  0.30537  1.0000
  C   C2589     1.0  0.24812  0.98169  0.21978  1.0000
  H   H2090     1.0  0.13843  0.82160  0.25440  1.0000
  C   C2590     1.0  0.06279  0.83715  0.39045  1.0000
  H   H2091     1.0  0.02004  0.82005  0.29814  1.0000
  C   C2591     1.0  0.03744  0.96309  0.26159  1.0000
  C   C2592     1.0  0.41505  0.94002  0.12081  1.0000
  S   S348      1.0  0.05505  0.84648  0.36759  1.0000
  H   H2092     1.0  0.19073  0.83793  0.14936  1.0000
  C   C2593     1.0  0.10058  0.87876  0.24375  1.0000
  H   H2093     1.0  0.06397  0.88848  0.10620  1.0000
  H   H2094     1.0  0.09042  0.96958  0.25975  1.0000
  H   H2095     1.0  0.10260  0.86903  0.27456  1.0000
  C   C2594     1.0  0.26449  0.93713  0.44663  1.0000
  H   H2096     1.0  0.05124  0.88538  0.27020  1.0000
  H   H2097     1.0  0.03112  0.92432  0.10525  1.0000
  C   C2595     1.0  0.38776  0.83987  0.37576  1.0000
  C   C2596     1.0  0.33472  0.83348  0.41172  1.0000
  H   H2098     1.0  0.26380  0.95144  0.10342  1.0000
  C   C2597     1.0  0.08348  0.83252  0.39078  1.0000
  C   C2598     1.0  0.42708  0.79061  0.34083  1.0000
  H   H2099     1.0  0.31647  0.95687  0.22379  1.0000
  C   C2599     1.0  0.04724  0.86456  0.11398  1.0000
  S   S349      1.0  0.26824  0.98392  0.12003  1.0000
  C   C2600     1.0  0.12642  0.85261  0.06122  1.0000
  H   H2100     1.0  0.10302  0.88598  0.21193  1.0000
  H   H2101     1.0  0.02814  0.78804  0.32154  1.0000
  C   C2601     1.0  0.13149  0.86998  0.21971  1.0000
  C   C2602     1.0  0.33550  0.95348  0.37362  1.0000
  S   S350      1.0  0.37083  0.94681  0.01244  1.0000
  C   C2603     1.0  0.41523  0.94456  0.29330  1.0000
  C   C2604     1.0  0.11097  0.87915  0.22398  1.0000
  H   H2102     1.0  0.34004  0.95097  0.18155  1.0000
  C   C2605     1.0  0.49200  0.86517  0.33049  1.0000
  Fe  Fe178     1.0  0.38426  0.97264  0.01353  1.0000
  C   C2606     1.0  0.40722  0.90350  0.98236  1.0000
  H   H2103     1.0  0.48944  0.84959  0.27451  1.0000
  C   C2607     1.0  0.10000  0.81002  0.09090  1.0000
  H   H2104     1.0  0.36501  0.95505  0.14995  1.0000
  H   H2105     1.0  0.49688  0.83683  0.39150  1.0000
  H   H2106     1.0  0.04735  0.86211  0.12964  1.0000
  C   C2608     1.0  0.00181  0.86701  0.28662  1.0000
  H   H2107     1.0  0.07870  0.85396  0.20297  1.0000
  C   C2609     1.0  0.38951  0.80956  0.02801  1.0000
  H   H2108     1.0  0.48331  0.87453  0.35877  1.0000
  C   C2610     1.0  0.34361  0.95374  0.23472  1.0000
  C   C2611     1.0  0.29559  0.85679  0.42096  1.0000
  C   C2612     1.0  0.15290  0.82455  0.05278  1.0000
  C   C2613     1.0  0.14165  0.86017  0.23525  1.0000
  H   H2109     1.0  0.36298  0.96863  0.43943  1.0000
  C   C2614     1.0  0.32145  0.97521  0.13240  1.0000
  C   C2615     1.0  0.07222  0.94028  0.20894  1.0000
  C   C2616     1.0  0.30569  0.85723  0.40112  1.0000
  C   C2617     1.0  0.36207  0.79346  0.40989  1.0000
  C   C2618     1.0  0.30681  0.97722  0.06744  1.0000
  S   S351      1.0  0.09409  0.83651  0.31721  1.0000
  H   H2110     1.0  0.41168  0.83302  0.98265  1.0000
  C   C2619     1.0  0.47364  0.84131  0.32679  1.0000
  C   C2620     1.0  0.37573  0.82590  0.03471  1.0000
  H   H2111     1.0  0.33270  0.84645  0.38104  1.0000
  C   C2621     1.0  0.16383  0.83521  0.19712  1.0000
  H   H2112     1.0  0.05107  0.90209  0.19226  1.0000
  H   H2113     1.0  0.40832  0.85545  0.35236  1.0000
  H   H2114     1.0  0.15949  0.82713  0.17130  1.0000
  C   C2622     1.0  0.18237  0.86241  0.23602  1.0000
  H   H2115     1.0  0.03602  0.82314  0.26228  1.0000
  C   C2623     1.0  0.04657  0.97888  0.24951  1.0000
  H   H2116     1.0  0.08145  0.83905  0.08414  1.0000
  H   H2117     1.0  0.44335  0.95014  0.11535  1.0000
  H   H2118     1.0  0.34025  0.94120  0.24661  1.0000
  H   H2119     1.0  0.41690  0.89072  0.29734  1.0000
  C   C2624     1.0  0.49662  0.83392  0.27623  1.0000
  C   C2625     1.0  0.29627  0.98411  0.08500  1.0000
  C   C2626     1.0  0.13093  0.97000  0.13486  1.0000
  C   C2627     1.0  0.27189  0.97312  0.34770  1.0000
  C   C2628     1.0  0.34927  0.96568  0.37190  1.0000
  H   H2120     1.0  0.00739  0.87682  0.12916  1.0000
  C   C2629     1.0  0.41619  0.91610  0.98852  1.0000
  C   C2630     1.0  0.48536  0.98092  0.25723  1.0000
  C   C2631     1.0  0.28661  0.96337  0.35888  1.0000
  H   H2121     1.0  0.36372  0.92392  0.46993  1.0000
  P   P90       1.0  0.00443  0.94710  0.28688  1.0000
  C   C2632     1.0  0.11203  0.97462  0.14755  1.0000
  H   H2122     1.0  0.00933  0.87327  0.23622  1.0000
  C   C2633     1.0  0.32799  0.97896  0.40040  1.0000
  H   H2123     1.0  0.14478  0.97500  0.20371  1.0000
  H   H2124     1.0  0.35604  0.81327  0.36865  1.0000
  H   H2125     1.0  0.48986  0.90845  0.33965  1.0000
  C   C2634     1.0  0.38761  0.81021  0.43238  1.0000
  C   C2635     1.0  0.47193  0.97876  0.27577  1.0000
  S   S352      1.0  0.06932  0.79217  0.04884  1.0000
  C   C2636     1.0  0.03946  0.80912  0.27245  1.0000
  C   C2637     1.0  0.43596  0.80590  0.32742  1.0000
  C   C2638     1.0  0.45769  0.98432  0.24093  1.0000
  C   C2639     1.0  0.00141  0.87141  0.25169  1.0000
  H   H2126     1.0  0.03113  0.96714  0.18373  1.0000
  H   H2127     1.0  0.02386  0.95877  0.11149  1.0000
  H   H2128     1.0  0.10554  0.97166  0.19058  1.0000
  H   H2129     1.0  0.42569  0.97794  0.15979  1.0000
  C   C2640     1.0  0.30737  0.97313  0.15054  1.0000
  C   C2641     1.0  0.46689  0.79327  0.34018  1.0000
  C   C2642     1.0  0.45135  0.97869  0.27703  1.0000
  H   H2130     1.0  0.24046  0.97829  0.34595  1.0000
  H   H2131     1.0  0.31288  0.87635  0.99378  1.0000
  C   C2643     1.0  0.44420  0.98212  0.25940  1.0000
  C   C2644     1.0  0.09925  0.98116  0.25340  1.0000
  C   C2645     1.0  0.38047  0.97370  0.28823  1.0000
  H   H2132     1.0  0.49830  0.95603  0.20422  1.0000
  H   H2133     1.0  0.29509  0.80123  0.97979  1.0000
  C   C2646     1.0  0.99937  0.84744  0.13587  1.0000
  H   H2134     1.0  0.15250  0.78538  0.06798  1.0000
  H   H2135     1.0  0.39711  0.95157  0.51000  1.0000
  Fe  Fe179     1.0  0.30554  0.85129  0.90242  1.0000
  S   S353      1.0  0.33563  0.84339  0.88175  1.0000
  S   S354      1.0  0.27719  0.83771  0.90730  1.0000
  Fe  Fe180     1.0  0.32079  0.88271  0.91644  1.0000
  S   S355      1.0  0.35148  0.87717  0.89650  1.0000
  S   S356      1.0  0.31249  0.90591  0.93622  1.0000
  Fe  Fe181     1.0  0.33462  0.87662  0.87358  1.0000
  S   S357      1.0  0.34611  0.89172  0.84204  1.0000
  Fe  Fe182     1.0  0.34974  0.84476  0.90653  1.0000
  S   S358      1.0  0.37616  0.82244  0.91698  1.0000
  S   S359      1.0  0.30368  0.88468  0.89271  1.0000
  S   S360      1.0  0.31979  0.85009  0.92815  1.0000
  Fe  Fe183     1.0  0.49178  0.80847  0.87311  1.0000
  C   C2647     1.0  0.25434  0.96363  0.95966  1.0000
  C   C2648     1.0  0.43298  0.95750  0.86192  1.0000
  C   C2649     1.0  0.36914  0.90131  0.51701  1.0000
  Fe  Fe184     1.0  0.09457  0.86295  0.59515  1.0000
  S   S361      1.0  0.06385  0.87182  0.61424  1.0000
  S   S362      1.0  0.10190  0.84254  0.57262  1.0000
  Fe  Fe185     1.0  0.11526  0.88434  0.61565  1.0000
  S   S363      1.0  0.08614  0.89395  0.63656  1.0000
  S   S364      1.0  0.14555  0.89185  0.61516  1.0000
  Fe  Fe186     1.0  0.08046  0.86301  0.63943  1.0000
  S   S365      1.0  0.06610  0.84463  0.66843  1.0000
  Fe  Fe187     1.0  0.07235  0.90174  0.60967  1.0000
  S   S366      1.0  0.05278  0.93198  0.60136  1.0000
  S   S367      1.0  0.11085  0.85263  0.62062  1.0000
  S   S368      1.0  0.10191  0.89378  0.58833  1.0000
  H   H2136     1.0  0.42442  0.85249  0.86034  1.0000
  C   C2650     1.0  0.14724  0.91043  0.62731  1.0000
  C   C2651     1.0  0.13022  0.91999  0.63948  1.0000
  C   C2652     1.0  0.13225  0.93459  0.64900  1.0000
  C   C2653     1.0  0.15120  0.93994  0.64625  1.0000
  C   C2654     1.0  0.16817  0.93057  0.63393  1.0000
  C   C2655     1.0  0.16620  0.91575  0.62464  1.0000
  H   H2137     1.0  0.11553  0.91616  0.64157  1.0000
  H   H2138     1.0  0.11906  0.94183  0.65849  1.0000
  H   H2139     1.0  0.18286  0.93449  0.63180  1.0000
  H   H2140     1.0  0.17942  0.90846  0.61522  1.0000
  C   C2656     1.0  0.08308  0.83408  0.56558  1.0000
  C   C2657     1.0  0.08914  0.82257  0.55062  1.0000
  C   C2658     1.0  0.04797  0.83153  0.56833  1.0000
  C   C2659     1.0  0.06240  0.83843  0.57451  1.0000
  H   H2141     1.0  0.45274  0.87168  0.87889  1.0000
  H   H2142     1.0  0.03200  0.83522  0.57509  1.0000
  H   H2143     1.0  0.05752  0.84728  0.58601  1.0000
  C   C2660     1.0  0.01521  0.95503  0.61068  1.0000
  C   C2661     1.0  0.02927  0.93839  0.61748  1.0000
  C   C2662     1.0  0.02445  0.92755  0.63690  1.0000
  C   C2663     1.0  0.21405  0.80829  0.95083  1.0000
  H   H2144     1.0  0.01857  0.96313  0.59554  1.0000
  H   H2145     1.0  0.03522  0.91461  0.64221  1.0000
  H   H2146     1.0  0.18969  0.80068  0.91033  1.0000
  C   C2664     1.0  0.32892  0.91152  0.83112  1.0000
  C   C2665     1.0  0.33595  0.92348  0.81284  1.0000
  C   C2666     1.0  0.32250  0.93956  0.80401  1.0000
  C   C2667     1.0  0.38221  0.97883  0.83894  1.0000
  C   C2668     1.0  0.29493  0.93139  0.83148  1.0000
  C   C2669     1.0  0.30834  0.91544  0.84034  1.0000
  H   H2147     1.0  0.35182  0.92032  0.80555  1.0000
  C   C2670     1.0  0.03563  0.78949  0.90584  1.0000
  H   H2148     1.0  0.27913  0.93456  0.83884  1.0000
  H   H2149     1.0  0.30268  0.90613  0.85419  1.0000
  C   C2671     1.0  0.33125  0.91568  0.94191  1.0000
  C   C2672     1.0  0.35207  0.91006  0.93408  1.0000
  C   C2673     1.0  0.36642  0.91830  0.93892  1.0000
  C   C2674     1.0  0.21618  0.79443  0.78376  1.0000
  C   C2675     1.0  0.37065  0.89223  0.48029  1.0000
  C   C2676     1.0  0.33564  0.98160  0.83271  1.0000
  H   H2150     1.0  0.35714  0.89934  0.92436  1.0000
  H   H2151     1.0  0.38247  0.91376  0.93290  1.0000
  P   P91       1.0  0.46865  0.90430  0.84983  1.0000
  H   H2152     1.0  0.00189  0.92517  0.66444  1.0000
  C   C2677     1.0  0.40057  0.82486  0.90247  1.0000
  C   C2678     1.0  0.40303  0.83956  0.88518  1.0000
  C   C2679     1.0  0.42263  0.84122  0.87379  1.0000
  C   C2680     1.0  0.43984  0.82805  0.87951  1.0000
  C   C2681     1.0  0.43743  0.81351  0.89692  1.0000
  C   C2682     1.0  0.41782  0.81197  0.90839  1.0000
  H   H2153     1.0  0.38981  0.84943  0.88042  1.0000
  H   H2154     1.0  0.45063  0.80330  0.90142  1.0000
  C   C2683     1.0  0.41825  0.86814  0.95532  1.0000
  C   C2684     1.0  0.27268  0.82228  0.89293  1.0000
  C   C2685     1.0  0.25360  0.81657  0.89760  1.0000
  C   C2686     1.0  0.24966  0.80361  0.88723  1.0000
  C   C2687     1.0  0.19903  0.82343  0.94341  1.0000
  C   C2688     1.0  0.00562  0.93355  0.64944  1.0000
  C   C2689     1.0  0.28758  0.81532  0.87733  1.0000
  H   H2155     1.0  0.24179  0.82214  0.90934  1.0000
  H   H2156     1.0  0.42809  0.97220  0.85350  1.0000
  H   H2157     1.0  0.30229  0.81964  0.87346  1.0000
  C   C2690     1.0  0.45552  0.89343  0.83739  1.0000
  C   C2691     1.0  0.11484  0.80300  0.68275  1.0000
  C   C2692     1.0  0.10248  0.81888  0.67246  1.0000
  C   C2693     1.0  0.08189  0.82447  0.68087  1.0000
  C   C2694     1.0  0.07366  0.81380  0.69952  1.0000
  C   C2695     1.0  0.06646  0.81601  0.62600  1.0000
  C   C2696     1.0  0.01993  0.78931  0.89683  1.0000
  H   H2158     1.0  0.10897  0.82683  0.65809  1.0000
  H   H2159     1.0  0.05771  0.81808  0.70613  1.0000
  C   C2697     1.0  0.42788  0.89543  0.82126  1.0000
  H   H2160     1.0  0.47796  0.94685  0.65774  1.0000
  C   C2698     1.0  0.29517  0.87069  0.83859  1.0000
  H   H2161     1.0  0.18629  0.79143  0.78335  1.0000
  C   C2699     1.0  0.33928  0.93819  0.95901  1.0000
  C   C2700     1.0  0.43655  0.87653  0.81669  1.0000
  C   C2701     1.0  0.01037  0.87949  0.63835  1.0000
  H   H2162     1.0  0.17349  0.90773  0.71531  1.0000
  C   C2702     1.0  0.03926  0.79662  0.67732  1.0000
  C   C2703     1.0  0.49779  0.94621  0.67689  1.0000
  C   C2704     1.0  0.09335  0.79055  0.61267  1.0000
  S   S369      1.0  0.37836  0.94329  0.95643  1.0000
  H   H2163     1.0  0.07650  0.93746  0.67801  1.0000
  H   H2164     1.0  0.38032  0.95066  0.90592  1.0000
  H   H2165     1.0  0.37367  0.97902  0.92303  1.0000
  C   C2705     1.0  0.05236  0.80356  0.62960  1.0000
  S   S370      1.0  0.15322  0.95737  0.65958  1.0000
  C   C2706     1.0  0.14293  0.79850  0.75813  1.0000
  H   H2166     1.0  0.03477  0.80184  0.91286  1.0000
  C   C2707     1.0  0.07690  0.92148  0.68165  1.0000
  H   H2167     1.0  0.19417  0.83724  0.94901  1.0000
  H   H2168     1.0  0.36854  0.90446  0.53136  1.0000
  H   H2169     1.0  0.47848  0.86624  0.83652  1.0000
  H   H2170     1.0  0.07966  0.78967  0.72423  1.0000
  C   C2708     1.0  0.46831  0.87058  0.88003  1.0000
  C   C2709     1.0  0.22077  0.79051  0.94331  1.0000
  H   H2171     1.0  0.48766  0.88847  0.58474  1.0000
  H   H2172     1.0  0.25257  0.87709  0.90766  1.0000
  H   H2173     1.0  0.25504  0.97774  0.65171  1.0000
  C   C2710     1.0  0.48011  0.88423  0.86740  1.0000
  C   C2711     1.0  0.20085  0.80482  0.70032  1.0000
  H   H2174     1.0  0.03196  0.80151  0.60191  1.0000
  H   H2175     1.0  0.49561  0.87841  0.64918  1.0000
  H   H2176     1.0  0.13071  0.79864  0.67604  1.0000
  C   C2712     1.0  0.49767  0.92860  0.83736  1.0000
  H   H2177     1.0  0.21968  0.89242  0.81778  1.0000
  C   C2713     1.0  0.43719  0.90381  0.83178  1.0000
  H   H2178     1.0  0.35283  0.94425  0.89286  1.0000
  H   H2179     1.0  0.24370  0.92854  0.84712  1.0000
  C   C2714     1.0  0.19653  0.80288  0.92160  1.0000
  C   C2715     1.0  0.49398  0.89103  0.56888  1.0000
  S   S371      1.0  0.49839  0.79728  0.90367  1.0000
  C   C2716     1.0  0.10249  0.97661  0.60568  1.0000
  C   C2717     1.0  0.46435  0.87463  0.83235  1.0000
  C   C2718     1.0  0.44503  0.94232  0.85201  1.0000
  C   C2719     1.0  0.02447  0.79698  0.66680  1.0000
  H   H2180     1.0  0.22042  0.81055  0.96233  1.0000
  C   C2720     1.0  0.33828  0.94091  0.68164  1.0000
  C   C2721     1.0  0.12440  0.94368  0.58826  1.0000
  C   C2722     1.0  0.41491  0.86172  0.92435  1.0000
  C   C2723     1.0  0.08604  0.79774  0.70978  1.0000
  H   H2181     1.0  0.43000  0.91823  0.83558  1.0000
  H   H2182     1.0  0.10505  0.81923  0.54355  1.0000
  C   C2724     1.0  0.05834  0.97504  0.63668  1.0000
  C   C2725     1.0  0.19038  0.82077  0.92869  1.0000
  H   H2183     1.0  0.45074  0.90519  0.89261  1.0000
  C   C2726     1.0  0.43374  0.93485  0.89358  1.0000
  C   C2727     1.0  0.07472  0.81573  0.54442  1.0000
  C   C2728     1.0  0.37460  0.95731  0.48174  1.0000
  S   S372      1.0  0.21263  0.96418  0.65120  1.0000
  C   C2729     1.0  0.01374  0.86671  0.65619  1.0000
  C   C2730     1.0  0.39709  0.87014  0.96258  1.0000
  H   H2184     1.0  0.37857  0.90135  0.65505  1.0000
  H   H2185     1.0  0.40812  0.97855  0.81400  1.0000
  H   H2186     1.0  0.40490  0.90706  0.96726  1.0000
  P   P92       1.0  0.36025  0.94284  0.50315  1.0000
  H   H2187     1.0  0.06185  0.83062  0.62996  1.0000
  H   H2188     1.0  0.21345  0.79122  0.79990  1.0000
  C   C2731     1.0  0.23519  0.79791  0.77254  1.0000
  H   H2189     1.0  0.34841  0.96243  0.65555  1.0000
  H   H2190     1.0  0.34919  0.94051  0.57533  1.0000
  H   H2191     1.0  0.38275  0.94863  0.57313  1.0000
  C   C2732     1.0  0.29108  0.96788  0.51031  1.0000
  H   H2192     1.0  0.48281  0.90748  0.80615  1.0000
  H   H2193     1.0  0.25897  0.94680  0.67722  1.0000
  H   H2194     1.0  0.21391  0.81035  0.66885  1.0000
  H   H2195     1.0  0.42905  0.86984  0.80903  1.0000
  H   H2196     1.0  0.10910  0.78583  0.60581  1.0000
  C   C2733     1.0  0.32501  0.92965  0.95452  1.0000
  H   H2197     1.0  0.27484  0.97375  0.51197  1.0000
  H   H2198     1.0  0.28152  0.89782  0.79543  1.0000
  H   H2199     1.0  0.25671  0.82000  0.82793  1.0000
  H   H2200     1.0  0.01915  0.84509  0.60931  1.0000
  C   C2734     1.0  0.38648  0.94920  0.52414  1.0000
  C   C2735     1.0  0.26740  0.97423  0.65954  1.0000
  C   C2736     1.0  0.48741  0.91677  0.83153  1.0000
  C   C2737     1.0  0.35963  0.94293  0.56105  1.0000
  C   C2738     1.0  0.48091  0.89513  0.55565  1.0000
  C   C2739     1.0  0.26251  0.79881  0.95218  1.0000
  C   C2740     1.0  0.36650  0.91214  0.48248  1.0000
  H   H2201     1.0  0.46133  0.85125  0.81917  1.0000
  S   S373      1.0  0.03541  0.81139  0.54625  1.0000
  C   C2741     1.0  0.14349  0.80963  0.96892  1.0000
  C   C2742     1.0  0.00901  0.80675  0.62845  1.0000
  C   C2743     1.0  0.39196  0.95056  0.54137  1.0000
  C   C2744     1.0  0.32458  0.87286  0.81145  1.0000
  H   H2202     1.0  0.28695  0.97486  0.85231  1.0000
  H   H2203     1.0  0.37422  0.93726  0.63889  1.0000
  C   C2745     1.0  0.28240  0.88277  0.82596  1.0000
  H   H2204     1.0  0.24715  0.79759  0.77999  1.0000
  C   C2746     1.0  0.16223  0.90038  0.71340  1.0000
  H   H2205     1.0  0.13272  0.93049  0.58224  1.0000
  C   C2747     1.0  0.36739  0.94493  0.52523  1.0000
  C   C2748     1.0  0.37852  0.94749  0.55981  1.0000
  C   C2749     1.0  0.32435  0.96998  0.51380  1.0000
  H   H2206     1.0  0.38447  0.86141  0.92237  1.0000
  C   C2750     1.0  0.10681  0.79266  0.70157  1.0000
  H   H2207     1.0  0.33945  0.93785  0.54509  1.0000
  H   H2208     1.0  0.15056  0.94904  0.59571  1.0000
  C   C2751     1.0  0.26466  0.79638  0.87186  1.0000
  C   C2752     1.0  0.37331  0.88134  0.51481  1.0000
  H   H2209     1.0  0.32697  0.93036  0.49277  1.0000
  H   H2210     1.0  0.46474  0.89560  0.56134  1.0000
  C   C2753     1.0  0.31613  0.86572  0.83130  1.0000
  H   H2211     1.0  0.46770  0.84402  0.90290  1.0000
  H   H2212     1.0  0.42177  0.85791  0.90984  1.0000
  C   C2754     1.0  0.28417  0.79557  0.97512  1.0000
  C   C2755     1.0  0.27185  0.95381  0.94838  1.0000
  H   H2213     1.0  0.29522  0.79718  0.85484  1.0000
  H   H2214     1.0  0.29021  0.94368  0.49712  1.0000
  C   C2756     1.0  0.45477  0.86614  0.82225  1.0000
  C   C2757     1.0  0.12354  0.97038  0.60477  1.0000
  H   H2215     1.0  0.04881  0.92398  0.67250  1.0000
  C   C2758     1.0  0.02050  0.83790  0.64055  1.0000
  C   C2759     1.0  0.29973  0.95085  0.50202  1.0000
  H   H2216     1.0  0.40977  0.97920  0.72323  1.0000
  C   C2760     1.0  0.36006  0.93247  0.95136  1.0000
  H   H2217     1.0  0.31857  0.89003  0.78327  1.0000
  C   C2761     1.0  0.35503  0.90633  0.68093  1.0000
  H   H2218     1.0  0.20721  0.78894  0.70216  1.0000
  C   C2762     1.0  0.03846  0.97252  0.64593  1.0000
  C   C2763     1.0  0.08683  0.80956  0.61736  1.0000
  H   H2219     1.0  0.27456  0.93769  0.94970  1.0000
  H   H2220     1.0  0.49517  0.92943  0.85289  1.0000
  H   H2221     1.0  0.01274  0.87290  0.66907  1.0000
  C   C2764     1.0  0.49205  0.93952  0.66249  1.0000
  H   H2222     1.0  0.15716  0.88414  0.74365  1.0000
  H   H2223     1.0  0.07961  0.80703  0.53281  1.0000
  S   S374      1.0  0.46410  0.83026  0.86460  1.0000
  C   C2765     1.0  0.30343  0.97176  0.84964  1.0000
  H   H2224     1.0  0.02134  0.83645  0.67129  1.0000
  C   C2766     1.0  0.29863  0.96570  0.68076  1.0000
  H   H2225     1.0  0.22667  0.80414  0.72612  1.0000
  H   H2226     1.0  0.09568  0.94172  0.58308  1.0000
  P   P93       1.0  0.02620  0.81122  0.64159  1.0000
  C   C2767     1.0  0.10355  0.94994  0.58882  1.0000
  H   H2227     1.0  0.09757  0.81943  0.61407  1.0000
  H   H2228     1.0  0.00651  0.89555  0.63744  1.0000
  C   C2768     1.0  0.08436  0.82846  0.74520  1.0000
  C   C2769     1.0  0.07594  0.83789  0.76149  1.0000
  C   C2770     1.0  0.07941  0.85689  0.76067  1.0000
  C   C2771     1.0  0.09142  0.86640  0.74361  1.0000
  C   C2772     1.0  0.10042  0.85678  0.72738  1.0000
  C   C2773     1.0  0.09630  0.83796  0.72812  1.0000
  P   P94       1.0  0.11381  0.87023  0.70461  1.0000
  C   C2774     1.0  0.09393  0.88765  0.69360  1.0000
  C   C2775     1.0  0.13243  0.88220  0.70844  1.0000
  C   C2776     1.0  0.14253  0.89477  0.69229  1.0000
  C   C2777     1.0  0.15711  0.90406  0.69485  1.0000
  H   H2229     1.0  0.27030  0.85096  0.82040  1.0000
  C   C2778     1.0  0.15294  0.88719  0.72935  1.0000
  C   C2779     1.0  0.13818  0.87800  0.72687  1.0000
  C   C2780     1.0  0.07817  0.88025  0.69048  1.0000
  C   C2781     1.0  0.06184  0.89333  0.68317  1.0000
  S   S375      1.0  0.48200  0.96707  0.68606  1.0000
  H   H2230     1.0  0.17880  0.83248  0.92284  1.0000
  C   C2782     1.0  0.09306  0.90843  0.68935  1.0000
  C   C2783     1.0  0.12873  0.85374  0.68804  1.0000
  C   C2784     1.0  0.14006  0.83523  0.69562  1.0000
  C   C2785     1.0  0.15290  0.82306  0.68271  1.0000
  C   C2786     1.0  0.15494  0.82947  0.66215  1.0000
  C   C2787     1.0  0.14400  0.84799  0.65451  1.0000
  C   C2788     1.0  0.13088  0.86011  0.66736  1.0000
  H   H2231     1.0  0.08134  0.81390  0.74564  1.0000
  H   H2232     1.0  0.06644  0.83058  0.77459  1.0000
  H   H2233     1.0  0.07243  0.86444  0.77309  1.0000
  H   H2234     1.0  0.09333  0.88144  0.74286  1.0000
  H   H2235     1.0  0.10177  0.83076  0.71536  1.0000
  H   H2236     1.0  0.13906  0.89749  0.67768  1.0000
  C   C2789     1.0  0.05402  0.82029  0.55315  1.0000
  H   H2237     1.0  0.34095  0.86958  0.80616  1.0000
  H   H2238     1.0  0.13152  0.86751  0.73927  1.0000
  H   H2239     1.0  0.07846  0.86430  0.69373  1.0000
  H   H2240     1.0  0.04993  0.88736  0.68052  1.0000
  C   C2790     1.0  0.28538  0.95232  0.68430  1.0000
  H   H2241     1.0  0.03508  0.95763  0.65129  1.0000
  H   H2242     1.0  0.10463  0.91475  0.69202  1.0000
  H   H2243     1.0  0.13901  0.83016  0.71149  1.0000
  H   H2244     1.0  0.16111  0.80855  0.68864  1.0000
  H   H2245     1.0  0.16486  0.82005  0.65212  1.0000
  H   H2246     1.0  0.14573  0.85299  0.63856  1.0000
  H   H2247     1.0  0.12276  0.87455  0.66104  1.0000
  S   S376      1.0  0.48768  0.95525  0.74104  1.0000
  H   H2248     1.0  0.27951  0.95989  0.72137  1.0000
  C   C2791     1.0  0.30339  0.97744  0.51622  1.0000
  H   H2249     1.0  0.49705  0.84193  0.65400  1.0000
  C   C2792     1.0  0.23881  0.80152  0.75176  1.0000
  H   H2250     1.0  0.07025  0.96186  0.63551  1.0000
  H   H2251     1.0  0.00806  0.79779  0.58347  1.0000
  C   C2793     1.0  0.30196  0.94350  0.81336  1.0000
  C   C2794     1.0  0.31188  0.94995  0.71997  1.0000
  C   C2795     1.0  0.29128  0.95239  0.72957  1.0000
  C   C2796     1.0  0.28569  0.94569  0.75011  1.0000
  C   C2797     1.0  0.30063  0.93673  0.76127  1.0000
  C   C2798     1.0  0.32121  0.93455  0.75191  1.0000
  C   C2799     1.0  0.32684  0.94125  0.73134  1.0000
  H   H2252     1.0  0.32793  0.94877  0.78990  1.0000
  C   C2800     1.0  0.48870  0.89853  0.53511  1.0000
  H   H2253     1.0  0.32598  0.85680  0.84120  1.0000
  C   C2801     1.0  0.01746  0.85090  0.62258  1.0000
  C   C2802     1.0  0.33099  0.96946  0.90225  1.0000
  H   H2254     1.0  0.30907  0.93380  0.96106  1.0000
  C   C2803     1.0  0.26969  0.95672  0.67390  1.0000
  C   C2804     1.0  0.40717  0.98439  0.73701  1.0000
  H   H2255     1.0  0.21735  0.95049  0.77993  1.0000
  C   C2805     1.0  0.36485  0.93259  0.65331  1.0000
  C   C2806     1.0  0.35029  0.94681  0.66282  1.0000
  H   H2256     1.0  0.28701  0.93860  0.69526  1.0000
  C   C2807     1.0  0.42731  0.95378  0.88268  1.0000
  H   H2257     1.0  0.13888  0.79833  0.55102  1.0000
  H   H2258     1.0  0.20362  0.91926  0.79378  1.0000
  C   C2808     1.0  0.22343  0.80158  0.74220  1.0000
  C   C2809     1.0  0.01231  0.87159  0.62154  1.0000
  H   H2259     1.0  0.26977  0.94796  0.75743  1.0000
  H   H2260     1.0  0.29627  0.93203  0.77727  1.0000
  H   H2261     1.0  0.33277  0.92821  0.76070  1.0000
  H   H2262     1.0  0.34285  0.94003  0.72438  1.0000
  H   H2263     1.0  0.22396  0.81712  0.85156  1.0000
  C   C2810     1.0  0.35411  0.94153  0.54386  1.0000
  C   C2811     1.0  0.29095  0.88921  0.80578  1.0000
  C   C2812     1.0  0.38500  0.86784  0.95042  1.0000
  H   H2264     1.0  0.31928  0.96665  0.89624  1.0000
  H   H2265     1.0  0.24012  0.97411  0.73171  1.0000
  H   H2266     1.0  0.14401  0.78584  0.75151  1.0000
  Fe  Fe188     1.0  0.17900  0.97463  0.65183  1.0000
  Fe  Fe189     1.0  0.47089  0.98301  0.75275  1.0000
  H   H2267     1.0  0.24340  0.95515  0.96977  1.0000
  H   H2268     1.0  0.40664  0.95404  0.54040  1.0000
  C   C2813     1.0  0.32993  0.98094  0.69218  1.0000
  H   H2269     1.0  0.44340  0.86234  0.93088  1.0000
  C   C2814     1.0  0.44587  0.91962  0.88375  1.0000
  H   H2270     1.0  0.44937  0.94555  0.83590  1.0000
  H   H2271     1.0  0.24010  0.93868  0.87871  1.0000
  P   P95       1.0  0.18442  0.79769  0.74120  1.0000
  C   C2815     1.0  0.15982  0.80735  0.75555  1.0000
  C   C2816     1.0  0.35098  0.97923  0.69012  1.0000
  C   C2817     1.0  0.42707  0.86412  0.93624  1.0000
  P   P96       1.0  0.31945  0.95937  0.69362  1.0000
  C   C2818     1.0  0.49689  0.85277  0.89508  1.0000
  C   C2819     1.0  0.09270  0.96649  0.59722  1.0000
  C   C2820     1.0  0.35018  0.95701  0.89986  1.0000
  C   C2821     1.0  0.15750  0.82370  0.76463  1.0000
  C   C2822     1.0  0.13868  0.83098  0.77612  1.0000
  C   C2823     1.0  0.12205  0.82195  0.77872  1.0000
  H   H2272     1.0  0.41790  0.96555  0.89033  1.0000
  H   H2273     1.0  0.29968  0.95640  0.92742  1.0000
  C   C2824     1.0  0.18890  0.81322  0.71665  1.0000
  C   C2825     1.0  0.18137  0.83395  0.71382  1.0000
  C   C2826     1.0  0.18543  0.84600  0.69493  1.0000
  C   C2827     1.0  0.19708  0.83749  0.67873  1.0000
  C   C2828     1.0  0.20484  0.81692  0.68143  1.0000
  C   C2829     1.0  0.31199  0.88453  0.79866  1.0000
  H   H2274     1.0  0.00689  0.80152  0.89684  1.0000
  H   H2275     1.0  0.35802  0.98381  0.86456  1.0000
  Fe  Fe190     1.0  0.49015  0.97550  0.71113  1.0000
  H   H2276     1.0  0.28911  0.86506  0.85408  1.0000
  C   C2830     1.0  0.27624  0.80621  0.95852  1.0000
  S   S377      1.0  0.22224  0.97887  0.69822  1.0000
  C   C2831     1.0  0.12418  0.80574  0.76971  1.0000
  H   H2277     1.0  0.21783  0.87667  0.86087  1.0000
  H   H2278     1.0  0.36548  0.95431  0.76885  1.0000
  H   H2279     1.0  0.33414  0.94906  0.96858  1.0000
  H   H2280     1.0  0.17032  0.83067  0.76302  1.0000
  H   H2281     1.0  0.13706  0.84341  0.78329  1.0000
  H   H2282     1.0  0.10754  0.82738  0.78785  1.0000
  H   H2283     1.0  0.99956  0.82053  0.95225  1.0000
  H   H2284     1.0  0.24464  0.91309  0.90916  1.0000
  H   H2285     1.0  0.17233  0.84092  0.72609  1.0000
  H   H2286     1.0  0.17938  0.86195  0.69275  1.0000
  H   H2287     1.0  0.19995  0.84685  0.66405  1.0000
  H   H2288     1.0  0.25663  0.86646  0.87606  1.0000
  C   C2832     1.0  0.28354  0.80253  0.86682  1.0000
  C   C2833     1.0  0.06126  0.91394  0.67861  1.0000
  C   C2834     1.0  0.49065  0.91622  0.81123  1.0000
  H   H2289     1.0  0.48999  0.80187  0.94788  1.0000
  H   H2290     1.0  0.23498  0.79934  0.89094  1.0000
  C   C2835     1.0  0.36728  0.91236  0.66240  1.0000
  P   P97       1.0  0.37371  0.95779  0.83534  1.0000
  C   C2836     1.0  0.38269  0.95378  0.81002  1.0000
  C   C2837     1.0  0.38316  0.93477  0.85099  1.0000
  C   C2838     1.0  0.38194  0.91650  0.84713  1.0000
  C   C2839     1.0  0.38831  0.89849  0.85952  1.0000
  C   C2840     1.0  0.39578  0.89858  0.87600  1.0000
  C   C2841     1.0  0.39694  0.91672  0.88003  1.0000
  C   C2842     1.0  0.39095  0.93478  0.86739  1.0000
  C   C2843     1.0  0.40345  0.94643  0.80309  1.0000
  C   C2844     1.0  0.41045  0.94197  0.78403  1.0000
  C   C2845     1.0  0.39673  0.94455  0.77181  1.0000
  C   C2846     1.0  0.37605  0.95179  0.77856  1.0000
  C   C2847     1.0  0.36905  0.95643  0.79754  1.0000
  C   C2848     1.0  0.34618  0.96314  0.84138  1.0000
  H   H2291     1.0  0.33365  0.97764  0.51839  1.0000
  C   C2849     1.0  0.42368  0.98282  0.74573  1.0000
  H   H2292     1.0  0.26412  0.92781  0.81365  1.0000
  C   C2850     1.0  0.31378  0.95359  0.85878  1.0000
  C   C2851     1.0  0.33507  0.94917  0.85453  1.0000
  C   C2852     1.0  0.36565  0.96066  0.90708  1.0000
  C   C2853     1.0  0.32069  0.94334  0.49957  1.0000
  C   C2854     1.0  0.45170  0.92325  0.86284  1.0000
  H   H2293     1.0  0.37571  0.91618  0.83468  1.0000
  H   H2294     1.0  0.38699  0.88447  0.85653  1.0000
  H   H2295     1.0  0.40027  0.88459  0.88580  1.0000
  H   H2296     1.0  0.40213  0.91672  0.89319  1.0000
  H   H2297     1.0  0.39191  0.94869  0.87067  1.0000
  H   H2298     1.0  0.41430  0.94429  0.81236  1.0000
  H   H2299     1.0  0.42657  0.93693  0.77856  1.0000
  H   H2300     1.0  0.40218  0.94154  0.75686  1.0000
  H   H2301     1.0  0.05078  0.97615  0.57863  1.0000
  C   C2855     1.0  0.01870  0.84597  0.65735  1.0000
  H   H2302     1.0  0.20449  0.84544  0.86803  1.0000
  H   H2303     1.0  0.30533  0.94258  0.86863  1.0000
  H   H2304     1.0  0.34262  0.93469  0.86133  1.0000
  H   H2305     1.0  0.35298  0.96187  0.80237  1.0000
  C   C2856     1.0  0.21156  0.78778  0.92897  1.0000
  H   H2306     1.0  0.42925  0.93195  0.90971  1.0000
  Fe  Fe191     1.0  0.04281  0.79724  0.51883  1.0000
  H   H2307     1.0  0.33092  0.91552  0.70468  1.0000
  H   H2308     1.0  0.05104  0.80546  0.67079  1.0000
  H   H2309     1.0  0.37588  0.86936  0.52735  1.0000
  H   H2310     1.0  0.16438  0.91422  0.68240  1.0000
  H   H2311     1.0  0.28109  0.82003  0.95020  1.0000
  C   C2857     1.0  0.34048  0.92052  0.69049  1.0000
  H   H2312     1.0  0.41376  0.90338  0.81686  1.0000
  C   C2858     1.0  0.28621  0.96461  0.93560  1.0000
  S   S378      1.0  0.28456  0.96288  0.80234  1.0000
  S   S379      1.0  0.03226  0.81334  0.49046  1.0000
  H   H2313     1.0  0.01016  0.88157  0.60760  1.0000
  C   C2859     1.0  0.25107  0.98434  0.95802  1.0000
  H   H2314     1.0  0.07655  0.97096  0.59759  1.0000
  C   C2860     1.0  0.36576  0.91689  0.50078  1.0000
  C   C2861     1.0  0.33322  0.95286  0.50543  1.0000
  C   C2862     1.0  0.39389  0.86367  0.93142  1.0000
  C   C2863     1.0  0.13443  0.95409  0.59595  1.0000
  H   H2315     1.0  0.41599  0.80058  0.92176  1.0000
  H   H2316     1.0  0.24747  0.95472  0.79032  1.0000
  H   H2317     1.0  0.47858  0.90162  0.52488  1.0000
  H   H2318     1.0  0.35678  0.89063  0.68790  1.0000
  C   C2864     1.0  0.25045  0.88826  0.89440  1.0000
  C   C2865     1.0  0.24597  0.90855  0.89525  1.0000
  C   C2866     1.0  0.24348  0.92292  0.87810  1.0000
  C   C2867     1.0  0.24567  0.91703  0.86007  1.0000
  C   C2868     1.0  0.25061  0.89663  0.85895  1.0000
  C   C2869     1.0  0.25283  0.88231  0.87636  1.0000
  P   P98       1.0  0.25520  0.88868  0.83543  1.0000
  C   C2870     1.0  0.24501  0.86621  0.84003  1.0000
  C   C2871     1.0  0.24307  0.90814  0.81776  1.0000
  C   C2872     1.0  0.22596  0.90587  0.81193  1.0000
  C   C2873     1.0  0.21677  0.92108  0.79828  1.0000
  C   C2874     1.0  0.22450  0.93868  0.79044  1.0000
  C   C2875     1.0  0.24148  0.94104  0.79619  1.0000
  C   C2876     1.0  0.25082  0.92578  0.80960  1.0000
  C   C2877     1.0  0.25578  0.85017  0.83061  1.0000
  C   C2878     1.0  0.24806  0.83264  0.83467  1.0000
  C   C2879     1.0  0.22955  0.83099  0.84807  1.0000
  C   C2880     1.0  0.21867  0.84692  0.85741  1.0000
  C   C2881     1.0  0.22633  0.86451  0.85338  1.0000
  H   H2319     1.0  0.25702  0.80710  0.93895  1.0000
  H   H2320     1.0  0.13161  0.97763  0.61126  1.0000
  H   H2321     1.0  0.15234  0.79006  0.58175  1.0000
  H   H2322     1.0  0.36128  0.96502  0.68927  1.0000
  H   H2323     1.0  0.11135  0.79860  0.77179  1.0000
  H   H2324     1.0  0.25361  0.80407  0.74307  1.0000
  C   C2882     1.0  0.01610  0.80250  0.60918  1.0000
  C   C2883     1.0  0.20077  0.79453  0.77427  1.0000
  C   C2884     1.0  0.00249  0.80061  0.59851  1.0000
  C   C2885     1.0  0.37408  0.87681  0.49644  1.0000
  H   H2325     1.0  0.43885  0.97628  0.73871  1.0000
  C   C2886     1.0  0.20423  0.79817  0.75340  1.0000
  H   H2326     1.0  0.42803  0.86917  0.96459  1.0000
  H   H2327     1.0  0.15235  0.81088  0.95380  1.0000
  C   C2887     1.0  0.47668  0.85495  0.89380  1.0000
  C   C2888     1.0  0.29663  0.98295  0.66581  1.0000
  H   H2328     1.0  0.37726  0.86137  0.49470  1.0000
  H   H2329     1.0  0.36874  0.86906  0.95545  1.0000
  C   C2889     1.0  0.36186  0.97658  0.91689  1.0000
  H   H2330     1.0  0.11545  0.81102  0.96027  1.0000
  H   H2331     1.0  0.08079  0.98504  0.66059  1.0000
  C   C2890     1.0  0.12269  0.80957  0.97254  1.0000
  C   C2891     1.0  0.32677  0.98490  0.91297  1.0000
  C   C2892     1.0  0.00959  0.78515  0.67566  1.0000
  H   H2332     1.0  0.54552  0.13578  0.08605  1.0000
  C   C2893     1.0  0.50812  0.08046  0.03910  1.0000
  Fe  Fe192     1.0  0.73282  0.05743  0.41322  1.0000
  S   S380      1.0  0.76415  0.05343  0.41879  1.0000
  S   S381      1.0  0.71461  0.03275  0.42229  1.0000
  Fe  Fe193     1.0  0.73032  0.10178  0.39596  1.0000
  S   S382      1.0  0.76143  0.10146  0.39976  1.0000
  S   S383      1.0  0.71072  0.13035  0.38347  1.0000
  Fe  Fe194     1.0  0.77061  0.07273  0.38859  1.0000
  S   S384      1.0  0.80156  0.06611  0.36890  1.0000
  Fe  Fe195     1.0  0.75263  0.08228  0.42959  1.0000
  S   S385      1.0  0.76195  0.08844  0.45532  1.0000
  S   S386      1.0  0.74013  0.07458  0.38185  1.0000
  S   S387      1.0  0.72052  0.08493  0.42680  1.0000
  Fe  Fe196     1.0  0.53165  0.09631  0.19856  1.0000
  S   S388      1.0  0.51250  0.12635  0.18935  1.0000
  S   S389      1.0  0.51295  0.07583  0.22126  1.0000
  Fe  Fe197     1.0  0.57024  0.10899  0.17315  1.0000
  S   S390      1.0  0.55385  0.13967  0.16180  1.0000
  S   S391      1.0  0.60430  0.10512  0.16597  1.0000
  Fe  Fe198     1.0  0.53749  0.13918  0.19353  1.0000
  S   S392      1.0  0.53144  0.16668  0.20733  1.0000
  Fe  Fe199     1.0  0.53066  0.12374  0.15874  1.0000
  C   C2894     1.0  0.50819  0.13177  0.26328  1.0000
  S   S393      1.0  0.55512  0.10938  0.20518  1.0000
  S   S394      1.0  0.54845  0.09283  0.16753  1.0000
  H   H2333     1.0  0.79852  0.02824  0.07116  1.0000
  H   H2334     1.0  0.78064  0.02828  0.13822  1.0000
  C   C2895     1.0  0.55109  0.01307  0.11706  1.0000
  Fe  Fe200     1.0  0.83215  0.99283  0.03256  1.0000
  C   C2896     1.0  0.89926  0.06530  0.01856  1.0000
  H   H2335     1.0  0.65910  0.11186  0.34771  1.0000
  H   H2336     1.0  0.79329  0.10077  0.41799  1.0000
  C   C2897     1.0  0.74607  0.13086  0.03821  1.0000
  H   H2337     1.0  0.84886  0.00251  0.36171  1.0000
  H   H2338     1.0  0.77969  0.99368  0.44859  1.0000
  H   H2339     1.0  0.68317  0.07099  0.39579  1.0000
  C   C2898     1.0  0.79726  0.00936  0.37075  1.0000
  H   H2340     1.0  0.80033  0.16796  0.30891  1.0000
  C   C2899     1.0  0.66981  0.11389  0.46217  1.0000
  C   C2900     1.0  0.86577  0.02552  0.41813  1.0000
  S   S395      1.0  0.58462  0.17280  0.26630  1.0000
  C   C2901     1.0  0.67513  0.17060  0.44740  1.0000
  H   H2341     1.0  0.75347  0.13843  0.04513  1.0000
  C   C2902     1.0  0.71041  0.04266  0.46795  1.0000
  H   H2342     1.0  0.82255  0.01438  0.46917  1.0000
  C   C2903     1.0  0.98495  0.02447  0.18001  1.0000
  Fe  Fe201     1.0  0.65333  0.02990  0.09662  1.0000
  C   C2904     1.0  0.84458  0.00442  0.18177  1.0000
  C   C2905     1.0  0.56498  0.01584  0.05745  1.0000
  H   H2343     1.0  0.66609  0.14186  0.08683  1.0000
  S   S396      1.0  0.82788  0.02637  0.02318  1.0000
  S   S397      1.0  0.62596  0.18287  0.98414  1.0000
  H   H2344     1.0  0.68781  0.12818  0.05792  1.0000
  H   H2345     1.0  0.68723  0.06794  0.46013  1.0000
  S   S398      1.0  0.51580  0.13554  0.13214  1.0000
  H   H2346     1.0  0.83142  0.99228  0.26679  1.0000
  H   H2347     1.0  0.80383  0.06666  0.43582  1.0000
  H   H2348     1.0  0.77023  0.01840  0.99246  1.0000
  H   H2349     1.0  0.56748  0.00157  0.05309  1.0000
  C   C2906     1.0  0.50031  0.09065  0.05492  1.0000
  H   H2350     1.0  0.55819  0.13473  0.32120  1.0000
  Fe  Fe202     1.0  0.62644  0.03428  0.06775  1.0000
  H   H2351     1.0  0.98651  0.13414  0.31534  1.0000
  C   C2907     1.0  0.54882  0.15719  0.05840  1.0000
  C   C2908     1.0  0.87423  0.03691  0.03421  1.0000
  C   C2909     1.0  0.81443  0.07307  0.42311  1.0000
  C   C2910     1.0  0.82340  0.00987  0.18423  1.0000
  C   C2911     1.0  0.52245  0.16502  0.98114  1.0000
  C   C2912     1.0  0.66208  0.10905  0.36252  1.0000
  Fe  Fe203     1.0  0.95338  0.99444  0.17120  1.0000
  C   C2913     1.0  0.51696  0.00874  0.20233  1.0000
  C   C2914     1.0  0.77350  0.01532  0.14408  1.0000
  C   C2915     1.0  0.90263  0.02030  0.40693  1.0000
  C   C2916     1.0  0.66577  0.15046  0.07195  1.0000
  C   C2917     1.0  0.81364  0.00641  0.17070  1.0000
  H   H2352     1.0  0.67517  0.11112  0.03884  1.0000
  H   H2353     1.0  0.51457  0.09239  0.13740  1.0000
  H   H2354     1.0  0.86456  0.02583  0.04011  1.0000
  H   H2355     1.0  0.59532  0.15137  0.31088  1.0000
  H   H2356     1.0  0.54074  0.99565  0.10213  1.0000
  H   H2357     1.0  0.87117  0.01540  0.45748  1.0000
  C   C2918     1.0  0.50705  0.11140  0.26753  1.0000
  H   H2358     1.0  0.55612  0.06755  0.07187  1.0000
  C   C2919     1.0  0.70054  0.16383  0.99360  1.0000
  C   C2920     1.0  0.84275  0.11029  0.97687  1.0000
  C   C2921     1.0  0.61966  0.08618  0.15355  1.0000
  C   C2922     1.0  0.64029  0.08119  0.15430  1.0000
  C   C2923     1.0  0.65358  0.06713  0.14369  1.0000
  C   C2924     1.0  0.83420  0.06236  0.41735  1.0000
  C   C2925     1.0  0.62572  0.06291  0.13131  1.0000
  C   C2926     1.0  0.61223  0.07686  0.14226  1.0000
  H   H2359     1.0  0.64605  0.08831  0.16306  1.0000
  H   H2360     1.0  0.66955  0.06351  0.14424  1.0000
  C   C2927     1.0  0.83315  0.01010  0.36422  1.0000
  H   H2361     1.0  0.59626  0.08064  0.14169  1.0000
  H   H2362     1.0  0.78234  0.04585  0.00370  1.0000
  C   C2928     1.0  0.54648  0.16800  0.22365  1.0000
  C   C2929     1.0  0.56151  0.15192  0.22961  1.0000
  C   C2930     1.0  0.57308  0.15357  0.24265  1.0000
  C   C2931     1.0  0.90317  0.05009  0.03484  1.0000
  H   H2363     1.0  0.56428  0.13820  0.22418  1.0000
  H   H2364     1.0  0.58468  0.14105  0.24712  1.0000
  C   C2932     1.0  0.80784  0.04054  0.36799  1.0000
  C   C2933     1.0  0.82826  0.03075  0.36428  1.0000
  C   C2934     1.0  0.79237  0.02980  0.37132  1.0000
  H   H2365     1.0  0.84022  0.03904  0.36190  1.0000
  H   H2366     1.0  0.77658  0.03726  0.37418  1.0000
  C   C2935     1.0  0.83093  0.03388  0.99731  1.0000
  C   C2936     1.0  0.88348  0.00067  0.39781  1.0000
  C   C2937     1.0  0.70344  0.17047  0.38346  1.0000
  C   C2938     1.0  0.71271  0.15125  0.39177  1.0000
  C   C2939     1.0  0.72315  0.14886  0.40690  1.0000
  C   C2940     1.0  0.49992  0.02145  0.21115  1.0000
  C   C2941     1.0  0.54842  0.12589  0.04065  1.0000
  H   H2367     1.0  0.69568  0.17243  0.37150  1.0000
  H   H2368     1.0  0.73015  0.13409  0.41355  1.0000
  C   C2942     1.0  0.59072  0.17627  0.11255  1.0000
  C   C2943     1.0  0.54710  0.12254  0.06118  1.0000
  C   C2944     1.0  0.54961  0.14498  0.02901  1.0000
  H   H2369     1.0  0.50090  0.16054  0.24453  1.0000
  H   H2370     1.0  0.52002  0.14047  0.00584  1.0000
  H   H2371     1.0  0.52693  0.99842  0.21139  1.0000
  C   C2945     1.0  0.76793  0.04026  0.03458  1.0000
  C   C2946     1.0  0.54539  0.01871  0.22797  1.0000
  C   C2947     1.0  0.53926  0.03914  0.21993  1.0000
  C   C2948     1.0  0.52324  0.05102  0.23101  1.0000
  C   C2949     1.0  0.80853  0.02568  0.08142  1.0000
  S   S399      1.0  0.70116  0.01124  0.03489  1.0000
  S   S400      1.0  0.91941  0.00384  0.17441  1.0000
  H   H2372     1.0  0.54641  0.04547  0.20500  1.0000
  C   C2950     1.0  0.74175  0.99895  0.03617  1.0000
  C   C2951     1.0  0.70281  0.11212  0.46879  1.0000
  H   H2373     1.0  0.93626  0.98828  0.31018  1.0000
  C   C2952     1.0  0.76787  0.04655  0.01430  1.0000
  C   C2953     1.0  0.75031  0.00552  0.41485  1.0000
  C   C2954     1.0  0.72945  0.00837  0.42308  1.0000
  C   C2955     1.0  0.63416  0.16412  0.38058  1.0000
  C   C2956     1.0  0.82238  0.12011  0.97983  1.0000
  C   C2957     1.0  0.54719  0.13823  0.07004  1.0000
  H   H2374     1.0  0.75738  0.01828  0.40766  1.0000
  C   C2958     1.0  0.87017  0.05220  0.01809  1.0000
  H   H2375     1.0  0.60146  0.12564  0.12600  1.0000
  H   H2376     1.0  0.62017  0.05577  0.12245  1.0000
  H   H2377     1.0  0.54587  0.10783  0.07026  1.0000
  H   H2378     1.0  0.54819  0.11370  0.03385  1.0000
  C   C2959     1.0  0.83690  0.01953  0.98528  1.0000
  H   H2379     1.0  0.88311  0.98874  0.39076  1.0000
  C   C2960     1.0  0.82262  0.02414  0.43762  1.0000
  C   C2961     1.0  0.89265  0.10491  0.98442  1.0000
  C   C2962     1.0  0.58128  0.99730  0.13028  1.0000
  H   H2380     1.0  0.85140  0.00608  0.40880  1.0000
  H   H2381     1.0  0.53055  0.16667  0.28318  1.0000
  C   C2963     1.0  0.67090  0.08969  0.37086  1.0000
  C   C2964     1.0  0.61870  0.13639  0.35045  1.0000
  C   C2965     1.0  0.50176  0.16367  0.30349  1.0000
  H   H2382     1.0  0.67443  0.07770  0.36265  1.0000
  S   S401      1.0  0.65523  0.04522  0.06471  1.0000
  H   H2383     1.0  0.71682  0.04845  0.05319  1.0000
  C   C2966     1.0  0.50805  0.02219  0.17026  1.0000
  H   H2384     1.0  0.83303  0.17443  0.28706  1.0000
  C   C2967     1.0  0.51629  0.17442  0.29090  1.0000
  H   H2385     1.0  0.51107  0.02230  0.15446  1.0000
  C   C2968     1.0  0.92183  0.99767  0.31524  1.0000
  H   H2386     1.0  0.50109  0.08281  0.07002  1.0000
  C   C2969     1.0  0.67579  0.08588  0.38956  1.0000
  C   C2970     1.0  0.76914  0.06669  0.47243  1.0000
  H   H2387     1.0  0.62128  0.16377  0.22026  1.0000
  H   H2388     1.0  0.85219  0.00702  0.19226  1.0000
  H   H2389     1.0  0.85282  0.03675  0.08392  1.0000
  C   C2971     1.0  0.99471  0.16228  0.29913  1.0000
  C   C2972     1.0  0.84635  0.99204  0.15224  1.0000
  H   H2390     1.0  0.88857  0.15353  0.98767  1.0000
  C   C2973     1.0  0.52106  0.00912  0.18192  1.0000
  C   C2974     1.0  0.57207  0.17404  0.98838  1.0000
  H   H2391     1.0  0.91165  0.00048  0.28851  1.0000
  H   H2392     1.0  0.51154  0.14389  0.37737  1.0000
  H   H2393     1.0  0.55744  0.00937  0.21930  1.0000
  C   C2975     1.0  0.85243  0.99294  0.31235  1.0000
  C   C2976     1.0  0.68368  0.12653  0.00846  1.0000
  C   C2977     1.0  0.81783  0.00919  0.11319  1.0000
  H   H2394     1.0  0.97311  0.00435  0.20628  1.0000
  C   C2978     1.0  0.67814  0.14281  0.05545  1.0000
  C   C2979     1.0  0.88381  0.12385  0.98919  1.0000
  H   H2395     1.0  0.98304  0.16562  0.29052  1.0000
  C   C2980     1.0  0.75821  0.98775  0.04481  1.0000
  H   H2396     1.0  0.86786  0.12739  0.99613  1.0000
  S   S402      1.0  0.52446  0.01476  0.06481  1.0000
  C   C2981     1.0  0.57853  0.04329  0.06101  1.0000
  C   C2982     1.0  0.74513  0.10157  0.02651  1.0000
  H   H2397     1.0  0.75190  0.08646  0.02429  1.0000
  H   H2398     1.0  0.92319  0.99290  0.03631  1.0000
  C   C2983     1.0  0.66730  0.09759  0.01857  1.0000
  C   C2984     1.0  0.82597  0.03407  0.07554  1.0000
  H   H2399     1.0  0.83954  0.00378  0.99189  1.0000
  H   H2400     1.0  0.51518  0.06473  0.04188  1.0000
  H   H2401     1.0  0.77774  0.15779  0.38387  1.0000
  C   C2985     1.0  0.64443  0.17322  0.38957  1.0000
  C   C2986     1.0  0.55217  0.99583  0.10995  1.0000
  P   P99       1.0  0.74953  0.06025  0.98147  1.0000
  H   H2402     1.0  0.75600  0.04788  0.46153  1.0000
  C   C2987     1.0  0.77432  0.15717  0.34665  1.0000
  H   H2403     1.0  0.59565  0.12603  0.34229  1.0000
  C   C2988     1.0  0.67816  0.15406  0.03606  1.0000
  H   H2404     1.0  0.72144  0.15586  0.03426  1.0000
  C   C2989     1.0  0.99677  0.03941  0.17248  1.0000
  C   C2990     1.0  0.70231  0.17963  0.32410  1.0000
  C   C2991     1.0  0.85603  0.99555  0.16574  1.0000
  C   C2992     1.0  0.75633  0.15142  0.34648  1.0000
  C   C2993     1.0  0.75610  0.13126  0.34787  1.0000
  C   C2994     1.0  0.77364  0.11671  0.34976  1.0000
  C   C2995     1.0  0.79142  0.12224  0.35057  1.0000
  C   C2996     1.0  0.79182  0.14239  0.34895  1.0000
  Fe  Fe204     1.0  0.67169  0.01521  0.05773  1.0000
  H   H2405     1.0  0.67456  0.01328  0.15340  1.0000
  C   C2997     1.0  0.50067  0.12245  0.12527  1.0000
  H   H2406     1.0  0.73315  0.15796  0.99224  1.0000
  C   C2998     1.0  0.71444  0.04503  0.98672  1.0000
  H   H2407     1.0  0.59697  0.01690  0.05073  1.0000
  C   C2999     1.0  0.68200  0.99815  0.15159  1.0000
  H   H2408     1.0  0.87715  0.04617  0.98135  1.0000
  C   C3000     1.0  0.98218  0.01584  0.20030  1.0000
  H   H2409     1.0  0.80835  0.10379  0.02973  1.0000
  S   S403      1.0  0.97400  0.01724  0.16342  1.0000
  C   C3001     1.0  0.54195  0.04406  0.06998  1.0000
  H   H2410     1.0  0.91611  0.99687  0.39000  1.0000
  H   H2411     1.0  0.89379  0.02404  0.05519  1.0000
  C   C3002     1.0  0.75470  0.11133  0.03539  1.0000
  C   C3003     1.0  0.50658  0.09050  0.01977  1.0000
  H   H2412     1.0  0.74239  0.16236  0.34555  1.0000
  H   H2413     1.0  0.74215  0.12678  0.34800  1.0000
  H   H2414     1.0  0.77328  0.10106  0.35121  1.0000
  H   H2415     1.0  0.80474  0.11076  0.35280  1.0000
  H   H2416     1.0  0.80570  0.14643  0.34967  1.0000
  C   C3004     1.0  0.61826  0.16481  0.31514  1.0000
  H   H2417     1.0  0.61144  0.16080  0.18995  1.0000
  H   H2418     1.0  0.52667  0.05153  0.07555  1.0000
  H   H2419     1.0  0.85718  0.05289  0.01195  1.0000
  C   C3005     1.0  0.63369  0.18394  0.40454  1.0000
  C   C3006     1.0  0.80986  0.11753  0.99881  1.0000
  C   C3007     1.0  0.68401  0.12671  0.98848  1.0000
  H   H2420     1.0  0.53419  0.99912  0.17520  1.0000
  H   H2421     1.0  0.88490  0.00732  0.09505  1.0000
  H   H2422     1.0  0.60459  0.15913  0.38019  1.0000
  H   H2423     1.0  0.76876  0.10369  0.04013  1.0000
  C   C3008     1.0  0.67171  0.10141  0.39997  1.0000
  C   C3009     1.0  0.74936  0.05312  0.00781  1.0000
  C   C3010     1.0  0.72690  0.11127  0.02048  1.0000
  C   C3011     1.0  0.72057  0.16715  0.98586  1.0000
  H   H2424     1.0  0.84436  0.08717  0.02485  1.0000
  C   C3012     1.0  0.55862  0.05307  0.06796  1.0000
  C   C3013     1.0  0.50066  0.11760  0.37721  1.0000
  C   C3014     1.0  0.88275  0.06642  0.00994  1.0000
  C   C3015     1.0  0.73098  0.05466  0.02205  1.0000
  H   H2425     1.0  0.74435  0.01027  0.02291  1.0000
  C   C3016     1.0  0.72438  0.16560  0.41366  1.0000
  H   H2426     1.0  0.92794  0.99663  0.34382  1.0000
  C   C3017     1.0  0.66966  0.16151  0.34716  1.0000
  C   C3018     1.0  0.69032  0.05262  0.46802  1.0000
  C   C3019     1.0  0.68890  0.14977  0.34137  1.0000
  H   H2427     1.0  0.71976  0.10332  0.01376  1.0000
  C   C3020     1.0  0.89549  0.13870  0.98455  1.0000
  C   C3021     1.0  0.80449  0.01325  0.10010  1.0000
  H   H2428     1.0  0.54858  0.16923  0.06558  1.0000
  C   C3022     1.0  0.66548  0.17309  0.03363  1.0000
  C   C3023     1.0  0.60566  0.13673  0.33813  1.0000
  H   H2429     1.0  0.79724  0.01069  0.17296  1.0000
  H   H2430     1.0  0.66085  0.08623  0.03014  1.0000
  C   C3024     1.0  0.54508  0.02562  0.06428  1.0000
  C   C3025     1.0  0.72791  0.14066  0.03209  1.0000
  C   C3026     1.0  0.56560  0.01378  0.12728  1.0000
  C   C3027     1.0  0.67579  0.11260  0.98373  1.0000
  C   C3028     1.0  0.68803  0.17265  0.45879  1.0000
  H   H2431     1.0  0.71993  0.14969  0.32555  1.0000
  H   H2432     1.0  0.71649  0.06034  0.01761  1.0000
  S   S404      1.0  0.64305  0.00588  0.05721  1.0000
  C   C3029     1.0  0.51407  0.04275  0.25026  1.0000
  C   C3030     1.0  0.83516  0.01803  0.10725  1.0000
  C   C3031     1.0  0.71824  0.13098  0.02306  1.0000
  H   H2433     1.0  0.71977  0.03397  0.99881  1.0000
  H   H2434     1.0  0.69070  0.13752  0.97642  1.0000
  H   H2435     1.0  0.52777  0.16220  0.44472  1.0000
  H   H2436     1.0  0.84580  0.01535  0.11681  1.0000
  H   H2437     1.0  0.50498  0.14752  0.30555  1.0000
  C   C3032     1.0  0.69573  0.04496  0.98268  1.0000
  C   C3033     1.0  0.68945  0.11804  0.45575  1.0000
  H   H2438     1.0  0.50548  0.16253  0.07788  1.0000
  H   H2439     1.0  0.85777  0.99313  0.32537  1.0000
  H   H2440     1.0  0.51970  0.18119  0.41238  1.0000
  H   H2441     1.0  0.69442  0.12566  0.44058  1.0000
  C   C3034     1.0  0.90210  0.00532  0.39734  1.0000
  C   C3035     1.0  0.73109  0.04829  0.04234  1.0000
  S   S405      1.0  0.90585  0.99567  0.12725  1.0000
  C   C3036     1.0  0.64646  0.05831  0.13183  1.0000
  H   H2442     1.0  0.82933  0.04321  0.06081  1.0000
  C   C3037     1.0  0.61295  0.16584  0.38691  1.0000
  C   C3038     1.0  0.68492  0.17570  0.98415  1.0000
  H   H2443     1.0  0.91586  0.04937  0.04147  1.0000
  H   H2444     1.0  0.72386  0.10060  0.97745  1.0000
  C   C3039     1.0  0.81760  0.99940  0.36741  1.0000
  C   C3040     1.0  0.75223  0.01808  0.14940  1.0000
  H   H2445     1.0  0.78518  0.00119  0.37309  1.0000
  C   C3041     1.0  0.53396  0.17553  0.43742  1.0000
  C   C3042     1.0  0.81789  0.10552  0.01494  1.0000
  P   P100      1.0  0.69496  0.14412  0.01493  1.0000
  C   C3043     1.0  0.82770  0.05429  0.98862  1.0000
  C   C3044     1.0  0.56999  0.17141  0.24960  1.0000
  C   C3045     1.0  0.49896  0.06143  0.30271  1.0000
  C   C3046     1.0  0.66697  0.18238  0.34122  1.0000
  H   H2446     1.0  0.69484  0.00694  0.12046  1.0000
  H   H2447     1.0  0.66071  0.13268  0.39967  1.0000
  H   H2448     1.0  0.78229  0.03445  0.03934  1.0000
  H   H2449     1.0  0.51603  0.13764  0.27123  1.0000
  P   P101      1.0  0.51923  0.09365  0.28616  1.0000
  H   H2450     1.0  0.66109  0.08716  0.99498  1.0000
  C   C3047     1.0  0.53187  0.10587  0.29783  1.0000
  C   C3048     1.0  0.52662  0.10554  0.31840  1.0000
  C   C3049     1.0  0.53614  0.11589  0.32677  1.0000
  C   C3050     1.0  0.55105  0.12645  0.31477  1.0000
  C   C3051     1.0  0.55688  0.12623  0.29445  1.0000
  C   C3052     1.0  0.54751  0.11582  0.28602  1.0000
  C   C3053     1.0  0.61300  0.17670  0.21174  1.0000
  H   H2451     1.0  0.99303  0.99052  0.28323  1.0000
  H   H2452     1.0  0.87249  0.99143  0.16373  1.0000
  H   H2453     1.0  0.66077  0.17201  0.38505  1.0000
  H   H2454     1.0  0.73254  0.16364  0.42533  1.0000
  C   C3054     1.0  0.53922  0.07539  0.27492  1.0000
  C   C3055     1.0  0.54935  0.05919  0.28708  1.0000
  C   C3056     1.0  0.56424  0.04445  0.27863  1.0000
  C   C3057     1.0  0.56943  0.04604  0.25798  1.0000
  C   C3058     1.0  0.55993  0.06249  0.24578  1.0000
  C   C3059     1.0  0.54483  0.07707  0.25419  1.0000
  H   H2455     1.0  0.58043  0.16190  0.99760  1.0000
  C   C3060     1.0  0.78543  0.99594  0.14591  1.0000
  C   C3061     1.0  0.67536  0.11177  0.02343  1.0000
  H   H2456     1.0  0.90910  0.07615  0.01288  1.0000
  C   C3062     1.0  0.65305  0.18060  0.05019  1.0000
  C   C3063     1.0  0.88565  0.99141  0.10033  1.0000
  H   H2457     1.0  0.53197  0.11577  0.34258  1.0000
  H   H2458     1.0  0.56860  0.13427  0.28517  1.0000
  H   H2459     1.0  0.55218  0.11590  0.27017  1.0000
  C   C3064     1.0  0.77226  0.17795  0.40374  1.0000
  C   C3065     1.0  0.83458  0.05676  0.46498  1.0000
  H   H2460     1.0  0.51533  0.09730  0.32807  1.0000
  H   H2461     1.0  0.88519  0.04198  0.42462  1.0000
  S   S406      1.0  0.66433  0.04246  0.11722  1.0000
  H   H2462     1.0  0.54538  0.05772  0.30311  1.0000
  H   H2463     1.0  0.57162  0.03166  0.28805  1.0000
  H   H2464     1.0  0.58066  0.03446  0.25139  1.0000
  H   H2465     1.0  0.56387  0.06368  0.22975  1.0000
  H   H2466     1.0  0.53739  0.08938  0.24443  1.0000
  S   S407      1.0  0.59926  0.05518  0.05732  1.0000
  S   S408      1.0  0.62345  0.02095  0.10035  1.0000
  H   H2467     1.0  0.77330  0.99074  0.03827  1.0000
  H   H2468     1.0  0.50843  0.10810  0.38862  1.0000
  C   C3066     1.0  0.85698  0.00665  0.29453  1.0000
  H   H2469     1.0  0.72279  0.05024  0.45988  1.0000
  P   P102      1.0  0.87054  0.02597  0.29339  1.0000
  C   C3067     1.0  0.85260  0.04698  0.30224  1.0000
  C   C3068     1.0  0.88870  0.01640  0.30944  1.0000
  C   C3069     1.0  0.88391  0.02058  0.32871  1.0000
  C   C3070     1.0  0.89816  0.01380  0.34089  1.0000
  C   C3071     1.0  0.91711  0.00231  0.33419  1.0000
  H   H2470     1.0  0.51264  0.08255  0.00753  1.0000
  C   C3072     1.0  0.90770  0.00464  0.30293  1.0000
  C   C3073     1.0  0.83161  0.04690  0.30762  1.0000
  C   C3074     1.0  0.81802  0.06237  0.31606  1.0000
  C   C3075     1.0  0.82521  0.07805  0.31913  1.0000
  C   C3076     1.0  0.84604  0.07826  0.31388  1.0000
  C   C3077     1.0  0.85971  0.06274  0.30557  1.0000
  C   C3078     1.0  0.88439  0.03275  0.26805  1.0000
  C   C3079     1.0  0.88577  0.05272  0.25920  1.0000
  C   C3080     1.0  0.89681  0.05746  0.23969  1.0000
  C   C3081     1.0  0.90636  0.04236  0.22880  1.0000
  C   C3082     1.0  0.90484  0.02252  0.23738  1.0000
  C   C3083     1.0  0.89398  0.01775  0.25690  1.0000
  H   H2471     1.0  0.68054  0.99131  0.47059  1.0000
  C   C3084     1.0  0.82506  0.99737  0.15461  1.0000
  H   H2472     1.0  0.79404  0.12505  0.00101  1.0000
  H   H2473     1.0  0.85171  0.01736  0.26452  1.0000
  H   H2474     1.0  0.68035  0.17173  0.43146  1.0000
  H   H2475     1.0  0.86911  0.02889  0.33451  1.0000
  H   H2476     1.0  0.89428  0.01708  0.35572  1.0000
  H   H2477     1.0  0.79509  0.99571  0.47606  1.0000
  C   C3085     1.0  0.77465  0.17335  0.38505  1.0000
  C   C3086     1.0  0.82651  0.18183  0.29965  1.0000
  H   H2478     1.0  0.82562  0.03468  0.30595  1.0000
  H   H2479     1.0  0.80195  0.06183  0.32091  1.0000
  H   H2480     1.0  0.81463  0.08967  0.32617  1.0000
  H   H2481     1.0  0.85162  0.09018  0.31673  1.0000
  H   H2482     1.0  0.87589  0.06270  0.30225  1.0000
  H   H2483     1.0  0.87839  0.06472  0.26716  1.0000
  H   H2484     1.0  0.89797  0.07285  0.23297  1.0000
  H   H2485     1.0  0.91493  0.04599  0.21369  1.0000
  H   H2486     1.0  0.91201  0.01079  0.22888  1.0000
  H   H2487     1.0  0.89299  0.00231  0.26332  1.0000
  H   H2488     1.0  0.72623  0.00366  0.16041  1.0000
  C   C3087     1.0  0.72032  0.99162  0.43179  1.0000
  H   H2489     1.0  0.59171  0.15581  0.14065  1.0000
  C   C3088     1.0  0.83836  0.09592  0.01206  1.0000
  P   P103      1.0  0.64823  0.15010  0.36134  1.0000
  C   C3089     1.0  0.89071  0.03586  0.04262  1.0000
  C   C3090     1.0  0.60226  0.17640  0.40204  1.0000
  C   C3091     1.0  0.51187  0.15410  0.99823  1.0000
  H   H2490     1.0  0.51265  0.01625  0.27304  1.0000
  H   H2491     1.0  0.82308  0.06542  0.99792  1.0000
  C   C3092     1.0  0.83720  0.99251  0.27954  1.0000
  H   H2492     1.0  0.70319  0.17521  0.45147  1.0000
  C   C3093     1.0  0.53545  0.01033  0.24699  1.0000
  C   C3094     1.0  0.84721  0.07074  0.40024  1.0000
  C   C3095     1.0  0.84063  0.08973  0.38942  1.0000
  C   C3096     1.0  0.82120  0.10060  0.39578  1.0000
  C   C3097     1.0  0.81362  0.02326  0.42231  1.0000
  C   C3098     1.0  0.79863  0.01183  0.42621  1.0000
  C   C3099     1.0  0.79175  0.00204  0.44558  1.0000
  H   H2493     1.0  0.54887  0.17442  0.46091  1.0000
  C   C3100     1.0  0.81596  0.01394  0.45701  1.0000
  H   H2494     1.0  0.86235  0.06269  0.39511  1.0000
  H   H2495     1.0  0.85062  0.09600  0.37612  1.0000
  H   H2496     1.0  0.81609  0.11535  0.38753  1.0000
  H   H2497     1.0  0.81835  0.03123  0.40728  1.0000
  C   C3101     1.0  0.63175  0.15023  0.34512  1.0000
  C   C3102     1.0  0.59329  0.17804  0.09201  1.0000
  C   C3103     1.0  0.99093  0.02238  0.21292  1.0000
  C   C3104     1.0  0.60325  0.12207  0.02882  1.0000
  C   C3105     1.0  0.61695  0.13400  0.01674  1.0000
  C   C3106     1.0  0.62882  0.14149  0.02533  1.0000
  C   C3107     1.0  0.62702  0.13709  0.04597  1.0000
  C   C3108     1.0  0.61304  0.12543  0.05826  1.0000
  C   C3109     1.0  0.60125  0.11781  0.04950  1.0000
  P   P104      1.0  0.61156  0.11947  0.08488  1.0000
  C   C3110     1.0  0.59404  0.10257  0.09657  1.0000
  C   C3111     1.0  0.63695  0.10692  0.08828  1.0000
  C   C3112     1.0  0.64512  0.10982  0.10335  1.0000
  C   C3113     1.0  0.66508  0.10066  0.10507  1.0000
  C   C3114     1.0  0.67700  0.08829  0.09200  1.0000
  C   C3115     1.0  0.66902  0.08518  0.07707  1.0000
  C   C3116     1.0  0.64909  0.09439  0.07523  1.0000
  C   C3117     1.0  0.57459  0.10951  0.10739  1.0000
  C   C3118     1.0  0.56071  0.09671  0.11553  1.0000
  C   C3119     1.0  0.56596  0.07691  0.11297  1.0000
  C   C3120     1.0  0.58520  0.06988  0.10221  1.0000
  C   C3121     1.0  0.59922  0.08262  0.09398  1.0000
  C   C3122     1.0  0.60316  0.14183  0.09559  1.0000
  C   C3123     1.0  0.59943  0.16090  0.08358  1.0000
  C   C3124     1.0  0.80802  0.17814  0.31212  1.0000
  C   C3125     1.0  0.59391  0.15735  0.12467  1.0000
  C   C3126     1.0  0.59973  0.14022  0.11628  1.0000
  H   H2498     1.0  0.61847  0.13743  0.00070  1.0000
  H   H2499     1.0  0.63945  0.15070  0.01590  1.0000
  H   H2500     1.0  0.63647  0.14280  0.05240  1.0000
  H   H2501     1.0  0.59073  0.10830  0.05846  1.0000
  H   H2502     1.0  0.63627  0.11878  0.11411  1.0000
  H   H2503     1.0  0.67097  0.10245  0.11717  1.0000
  H   H2504     1.0  0.69208  0.08040  0.09401  1.0000
  H   H2505     1.0  0.67807  0.07503  0.06739  1.0000
  H   H2506     1.0  0.64301  0.09147  0.06382  1.0000
  H   H2507     1.0  0.56982  0.12482  0.10952  1.0000
  H   H2508     1.0  0.54587  0.10217  0.12390  1.0000
  H   H2509     1.0  0.55510  0.06706  0.11926  1.0000
  H   H2510     1.0  0.58915  0.05457  0.10003  1.0000
  H   H2511     1.0  0.61393  0.07682  0.08547  1.0000
  H   H2512     1.0  0.60094  0.16261  0.06778  1.0000
  H   H2513     1.0  0.59429  0.11592  0.02216  1.0000
  C   C3127     1.0  0.52018  0.02256  0.25826  1.0000
  H   H2514     1.0  0.98855  0.01581  0.22862  1.0000
  C   C3128     1.0  0.66744  0.09807  0.99873  1.0000
  C   C3129     1.0  0.63135  0.16448  0.32736  1.0000
  C   C3130     1.0  0.83921  0.03034  0.08849  1.0000
  H   H2515     1.0  0.54991  0.14740  0.01330  1.0000
  C   C3131     1.0  0.60544  0.15095  0.32048  1.0000
  C   C3132     1.0  0.86204  0.02790  0.46415  1.0000
  H   H2516     1.0  0.79213  0.01093  0.41418  1.0000
  C   C3133     1.0  0.54995  0.16076  0.03779  1.0000
  H   H2517     1.0  0.91710  0.02370  0.40682  1.0000
  C   C3134     1.0  0.80823  0.09234  0.41276  1.0000
  C   C3135     1.0  0.88453  0.03049  0.41714  1.0000
  C   C3136     1.0  0.74955  0.04090  0.04859  1.0000
  H   H2518     1.0  0.74958  0.03537  0.06427  1.0000
  H   H2519     1.0  0.82230  0.06705  0.45899  1.0000
  H   H2520     1.0  0.50691  0.14590  0.05052  1.0000
  C   C3137     1.0  0.65313  0.16927  0.06933  1.0000
  S   S409      1.0  0.67191  0.00080  0.08943  1.0000
  P   P105      1.0  0.87746  0.08603  0.98883  1.0000
  P   P106      1.0  0.84256  0.03826  0.43211  1.0000
  C   C3138     1.0  0.60736  0.17504  0.19474  1.0000
  H   H2521     1.0  0.53901  0.02588  0.11454  1.0000
  C   C3139     1.0  0.74273  0.00153  0.15660  1.0000
  H   H2522     1.0  0.69159  0.13365  0.34584  1.0000
  C   C3140     1.0  0.65786  0.12475  0.37294  1.0000
  C   C3141     1.0  0.58168  0.02447  0.05616  1.0000
  C   C3142     1.0  0.85082  0.09779  0.99288  1.0000
  C   C3143     1.0  0.99652  0.14450  0.31330  1.0000
  H   H2523     1.0  0.79115  0.00647  0.10408  1.0000
  C   C3144     1.0  0.66281  0.12077  0.39172  1.0000
  C   C3145     1.0  0.84894  0.00657  0.27825  1.0000
  C   C3146     1.0  0.84704  0.04159  0.45508  1.0000
  H   H2524     1.0  0.65952  0.11842  0.45198  1.0000
  H   H2525     1.0  0.50199  0.05198  0.25893  1.0000
  C   C3147     1.0  0.65554  0.16718  0.45653  1.0000
  C   C3148     1.0  0.72186  0.99604  0.04508  1.0000
  H   H2526     1.0  0.56476  0.02708  0.13284  1.0000
  C   C3149     1.0  0.76375  0.04874  0.47256  1.0000
  C   C3150     1.0  0.50244  0.13768  0.37090  1.0000
  H   H2527     1.0  0.64090  0.17557  0.32283  1.0000
  C   C3151     1.0  0.86541  0.01058  0.40824  1.0000
  H   H2528     1.0  0.71820  0.11498  0.46367  1.0000
  H   H2529     1.0  0.81456  0.01677  0.19667  1.0000
  H   H2530     1.0  0.61796  0.17598  0.30156  1.0000
  C   C3152     1.0  0.77674  0.02423  0.97714  1.0000
  H   H2531     1.0  0.58965  0.16937  0.03195  1.0000
  P   P107      1.0  0.81278  0.99244  0.13707  1.0000
  C   C3153     1.0  0.50349  0.10146  0.12892  1.0000
  H   H2532     1.0  0.67619  0.09859  0.41412  1.0000
  H   H2533     1.0  0.74307  0.03304  0.14773  1.0000
  H   H2534     1.0  0.61851  0.12544  0.36419  1.0000
  H   H2535     1.0  0.73399  0.15208  0.47034  1.0000
  C   C3154     1.0  0.71494  0.18480  0.40552  1.0000
  H   H2536     1.0  0.51027  0.05313  0.29247  1.0000
  C   C3155     1.0  0.80041  0.00315  0.46097  1.0000
  C   C3156     1.0  0.70514  0.15883  0.32991  1.0000
  H   H2537     1.0  0.64353  0.17512  0.08217  1.0000
  C   C3157     1.0  0.54583  0.18246  0.44654  1.0000
  P   P108      1.0  0.77519  0.18320  0.34409  1.0000
  H   H2538     1.0  0.68660  0.03425  0.99203  1.0000
  H   H2539     1.0  0.58588  0.17769  0.40682  1.0000
  H   H2540     1.0  0.66949  0.17295  0.98916  1.0000
  H   H2541     1.0  0.64556  0.16572  0.44765  1.0000
  H   H2542     1.0  0.95842  0.99302  0.03838  1.0000
  H   H2543     1.0  0.50198  0.99272  0.13435  1.0000
  C   C3158     1.0  0.49940  0.14498  0.24817  1.0000
  H   H2544     1.0  0.59263  0.99775  0.13816  1.0000
  Fe  Fe205     1.0  0.64236  0.99336  0.08961  1.0000
  H   H2545     1.0  0.66511  0.18242  0.01915  1.0000
  H   H2546     1.0  0.86995  0.98845  0.07871  1.0000
  H   H2547     1.0  0.77347  0.16603  0.41662  1.0000
  H   H2548     1.0  0.70414  0.99376  0.43786  1.0000
  C   C3159     1.0  0.49964  0.08118  0.30314  1.0000
  C   C3160     1.0  0.69330  0.99457  0.13297  1.0000
  H   H2549     1.0  0.61647  0.18485  0.03552  1.0000
  C   C3161     1.0  0.76199  0.98611  0.41540  1.0000
  C   C3162     1.0  0.70925  0.13619  0.51784  1.0000
  Fe  Fe206     1.0  0.85973  0.12163  0.90104  1.0000
  H   H2550     1.0  0.50397  0.09752  0.67469  1.0000
  H   H2551     1.0  0.82951  0.03884  0.88477  1.0000
  C   C3163     1.0  0.89503  0.01346  0.59005  1.0000
  C   C3164     1.0  0.82750  0.00770  0.89552  1.0000
  C   C3165     1.0  0.50325  0.08569  0.66769  1.0000
  C   C3166     1.0  0.80819  0.99474  0.87919  1.0000
  H   H2552     1.0  0.88358  0.03342  0.95070  1.0000
  C   C3167     1.0  0.87394  0.98808  0.60216  1.0000
  C   C3168     1.0  0.80431  0.01349  0.86688  1.0000
  Fe  Fe207     1.0  0.59669  0.07324  0.58281  1.0000
  S   S410      1.0  0.61436  0.07238  0.60549  1.0000
  S   S411      1.0  0.59273  0.09871  0.55675  1.0000
  Fe  Fe208     1.0  0.62853  0.04095  0.60152  1.0000
  S   S412      1.0  0.66257  0.03085  0.59684  1.0000
  Fe  Fe209     1.0  0.58944  0.05864  0.62752  1.0000
  S   S413      1.0  0.57775  0.07103  0.65565  1.0000
  H   H2553     1.0  0.51675  0.11211  0.75897  1.0000
  S   S414      1.0  0.57057  0.06185  0.60507  1.0000
  Fe  Fe210     1.0  0.77091  0.00919  0.78662  1.0000
  C   C3169     1.0  0.99396  0.16651  0.61320  1.0000
  S   S415      1.0  0.74353  0.01377  0.77290  1.0000
  Fe  Fe211     1.0  0.79408  0.03175  0.80300  1.0000
  S   S416      1.0  0.81653  0.00398  0.81174  1.0000
  S   S417      1.0  0.78990  0.06211  0.81101  1.0000
  C   C3170     1.0  0.94528  0.14629  0.82233  1.0000
  H   H2554     1.0  0.86237  0.15356  0.93212  1.0000
  C   C3171     1.0  0.58528  0.02892  0.76730  1.0000
  S   S418      1.0  0.79629  0.02616  0.77238  1.0000
  S   S419      1.0  0.76679  0.01736  0.81623  1.0000
  H   H2555     1.0  0.53135  0.09581  0.60533  1.0000
  C   C3172     1.0  0.98962  0.08671  0.67171  1.0000
  H   H2556     1.0  0.52131  0.07498  0.71298  1.0000
  H   H2557     1.0  0.74435  0.17078  0.92575  1.0000
  H   H2558     1.0  0.58270  0.12027  0.93799  1.0000
  H   H2559     1.0  0.99007  0.12444  0.80650  1.0000
  C   C3173     1.0  0.73827  0.11100  0.50723  1.0000
  Fe  Fe212     1.0  0.84152  0.10636  0.87283  1.0000
  S   S420      1.0  0.84928  0.09640  0.84322  1.0000
  S   S421      1.0  0.83839  0.13665  0.88013  1.0000
  C   C3174     1.0  0.75174  0.16784  0.86997  1.0000
  Fe  Fe213     1.0  0.81377  0.12666  0.90599  1.0000
  C   C3175     1.0  0.90155  0.17267  0.93719  1.0000
  C   C3176     1.0  0.51716  0.08220  0.65017  1.0000
  H   H2560     1.0  0.94087  0.11301  0.96323  1.0000
  H   H2561     1.0  0.81639  0.12985  0.96736  1.0000
  H   H2562     1.0  0.84449  0.01442  0.95528  1.0000
  C   C3177     1.0  0.52910  0.15409  0.88108  1.0000
  C   C3178     1.0  0.50382  0.07234  0.58362  1.0000
  S   S422      1.0  0.86495  0.09223  0.89129  1.0000
  Fe  Fe214     1.0  0.92557  0.01907  0.62117  1.0000
  H   H2563     1.0  0.96978  0.11274  0.78923  1.0000
  S   S423      1.0  0.91184  0.02720  0.59354  1.0000
  Fe  Fe215     1.0  0.95633  0.03223  0.63805  1.0000
  S   S424      1.0  0.94948  0.01174  0.66749  1.0000
  S   S425      1.0  0.98209  0.04930  0.63026  1.0000
  H   H2564     1.0  0.89321  0.99418  0.61879  1.0000
  Fe  Fe216     1.0  0.91676  0.02159  0.66487  1.0000
  S   S426      1.0  0.89100  0.03439  0.68790  1.0000
  S   S427      1.0  0.95929  0.00925  0.61983  1.0000
  S   S428      1.0  0.92353  0.04406  0.63668  1.0000
  H   H2565     1.0  0.64616  0.00164  0.63066  1.0000
  C   C3179     1.0  0.98492  0.06211  0.64768  1.0000
  C   C3180     1.0  0.51973  0.99453  0.81105  1.0000
  H   H2566     1.0  0.54305  0.02950  0.64217  1.0000
  H   H2567     1.0  0.73450  0.03794  0.51594  1.0000
  C   C3181     1.0  0.97056  0.08197  0.67346  1.0000
  C   C3182     1.0  0.96824  0.06964  0.66154  1.0000
  H   H2568     1.0  0.99329  0.09713  0.57205  1.0000
  H   H2569     1.0  0.95749  0.08827  0.68373  1.0000
  H   H2570     1.0  0.95347  0.06647  0.66254  1.0000
  H   H2571     1.0  0.53945  0.03288  0.56901  1.0000
  C   C3183     1.0  0.98265  0.12792  0.76012  1.0000
  H   H2572     1.0  0.89350  0.03022  0.56044  1.0000
  C   C3184     1.0  0.67684  0.09785  0.49493  1.0000
  S   S429      1.0  0.77799  0.01368  0.52312  1.0000
  C   C3185     1.0  0.50945  0.13696  0.57585  1.0000
  H   H2573     1.0  0.51997  0.14284  0.88858  1.0000
  C   C3186     1.0  0.74299  0.15636  0.92392  1.0000
  C   C3187     1.0  0.51196  0.00751  0.79522  1.0000
  C   C3188     1.0  0.72013  0.99439  0.76097  1.0000
  Fe  Fe217     1.0  0.95061  0.98920  0.64928  1.0000
  H   H2574     1.0  0.83036  0.01123  0.63120  1.0000
  C   C3189     1.0  0.68127  0.17171  0.47938  1.0000
  C   C3190     1.0  0.89080  0.06068  0.93142  1.0000
  Fe  Fe218     1.0  0.50086  0.00826  0.72544  1.0000
  C   C3191     1.0  0.70088  0.07221  0.95461  1.0000
  C   C3192     1.0  0.84945  0.01652  0.73642  1.0000
  C   C3193     1.0  0.85973  0.02797  0.71946  1.0000
  C   C3194     1.0  0.87715  0.01895  0.70727  1.0000
  H   H2575     1.0  0.70708  0.09794  0.49816  1.0000
  H   H2576     1.0  0.60915  0.04692  0.79388  1.0000
  H   H2577     1.0  0.83635  0.02370  0.74597  1.0000
  H   H2578     1.0  0.85442  0.04395  0.71602  1.0000
  C   C3195     1.0  0.72359  0.15176  0.92721  1.0000
  H   H2579     1.0  0.92357  0.01020  0.71274  1.0000
  C   C3196     1.0  0.80614  0.06975  0.82216  1.0000
  C   C3197     1.0  0.79867  0.08660  0.83116  1.0000
  C   C3198     1.0  0.81146  0.09404  0.83895  1.0000
  C   C3199     1.0  0.83203  0.08502  0.83729  1.0000
  C   C3200     1.0  0.83937  0.06783  0.82883  1.0000
  C   C3201     1.0  0.82641  0.06004  0.82155  1.0000
  H   H2580     1.0  0.78302  0.09418  0.83176  1.0000
  H   H2581     1.0  0.80570  0.10735  0.84532  1.0000
  H   H2582     1.0  0.85519  0.06066  0.82775  1.0000
  H   H2583     1.0  0.83214  0.04678  0.81520  1.0000
  H   H2584     1.0  0.56980  0.99978  0.64844  1.0000
  H   H2585     1.0  0.73930  0.17681  0.49571  1.0000
  C   C3202     1.0  0.52018  0.01274  0.64388  1.0000
  C   C3203     1.0  0.74434  0.12112  0.96868  1.0000
  H   H2586     1.0  0.52353  0.06765  0.55550  1.0000
  H   H2587     1.0  0.70922  0.00836  0.76042  1.0000
  C   C3204     1.0  0.88050  0.99710  0.78327  1.0000
  C   C3205     1.0  0.53542  0.09037  0.74169  1.0000
  H   H2588     1.0  0.89659  0.08982  0.91598  1.0000
  S   S430      1.0  0.99152  0.10379  0.68553  1.0000
  C   C3206     1.0  0.77761  0.03296  0.50207  1.0000
  C   C3207     1.0  0.51296  0.12324  0.59317  1.0000
  C   C3208     1.0  0.50692  0.17637  0.54045  1.0000
  C   C3209     1.0  0.51674  0.99353  0.64509  1.0000
  C   C3210     1.0  0.62353  0.02407  0.77654  1.0000
  H   H2589     1.0  0.52875  0.09126  0.64368  1.0000
  H   H2590     1.0  0.80823  0.02753  0.72432  1.0000
  C   C3211     1.0  0.55716  0.06216  0.67291  1.0000
  C   C3212     1.0  0.54610  0.07320  0.68751  1.0000
  C   C3213     1.0  0.53002  0.06624  0.70191  1.0000
  C   C3214     1.0  0.52514  0.04801  0.70213  1.0000
  C   C3215     1.0  0.53593  0.03706  0.68731  1.0000
  C   C3216     1.0  0.55201  0.04417  0.67269  1.0000
  H   H2591     1.0  0.54986  0.08724  0.68756  1.0000
  H   H2592     1.0  0.65873  0.05032  0.47782  1.0000
  H   H2593     1.0  0.53214  0.02301  0.68732  1.0000
  H   H2594     1.0  0.56108  0.03539  0.66182  1.0000
  C   C3217     1.0  0.67282  0.01431  0.61642  1.0000
  C   C3218     1.0  0.69289  0.01400  0.61707  1.0000
  C   C3219     1.0  0.70108  0.00255  0.63332  1.0000
  C   C3220     1.0  0.68956  0.99073  0.64878  1.0000
  C   C3221     1.0  0.77562  0.08742  0.97013  1.0000
  C   C3222     1.0  0.66140  0.00201  0.63152  1.0000
  H   H2595     1.0  0.70193  0.02322  0.60536  1.0000
  H   H2596     1.0  0.71642  0.00295  0.63398  1.0000
  C   C3223     1.0  0.54059  0.15186  0.51646  1.0000
  C   C3224     1.0  0.50698  0.04443  0.61153  1.0000
  C   C3225     1.0  0.82038  0.01086  0.70063  1.0000
  C   C3226     1.0  0.56738  0.16113  0.57133  1.0000
  C   C3227     1.0  0.57669  0.15886  0.55181  1.0000
  C   C3228     1.0  0.58445  0.13963  0.54743  1.0000
  C   C3229     1.0  0.58336  0.12263  0.56264  1.0000
  C   C3230     1.0  0.57456  0.12491  0.58225  1.0000
  C   C3231     1.0  0.56636  0.14411  0.58653  1.0000
  H   H2597     1.0  0.57771  0.17190  0.54007  1.0000
  H   H2598     1.0  0.59135  0.13791  0.53227  1.0000
  H   H2599     1.0  0.57368  0.11187  0.59407  1.0000
  H   H2600     1.0  0.55918  0.14580  0.60166  1.0000
  C   C3232     1.0  0.84944  0.03289  0.62267  1.0000
  C   C3233     1.0  0.74576  0.11763  0.79122  1.0000
  C   C3234     1.0  0.72145  0.11720  0.52170  1.0000
  C   C3235     1.0  0.77767  0.05048  0.94766  1.0000
  C   C3236     1.0  0.54623  0.07071  0.74219  1.0000
  C   C3237     1.0  0.74276  0.12371  0.48884  1.0000
  C   C3238     1.0  0.94386  0.02020  0.72510  1.0000
  H   H2601     1.0  0.92506  0.14449  0.90177  1.0000
  C   C3239     1.0  0.81877  0.99507  0.69255  1.0000
  H   H2602     1.0  0.72850  0.08310  0.94928  1.0000
  H   H2603     1.0  0.69624  0.14063  0.52918  1.0000
  C   C3240     1.0  0.52525  0.09690  0.75940  1.0000
  H   H2604     1.0  0.78372  0.08141  0.48665  1.0000
  C   C3241     1.0  0.88374  0.08385  0.79938  1.0000
  C   C3242     1.0  0.89616  0.07542  0.81320  1.0000
  C   C3243     1.0  0.90645  0.05555  0.81433  1.0000
  C   C3244     1.0  0.90409  0.04401  0.80184  1.0000
  C   C3245     1.0  0.89136  0.05228  0.78812  1.0000
  C   C3246     1.0  0.88131  0.07237  0.78687  1.0000
  P   P109      1.0  0.88693  0.03660  0.77346  1.0000
  C   C3247     1.0  0.90949  0.02989  0.75489  1.0000
  C   C3248     1.0  0.87886  0.01463  0.79024  1.0000
  C   C3249     1.0  0.52053  0.17209  0.87005  1.0000
  C   C3250     1.0  0.65536  0.04978  0.52452  1.0000
  C   C3251     1.0  0.76764  0.03204  0.48755  1.0000
  H   H2605     1.0  0.63177  0.17306  0.87291  1.0000
  C   C3252     1.0  0.87017  0.01514  0.81042  1.0000
  C   C3253     1.0  0.90795  0.02154  0.73939  1.0000
  H   H2606     1.0  0.73421  0.99794  0.58869  1.0000
  H   H2607     1.0  0.57173  0.12553  0.48182  1.0000
  C   C3254     1.0  0.94554  0.02886  0.74025  1.0000
  C   C3255     1.0  0.92845  0.03371  0.75510  1.0000
  C   C3256     1.0  0.86674  0.05033  0.76074  1.0000
  C   C3257     1.0  0.87126  0.06323  0.74232  1.0000
  C   C3258     1.0  0.85559  0.07540  0.73329  1.0000
  C   C3259     1.0  0.83528  0.07486  0.74266  1.0000
  C   C3260     1.0  0.83067  0.06205  0.76096  1.0000
  C   C3261     1.0  0.84632  0.04964  0.76986  1.0000
  H   H2608     1.0  0.87520  0.09904  0.79909  1.0000
  H   H2609     1.0  0.89723  0.08417  0.82343  1.0000
  H   H2610     1.0  0.91583  0.04897  0.82527  1.0000
  H   H2611     1.0  0.91174  0.02847  0.80323  1.0000
  H   H2612     1.0  0.87101  0.07912  0.77686  1.0000
  C   C3262     1.0  0.97874  0.13262  0.63620  1.0000
  C   C3263     1.0  0.92504  0.01659  0.72466  1.0000
  H   H2613     1.0  0.62222  0.11036  0.57894  1.0000
  H   H2614     1.0  0.50403  0.12599  0.60757  1.0000
  H   H2615     1.0  0.86804  0.02857  0.81619  1.0000
  H   H2616     1.0  0.89342  0.01904  0.73859  1.0000
  C   C3264     1.0  0.78380  0.05067  0.50148  1.0000
  C   C3265     1.0  0.54015  0.99251  0.81173  1.0000
  H   H2617     1.0  0.74765  0.09621  0.51009  1.0000
  H   H2618     1.0  0.93016  0.04056  0.76650  1.0000
  H   H2619     1.0  0.88687  0.06398  0.73499  1.0000
  H   H2620     1.0  0.85925  0.08517  0.71901  1.0000
  H   H2621     1.0  0.82309  0.08434  0.73577  1.0000
  H   H2622     1.0  0.81493  0.06180  0.76840  1.0000
  H   H2623     1.0  0.84239  0.03968  0.78391  1.0000
  S   S431      1.0  0.55628  0.18491  0.57719  1.0000
  H   H2624     1.0  0.77360  0.04030  0.89826  1.0000
  P   P110      1.0  0.50117  0.03474  0.63801  1.0000
  H   H2625     1.0  0.67054  0.10623  0.91215  1.0000
  H   H2626     1.0  0.93607  0.13083  0.85250  1.0000
  S   S432      1.0  0.91691  0.99720  0.64941  1.0000
  C   C3266     1.0  0.51225  0.18263  0.97095  1.0000
  H   H2627     1.0  0.67072  0.04211  0.52546  1.0000
  C   C3267     1.0  0.58276  0.02572  0.70352  1.0000
  C   C3268     1.0  0.57496  0.00958  0.70239  1.0000
  C   C3269     1.0  0.56197  0.00076  0.71892  1.0000
  C   C3270     1.0  0.55640  0.00834  0.73643  1.0000
  C   C3271     1.0  0.56497  0.02390  0.73799  1.0000
  C   C3272     1.0  0.57843  0.03232  0.72144  1.0000
  P   P111      1.0  0.56069  0.03177  0.76141  1.0000
  C   C3273     1.0  0.54706  0.05739  0.76041  1.0000
  C   C3274     1.0  0.54506  0.01667  0.78071  1.0000
  C   C3275     1.0  0.55284  0.00349  0.79658  1.0000
  H   H2628     1.0  0.51841  0.02854  0.76782  1.0000
  H   H2629     1.0  0.85669  0.99899  0.83885  1.0000
  C   C3276     1.0  0.80677  0.01552  0.71799  1.0000
  H   H2630     1.0  0.82843  0.07603  0.96110  1.0000
  C   C3277     1.0  0.56382  0.16839  0.91845  1.0000
  H   H2631     1.0  0.59201  0.03324  0.69047  1.0000
  H   H2632     1.0  0.57852  0.00424  0.68856  1.0000
  C   C3278     1.0  0.98324  0.17796  0.88996  1.0000
  H   H2633     1.0  0.54576  0.00165  0.74870  1.0000
  H   H2634     1.0  0.58557  0.04401  0.72237  1.0000
  H   H2635     1.0  0.56863  0.00164  0.79731  1.0000
  C   C3279     1.0  0.57723  0.15212  0.48788  1.0000
  H   H2636     1.0  0.80860  0.04398  0.85969  1.0000
  C   C3280     1.0  0.54283  0.16811  0.92489  1.0000
  C   C3281     1.0  0.86369  0.99834  0.82341  1.0000
  H   H2637     1.0  0.55367  0.06603  0.72827  1.0000
  C   C3282     1.0  0.92753  0.08754  0.60240  1.0000
  C   C3283     1.0  0.94721  0.08827  0.60340  1.0000
  C   C3284     1.0  0.95026  0.09553  0.61886  1.0000
  C   C3285     1.0  0.93370  0.10158  0.63363  1.0000
  C   C3286     1.0  0.91387  0.10045  0.63302  1.0000
  C   C3287     1.0  0.91089  0.09367  0.61709  1.0000
  P   P112      1.0  0.89275  0.10782  0.65263  1.0000
  C   C3288     1.0  0.87113  0.09710  0.65363  1.0000
  C   C3289     1.0  0.90162  0.09881  0.67567  1.0000
  C   C3290     1.0  0.91152  0.07882  0.68017  1.0000
  C   C3291     1.0  0.91914  0.07168  0.69754  1.0000
  C   C3292     1.0  0.91723  0.08450  0.71047  1.0000
  C   C3293     1.0  0.90738  0.10444  0.70614  1.0000
  C   C3294     1.0  0.89958  0.11162  0.68881  1.0000
  C   C3295     1.0  0.85967  0.10458  0.63874  1.0000
  C   C3296     1.0  0.84339  0.09596  0.63893  1.0000
  C   C3297     1.0  0.83824  0.07999  0.65413  1.0000
  C   C3298     1.0  0.84917  0.07285  0.66930  1.0000
  C   C3299     1.0  0.86542  0.08145  0.66915  1.0000
  C   C3300     1.0  0.88477  0.13468  0.64823  1.0000
  C   C3301     1.0  0.89756  0.14714  0.63509  1.0000
  H   H2638     1.0  0.86977  0.17521  0.95141  1.0000
  H   H2639     1.0  0.89307  0.05507  0.91790  1.0000
  H   H2640     1.0  0.96401  0.17667  0.60616  1.0000
  C   C3302     1.0  0.86556  0.14333  0.65823  1.0000
  H   H2641     1.0  0.92521  0.08142  0.59070  1.0000
  H   H2642     1.0  0.96017  0.08262  0.59257  1.0000
  H   H2643     1.0  0.96560  0.09558  0.61987  1.0000
  H   H2644     1.0  0.93648  0.10660  0.64581  1.0000
  H   H2645     1.0  0.89598  0.09226  0.61625  1.0000
  H   H2646     1.0  0.91339  0.06868  0.67021  1.0000
  H   H2647     1.0  0.92678  0.05622  0.70075  1.0000
  H   H2648     1.0  0.92349  0.07896  0.72376  1.0000
  H   H2649     1.0  0.90603  0.11440  0.71612  1.0000
  H   H2650     1.0  0.89227  0.12717  0.68565  1.0000
  H   H2651     1.0  0.86358  0.11685  0.62678  1.0000
  H   H2652     1.0  0.83489  0.10150  0.62717  1.0000
  H   H2653     1.0  0.82591  0.07300  0.65409  1.0000
  H   H2654     1.0  0.84541  0.06028  0.68098  1.0000
  H   H2655     1.0  0.87352  0.07559  0.68112  1.0000
  H   H2656     1.0  0.91242  0.14091  0.62717  1.0000
  C   C3303     1.0  0.52757  0.04154  0.57857  1.0000
  C   C3304     1.0  0.71943  0.07249  0.95885  1.0000
  C   C3305     1.0  0.88388  0.99824  0.71168  1.0000
  H   H2657     1.0  0.85551  0.13397  0.66851  1.0000
  S   S433      1.0  0.51026  0.14879  0.94321  1.0000
  H   H2658     1.0  0.67593  0.11292  0.96832  1.0000
  C   C3306     1.0  0.52826  0.10620  0.59195  1.0000
  C   C3307     1.0  0.96633  0.14799  0.62561  1.0000
  C   C3308     1.0  0.54788  0.13700  0.50482  1.0000
  H   H2659     1.0  0.75566  0.11879  0.47755  1.0000
  H   H2660     1.0  0.99675  0.11742  0.59452  1.0000
  H   H2661     1.0  0.67441  0.05854  0.96350  1.0000
  S   S434      1.0  0.83836  0.00209  0.52517  1.0000
  H   H2662     1.0  0.78097  0.98949  0.91522  1.0000
  C   C3309     1.0  0.69861  0.01260  0.48761  1.0000
  C   C3310     1.0  0.71383  0.14914  0.49945  1.0000
  H   H2663     1.0  0.53473  0.10046  0.72750  1.0000
  C   C3311     1.0  0.84075  0.01742  0.63594  1.0000
  C   C3312     1.0  0.57167  0.13382  0.93475  1.0000
  C   C3313     1.0  0.88801  0.99811  0.60498  1.0000
  H   H2664     1.0  0.79527  0.01573  0.85579  1.0000
  C   C3314     1.0  0.57774  0.17596  0.96768  1.0000
  C   C3315     1.0  0.64888  0.16561  0.47710  1.0000
  C   C3316     1.0  0.60915  0.07082  0.73353  1.0000
  C   C3317     1.0  0.59293  0.08302  0.72537  1.0000
  C   C3318     1.0  0.59227  0.08338  0.70573  1.0000
  C   C3319     1.0  0.60809  0.07195  0.69411  1.0000
  C   C3320     1.0  0.62501  0.06056  0.70185  1.0000
  C   C3321     1.0  0.62501  0.05937  0.72192  1.0000
  P   P113      1.0  0.64562  0.04647  0.68636  1.0000
  C   C3322     1.0  0.63693  0.02417  0.68664  1.0000
  C   C3323     1.0  0.65205  0.06123  0.66171  1.0000
  C   C3324     1.0  0.66368  0.05184  0.64599  1.0000
  C   C3325     1.0  0.66860  0.06315  0.62683  1.0000
  C   C3326     1.0  0.66208  0.08389  0.62325  1.0000
  C   C3327     1.0  0.65113  0.09345  0.63897  1.0000
  C   C3328     1.0  0.64639  0.08222  0.65818  1.0000
  C   C3329     1.0  0.63593  0.00920  0.70390  1.0000
  H   H2665     1.0  0.72117  0.17493  0.88688  1.0000
  C   C3330     1.0  0.92500  0.11591  0.97067  1.0000
  C   C3331     1.0  0.62307  0.00453  0.67137  1.0000
  C   C3332     1.0  0.63014  0.02189  0.67041  1.0000
  C   C3333     1.0  0.66878  0.03955  0.69579  1.0000
  C   C3334     1.0  0.67474  0.05312  0.70376  1.0000
  C   C3335     1.0  0.69245  0.04746  0.71149  1.0000
  C   C3336     1.0  0.70453  0.02841  0.71088  1.0000
  C   C3337     1.0  0.69912  0.01516  0.70221  1.0000
  C   C3338     1.0  0.68141  0.02074  0.69459  1.0000
  H   H2666     1.0  0.60949  0.07026  0.74884  1.0000
  H   H2667     1.0  0.58074  0.09199  0.73433  1.0000
  H   H2668     1.0  0.57950  0.09241  0.69944  1.0000
  H   H2669     1.0  0.60719  0.07215  0.67900  1.0000
  H   H2670     1.0  0.63722  0.04969  0.72863  1.0000
  H   H2671     1.0  0.66885  0.03576  0.64855  1.0000
  H   H2672     1.0  0.67732  0.05582  0.61467  1.0000
  H   H2673     1.0  0.66559  0.09252  0.60831  1.0000
  H   H2674     1.0  0.64625  0.10956  0.63625  1.0000
  H   H2675     1.0  0.63829  0.09003  0.67016  1.0000
  H   H2676     1.0  0.64064  0.01079  0.71679  1.0000
  H   H2677     1.0  0.74976  0.01038  0.95693  1.0000
  H   H2678     1.0  0.87671  0.01914  0.48915  1.0000
  H   H2679     1.0  0.61791  0.00256  0.65897  1.0000
  H   H2680     1.0  0.63001  0.03349  0.65716  1.0000
  H   H2681     1.0  0.66568  0.06800  0.70409  1.0000
  H   H2682     1.0  0.69688  0.05782  0.71792  1.0000
  H   H2683     1.0  0.71819  0.02395  0.71697  1.0000
  H   H2684     1.0  0.70865  0.00050  0.70134  1.0000
  H   H2685     1.0  0.67767  0.01030  0.68772  1.0000
  C   C3339     1.0  0.73992  0.13510  0.79905  1.0000
  C   C3340     1.0  0.73592  0.13389  0.81964  1.0000
  C   C3341     1.0  0.73791  0.11517  0.83258  1.0000
  P   P114      1.0  0.73188  0.11394  0.85918  1.0000
  C   C3342     1.0  0.74526  0.09072  0.87175  1.0000
  C   C3343     1.0  0.76241  0.09015  0.87921  1.0000
  C   C3344     1.0  0.77254  0.07203  0.88874  1.0000
  C   C3345     1.0  0.76560  0.05435  0.89105  1.0000
  C   C3346     1.0  0.74851  0.05477  0.88383  1.0000
  C   C3347     1.0  0.73830  0.07287  0.87433  1.0000
  C   C3348     1.0  0.73947  0.13512  0.86349  1.0000
  C   C3349     1.0  0.76544  0.15482  0.85841  1.0000
  C   C3350     1.0  0.75924  0.13872  0.85489  1.0000
  H   H2686     1.0  0.73857  0.14958  0.78916  1.0000
  H   H2687     1.0  0.73125  0.14760  0.82545  1.0000
  H   H2688     1.0  0.76813  0.10352  0.87781  1.0000
  H   H2689     1.0  0.78592  0.07174  0.89414  1.0000
  C   C3351     1.0  0.62900  0.99192  0.70462  1.0000
  H   H2690     1.0  0.74329  0.04101  0.88537  1.0000
  H   H2691     1.0  0.72511  0.07292  0.86876  1.0000
  H   H2692     1.0  0.78095  0.15708  0.85238  1.0000
  H   H2693     1.0  0.77000  0.12882  0.84578  1.0000
  P   P115      1.0  0.51696  0.15166  0.53482  1.0000
  C   C3352     1.0  0.62072  0.04788  0.52517  1.0000
  C   C3353     1.0  0.61531  0.06870  0.52238  1.0000
  C   C3354     1.0  0.62984  0.08008  0.52081  1.0000
  C   C3355     1.0  0.64999  0.07072  0.52191  1.0000
  H   H2694     1.0  0.53845  0.15963  0.97542  1.0000
  P   P116      1.0  0.66853  0.08553  0.52044  1.0000
  C   C3356     1.0  0.65672  0.10415  0.53577  1.0000
  C   C3357     1.0  0.68972  0.06916  0.53035  1.0000
  C   C3358     1.0  0.68961  0.06560  0.55078  1.0000
  C   C3359     1.0  0.70577  0.05251  0.55841  1.0000
  C   C3360     1.0  0.72210  0.04276  0.54578  1.0000
  Fe  Fe219     1.0  0.81666  0.99703  0.78222  1.0000
  H   H2695     1.0  0.63351  0.00136  0.75854  1.0000
  C   C3361     1.0  0.64282  0.09945  0.55371  1.0000
  C   C3362     1.0  0.63346  0.11387  0.56547  1.0000
  C   C3363     1.0  0.63793  0.13303  0.55955  1.0000
  C   C3364     1.0  0.65199  0.13776  0.54192  1.0000
  C   C3365     1.0  0.66124  0.12345  0.52994  1.0000
  H   H2696     1.0  0.83231  0.01938  0.69389  1.0000
  C   C3366     1.0  0.52155  0.13391  0.55718  1.0000
  C   C3367     1.0  0.85642  0.99591  0.74119  1.0000
  H   H2697     1.0  0.60928  0.03905  0.52706  1.0000
  H   H2698     1.0  0.59963  0.07606  0.52228  1.0000
  H   H2699     1.0  0.62514  0.09616  0.51943  1.0000
  C   C3368     1.0  0.56615  0.13712  0.49063  1.0000
  H   H2700     1.0  0.67696  0.07253  0.56101  1.0000
  H   H2701     1.0  0.70544  0.04970  0.57421  1.0000
  H   H2702     1.0  0.73472  0.03263  0.55159  1.0000
  C   C3369     1.0  0.88811  0.01841  0.57212  1.0000
  Fe  Fe220     1.0  0.58862  0.03145  0.60069  1.0000
  H   H2703     1.0  0.63888  0.08474  0.55851  1.0000
  H   H2704     1.0  0.80096  0.04375  0.92211  1.0000
  H   H2705     1.0  0.65545  0.15263  0.53758  1.0000
  H   H2706     1.0  0.67174  0.12749  0.51611  1.0000
  S   S435      1.0  0.57437  0.00768  0.59662  1.0000
  C   C3370     1.0  0.87203  0.17644  0.64200  1.0000
  C   C3371     1.0  0.69723  0.10864  0.88872  1.0000
  C   C3372     1.0  0.67432  0.04264  0.47785  1.0000
  H   H2707     1.0  0.75664  0.18011  0.87300  1.0000
  C   C3373     1.0  0.64073  0.03843  0.52630  1.0000
  H   H2708     1.0  0.78104  0.00800  0.74096  1.0000
  H   H2709     1.0  0.90108  0.17751  0.62184  1.0000
  C   C3374     1.0  0.88187  0.16862  0.94046  1.0000
  C   C3375     1.0  0.60709  0.03802  0.78428  1.0000
  H   H2710     1.0  0.87109  0.05207  0.61712  1.0000
  C   C3376     1.0  0.76460  0.12341  0.96415  1.0000
  H   H2711     1.0  0.76236  0.01855  0.48824  1.0000
  Fe  Fe221     1.0  0.63568  0.17676  0.95312  1.0000
  C   C3377     1.0  0.87762  0.15630  0.92958  1.0000
  H   H2712     1.0  0.53951  0.12524  0.50682  1.0000
  C   C3378     1.0  0.56094  0.16566  0.87379  1.0000
  C   C3379     1.0  0.73047  0.14260  0.48485  1.0000
  C   C3380     1.0  0.69463  0.00324  0.53644  1.0000
  H   H2713     1.0  0.74906  0.11850  0.77527  1.0000
  C   C3381     1.0  0.62423  0.17879  0.86052  1.0000
  C   C3382     1.0  0.58803  0.04046  0.77969  1.0000
  C   C3383     1.0  0.76064  0.14240  0.91825  1.0000
  Fe  Fe222     1.0  0.78936  0.98922  0.82298  1.0000
  C   C3384     1.0  0.86373  0.04067  0.62774  1.0000
  C   C3385     1.0  0.73856  0.99291  0.76656  1.0000
  C   C3386     1.0  0.57833  0.15111  0.92309  1.0000
  H   H2714     1.0  0.70611  0.06064  0.50222  1.0000
  C   C3387     1.0  0.74569  0.99658  0.96615  1.0000
  H   H2715     1.0  0.78795  0.07453  0.97056  1.0000
  H   H2716     1.0  0.68674  0.01706  0.56208  1.0000
  H   H2717     1.0  0.70691  0.01123  0.52920  1.0000
  P   P117      1.0  0.69831  0.17372  0.49407  1.0000
  H   H2718     1.0  0.88963  0.10335  0.94635  1.0000
  C   C3388     1.0  0.88171  0.05591  0.96739  1.0000
  H   H2719     1.0  0.81491  0.00998  0.93932  1.0000
  H   H2720     1.0  0.63025  0.14426  0.56853  1.0000
  H   H2721     1.0  0.77209  0.06545  0.94009  1.0000
  H   H2722     1.0  0.55613  0.98810  0.71814  1.0000
  H   H2723     1.0  0.51784  0.08877  0.79136  1.0000
  H   H2724     1.0  0.66590  0.01518  0.49539  1.0000
  H   H2725     1.0  0.50481  0.17482  0.86870  1.0000
  C   C3389     1.0  0.76942  0.04379  0.96784  1.0000
  C   C3390     1.0  0.83065  0.06031  0.96784  1.0000
  H   H2726     1.0  0.95081  0.14684  0.62646  1.0000
  S   S436      1.0  0.60413  0.14925  0.91058  1.0000
  C   C3391     1.0  0.55079  0.13360  0.94137  1.0000
  H   H2727     1.0  0.65147  0.17240  0.83840  1.0000
  C   C3392     1.0  0.66999  0.12596  0.86340  1.0000
  H   H2728     1.0  0.52777  0.06381  0.62809  1.0000
  H   H2729     1.0  0.64631  0.12150  0.88971  1.0000
  C   C3393     1.0  0.94034  0.14446  0.84301  1.0000
  C   C3394     1.0  0.66175  0.16766  0.48849  1.0000
  C   C3395     1.0  0.53955  0.01485  0.64470  1.0000
  C   C3396     1.0  0.73179  0.16484  0.87789  1.0000
  H   H2730     1.0  0.92045  0.08658  0.97126  1.0000
  S   S437      1.0  0.60503  0.02702  0.62538  1.0000
  S   S438      1.0  0.88867  0.13248  0.90070  1.0000
  H   H2731     1.0  0.79111  0.05157  0.51293  1.0000
  C   C3397     1.0  0.80173  0.01909  0.94702  1.0000
  C   C3398     1.0  0.86921  0.03310  0.64614  1.0000
  C   C3399     1.0  0.70594  0.05884  0.51787  1.0000
  C   C3400     1.0  0.73966  0.10201  0.97396  1.0000
  H   H2732     1.0  0.79596  0.10829  0.96059  1.0000
  S   S439      1.0  0.81528  0.09783  0.89682  1.0000
  H   H2733     1.0  0.84583  0.03816  0.60804  1.0000
  C   C3401     1.0  0.79385  0.03816  0.93734  1.0000
  C   C3402     1.0  0.96090  0.07810  0.54711  1.0000
  C   C3403     1.0  0.95069  0.06280  0.55836  1.0000
  C   C3404     1.0  0.96047  0.04689  0.57083  1.0000
  C   C3405     1.0  0.98055  0.04602  0.57187  1.0000
  C   C3406     1.0  0.99123  0.06095  0.56012  1.0000
  C   C3407     1.0  0.98106  0.07725  0.54803  1.0000
  H   H2734     1.0  0.95107  0.18446  0.89207  1.0000
  C   C3408     1.0  0.67624  0.11077  0.89633  1.0000
  C   C3409     1.0  0.52587  0.08374  0.77763  1.0000
  C   C3410     1.0  0.62279  0.98944  0.68833  1.0000
  C   C3411     1.0  0.89118  0.16795  0.63201  1.0000
  C   C3412     1.0  0.75530  0.08501  0.97446  1.0000
  C   C3413     1.0  0.87426  0.00816  0.56917  1.0000
  S   S440      1.0  0.63968  0.14575  0.94774  1.0000
  H   H2735     1.0  0.54648  0.11385  0.54210  1.0000
  C   C3414     1.0  0.94050  0.16037  0.85153  1.0000
  C   C3415     1.0  0.82357  0.02647  0.88322  1.0000
  H   H2736     1.0  0.88637  0.99629  0.76777  1.0000
  C   C3416     1.0  0.50234  0.05410  0.65028  1.0000
  C   C3417     1.0  0.83658  0.04589  0.95584  1.0000
  H   H2737     1.0  0.95324  0.09052  0.53752  1.0000
  H   H2738     1.0  0.93515  0.06318  0.55757  1.0000
  H   H2739     1.0  0.95250  0.03508  0.57962  1.0000
  C   C3418     1.0  0.88548  0.04847  0.94993  1.0000
  H   H2740     1.0  0.98874  0.08922  0.53914  1.0000
  C   C3419     1.0  0.81192  0.02936  0.86897  1.0000
  Fe  Fe223     1.0  0.62614  0.16129  0.92108  1.0000
  H   H2741     1.0  0.86901  0.01213  0.55535  1.0000
  H   H2742     1.0  0.71014  0.16260  0.93162  1.0000
  C   C3420     1.0  0.88325  0.07572  0.96648  1.0000
  C   C3421     1.0  0.55483  0.99801  0.64800  1.0000
  S   S441      1.0  0.65666  0.16419  0.90077  1.0000
  H   H2743     1.0  0.54588  0.11999  0.95000  1.0000
  C   C3422     1.0  0.72208  0.04586  0.52557  1.0000
  H   H2744     1.0  0.98754  0.03352  0.58179  1.0000
  H   H2745     1.0  0.55190  0.08963  0.57249  1.0000
  C   C3423     1.0  0.55184  0.16687  0.51356  1.0000
  C   C3424     1.0  0.62088  0.01245  0.76431  1.0000
  P   P118      1.0  0.83700  0.98803  0.67081  1.0000
  C   C3425     1.0  0.66260  0.11945  0.88370  1.0000
  H   H2746     1.0  0.57638  0.16286  0.87583  1.0000
  C   C3426     1.0  0.86074  0.01750  0.65939  1.0000
  S   S442      1.0  0.78469  0.14856  0.91507  1.0000
  H   H2747     1.0  0.52671  0.17294  0.56079  1.0000
  C   C3427     1.0  0.54935  0.15083  0.88281  1.0000
  H   H2748     1.0  0.64482  0.02227  0.52895  1.0000
  C   C3428     1.0  0.94508  0.17843  0.83942  1.0000
  S   S443      1.0  0.50537  0.03979  0.72122  1.0000
  C   C3429     1.0  0.79316  0.01213  0.96689  1.0000
  C   C3430     1.0  0.88869  0.08787  0.94773  1.0000
  H   H2749     1.0  0.84439  0.17073  0.66287  1.0000
  H   H2750     1.0  0.57861  0.17865  0.49731  1.0000
  H   H2751     1.0  0.94487  0.13402  0.81577  1.0000
  C   C3431     1.0  0.99760  0.13710  0.85102  1.0000
  H   H2752     1.0  0.85227  0.11271  0.96210  1.0000
  C   C3432     1.0  0.83757  0.05857  0.48320  1.0000
  C   C3433     1.0  0.68998  0.98997  0.52708  1.0000
  H   H2753     1.0  0.65937  0.13280  0.85368  1.0000
  C   C3434     1.0  0.89259  0.08029  0.93035  1.0000
  H   H2754     1.0  0.55592  0.13709  0.89173  1.0000
  C   C3435     1.0  0.68495  0.18358  0.51619  1.0000
  C   C3436     1.0  0.53990  0.10275  0.57343  1.0000
  H   H2755     1.0  0.69573  0.08274  0.94206  1.0000
  C   C3437     1.0  0.85294  0.04522  0.49177  1.0000
  H   H2756     1.0  0.97283  0.11966  0.64534  1.0000
  C   C3438     1.0  0.99187  0.12915  0.79054  1.0000
  H   H2757     1.0  0.73227  0.13415  0.96737  1.0000
  C   C3439     1.0  0.57003  0.16702  0.49930  1.0000
  H   H2758     1.0  0.83636  0.00610  0.90651  1.0000
  C   C3440     1.0  0.77944  0.06757  0.48674  1.0000
  C   C3441     1.0  0.97388  0.16492  0.61417  1.0000
  H   H2759     1.0  0.70757  0.10236  0.89881  1.0000
  S   S444      1.0  0.61327  0.04300  0.57661  1.0000
  C   C3442     1.0  0.53668  0.06407  0.77816  1.0000
  C   C3443     1.0  0.70478  0.11534  0.86841  1.0000
  H   H2760     1.0  0.79951  0.99754  0.97455  1.0000
  C   C3444     1.0  0.91289  0.15140  0.91240  1.0000
  C   C3445     1.0  0.89311  0.14771  0.91535  1.0000
  H   H2761     1.0  0.57554  0.05131  0.78586  1.0000
  C   C3446     1.0  0.53673  0.11661  0.55613  1.0000
  H   H2762     1.0  0.53685  0.05403  0.79242  1.0000
  C   C3447     1.0  0.74748  0.09898  0.80398  1.0000
  C   C3448     1.0  0.74355  0.09771  0.82457  1.0000
  H   H2763     1.0  0.89733  0.99115  0.70234  1.0000
  H   H2764     1.0  0.98427  0.14329  0.86119  1.0000
  C   C3449     1.0  0.72570  0.14843  0.87488  1.0000
  H   H2765     1.0  0.69633  0.12944  0.84008  1.0000
  C   C3450     1.0  0.84637  0.00953  0.65445  1.0000
  H   H2766     1.0  0.76826  0.13824  0.95937  1.0000
  H   H2767     1.0  0.88048  0.03896  0.64994  1.0000
  H   H2768     1.0  0.60021  0.00538  0.75044  1.0000
  C   C3451     1.0  0.67844  0.02272  0.48769  1.0000
  H   H2769     1.0  0.50986  0.98609  0.82277  1.0000
  H   H2770     1.0  0.59140  0.15220  0.47696  1.0000
  C   C3452     1.0  0.69099  0.12399  0.85576  1.0000
  C   C3453     1.0  0.52455  0.01860  0.78014  1.0000
  H   H2771     1.0  0.95705  0.01650  0.71354  1.0000
  C   C3454     1.0  0.87358  0.98677  0.72872  1.0000
  C   C3455     1.0  0.60186  0.01479  0.75975  1.0000
  C   C3456     1.0  0.51487  0.18280  0.55363  1.0000
  H   H2772     1.0  0.96011  0.03187  0.74042  1.0000
  C   C3457     1.0  0.83972  0.02555  0.96459  1.0000
  C   C3458     1.0  0.53628  0.15055  0.93607  1.0000
  C   C3459     1.0  0.72475  0.18214  0.96916  1.0000
  H   H2773     1.0  0.71782  0.10718  0.53585  1.0000
  S   S445      1.0  0.69765  0.12672  0.92917  1.0000
  C   C3460     1.0  0.73935  0.11914  0.91929  1.0000
  H   H2774     1.0  0.73802  0.10478  0.91729  1.0000
  H   H2775     1.0  0.63829  0.02210  0.78013  1.0000
  Fe  Fe224     1.0  0.83855  0.08515  0.91573  1.0000
  H   H2776     1.0  0.75227  0.08539  0.79793  1.0000
  H   H2777     1.0  0.74543  0.08303  0.83399  1.0000
  H   H2778     1.0  0.71034  0.14616  0.88171  1.0000
  Fe  Fe225     1.0  0.66968  0.15144  0.92815  1.0000
  C   C3461     1.0  0.91709  0.16383  0.92317  1.0000
  S   S446      1.0  0.83495  0.11320  0.92735  1.0000
  C   C3462     1.0  0.75875  0.12375  0.91599  1.0000
  C   C3463     1.0  0.72172  0.13314  0.92486  1.0000
  H   H2779     1.0  0.77221  0.11284  0.91180  1.0000
  S   S447      1.0  0.84052  0.05258  0.92987  1.0000
  H   H2780     1.0  0.54673  0.17847  0.52232  1.0000
  C   C3464     1.0  0.78023  0.10655  0.96479  1.0000
  H   H2781     1.0  0.86587  0.01129  0.67323  1.0000
  H   H2782     1.0  0.93236  0.16636  0.92090  1.0000
  C   C3465     1.0  0.85923  0.16413  0.65511  1.0000
  C   C3466     1.0  0.72600  0.05936  0.97539  1.0000
  H   H2783     1.0  0.82770  0.07010  0.49087  1.0000
  C   C3467     1.0  0.91604  0.13476  0.97527  1.0000
  H   H2784     1.0  0.85509  0.04636  0.50604  1.0000
  H   H2785     1.0  0.98193  0.17379  0.90595  1.0000
  C   C3468     1.0  0.51868  0.06111  0.57103  1.0000
  C   C3469     1.0  0.91339  0.10102  0.97524  1.0000
  H   H2786     1.0  0.97393  0.12255  0.75249  1.0000
  C   C3470     1.0  0.66349  0.10388  0.48168  1.0000
  C   C3471     1.0  0.69650  0.10224  0.48832  1.0000
  H   H2787     1.0  0.58997  0.16507  0.96108  1.0000
  C   C3472     1.0  0.52167  0.03317  0.59869  1.0000
  H   H2788     1.0  0.52910  0.01810  0.60421  1.0000
  H   H2789     1.0  0.98992  0.15836  0.82537  1.0000
  H   H2790     1.0  0.64821  0.10095  0.48628  1.0000
  C   C3473     1.0  0.95063  0.16394  0.81017  1.0000
  H   H2791     1.0  0.70917  0.17041  0.53237  1.0000
  S   S448      1.0  0.66656  0.18134  0.93553  1.0000
  S   S449      1.0  0.49926  0.99047  0.75660  1.0000
  C   C3474     1.0  0.68297  0.00688  0.55491  1.0000
  H   H2792     1.0  0.93663  0.15874  0.86758  1.0000
  C   C3475     1.0  0.98032  0.12244  0.78081  1.0000
  H   H2793     1.0  0.65621  0.16642  0.50432  1.0000
  C   C3476     1.0  0.68890  0.05859  0.96665  1.0000
  C   C3477     1.0  0.86517  0.02991  0.48223  1.0000
  H   H2794     1.0  0.63368  0.16297  0.48426  1.0000
  H   H2795     1.0  0.95469  0.16524  0.79413  1.0000
  C   C3478     1.0  0.69407  0.17953  0.53268  1.0000
  H   H2796     1.0  0.53182  0.18122  0.92051  1.0000
  C   C3479     1.0  0.63524  0.17828  0.84110  1.0000
  H   H2797     1.0  0.79591  0.99673  0.66287  1.0000
  C   C3480     1.0  0.66983  0.99011  0.64772  1.0000
  Fe  Fe226     1.0  0.80845  0.99407  0.52650  1.0000
  C   C3481     1.0  0.95060  0.17997  0.81866  1.0000
  C   C3482     1.0  0.71462  0.02273  0.47765  1.0000
  C   C3483     1.0  0.51672  0.06648  0.64152  1.0000
  C   C3484     1.0  0.86697  0.99302  0.58428  1.0000
  C   C3485     1.0  0.79151  0.00444  0.72745  1.0000
  H   H2798     1.0  0.56873  0.18168  0.90897  1.0000
  H   H2799     1.0  0.50894  0.15866  0.49482  1.0000
  H   H2800     1.0  0.61724  0.99553  0.59696  1.0000
  C   C3486     1.0  0.81983  0.99160  0.89363  1.0000
  H   H2801     1.0  0.69075  0.18400  0.56250  1.0000
  H   H2802     1.0  0.65686  0.00098  0.57811  1.0000
  C   C3487     1.0  0.66608  0.99790  0.56390  1.0000
  H   H2803     1.0  0.92487  0.14650  0.97134  1.0000
  H   H2804     1.0  0.75627  0.98960  0.55698  1.0000
  H   H2805     1.0  0.50225  0.99138  0.64368  1.0000
  H   H2806     1.0  0.74028  0.18429  0.96295  1.0000
  C   C3488     1.0  0.96573  0.18444  0.88201  1.0000
  C   C3489     1.0  0.55226  0.18401  0.86311  1.0000
  H   H2807     1.0  0.71344  0.00818  0.97060  1.0000
  C   C3490     1.0  0.72524  0.99537  0.97390  1.0000
  H   H2808     1.0  0.99705  0.18296  0.76837  1.0000
  H   H2809     1.0  0.78140  0.98529  0.64019  1.0000
  C   C3491     1.0  0.78993  0.98859  0.71964  1.0000
  H   H2810     1.0  0.73036  0.01537  0.47716  1.0000
  C   C3492     1.0  0.99655  0.14005  0.74916  1.0000
  P   P119      1.0  0.70341  0.98759  0.50203  1.0000
  H   H2811     1.0  0.71680  0.98533  0.81500  1.0000
  C   C3493     1.0  0.49882  0.14405  0.52526  1.0000
  H   H2812     1.0  0.99864  0.14414  0.73306  1.0000
  Fe  Fe227     1.0  0.79719  0.36301  0.41330  1.0000
  H   H2813     1.0  0.69256  0.21034  0.46357  1.0000
  S   S450      1.0  0.76727  0.35581  0.41133  1.0000
  Fe  Fe228     1.0  0.84326  0.35259  0.40972  1.0000
  S   S451      1.0  0.87032  0.32904  0.39938  1.0000
  S   S452      1.0  0.81689  0.34524  0.43487  1.0000
  C   C3494     1.0  0.56150  0.31585  0.05323  1.0000
  C   C3495     1.0  0.52120  0.29674  0.18456  1.0000
  Fe  Fe229     1.0  0.72081  0.27588  0.38111  1.0000
  S   S453      1.0  0.72250  0.24926  0.36780  1.0000
  S   S454      1.0  0.75071  0.28667  0.37637  1.0000
  Fe  Fe230     1.0  0.67653  0.27485  0.40253  1.0000
  S   S455      1.0  0.67477  0.24824  0.39129  1.0000
  S   S456      1.0  0.64975  0.28883  0.42378  1.0000
  Fe  Fe231     1.0  0.70591  0.23605  0.39785  1.0000
  Fe  Fe232     1.0  0.69116  0.26364  0.36205  1.0000
  S   S457      1.0  0.68362  0.26548  0.33214  1.0000
  S   S458      1.0  0.70636  0.26142  0.41159  1.0000
  S   S459      1.0  0.69075  0.29154  0.37278  1.0000
  Fe  Fe233     1.0  0.60489  0.22509  0.29360  1.0000
  S   S460      1.0  0.57745  0.21065  0.30170  1.0000
  S   S461      1.0  0.62115  0.21885  0.31937  1.0000
  Fe  Fe234     1.0  0.59691  0.24391  0.25203  1.0000
  S   S462      1.0  0.56845  0.23180  0.25722  1.0000
  S   S463      1.0  0.60981  0.25947  0.22103  1.0000
  Fe  Fe235     1.0  0.56147  0.24018  0.28714  1.0000
  S   S464      1.0  0.52987  0.25390  0.30189  1.0000
  Fe  Fe236     1.0  0.58626  0.20316  0.27126  1.0000
  H   H2814     1.0  0.78323  0.26536  0.46542  1.0000
  S   S465      1.0  0.58826  0.25530  0.28074  1.0000
  S   S466      1.0  0.61554  0.21454  0.26436  1.0000
  H   H2815     1.0  0.85084  0.19804  0.29363  1.0000
  H   H2816     1.0  0.56147  0.20560  0.44534  1.0000
  S   S467      1.0  0.56467  0.34606  0.18602  1.0000
  C   C3496     1.0  0.50215  0.26346  0.14025  1.0000
  Fe  Fe237     1.0  0.57312  0.35835  0.15300  1.0000
  S   S468      1.0  0.54526  0.27728  0.02091  1.0000
  P   P120      1.0  0.96559  0.30397  0.98752  1.0000
  C   C3497     1.0  0.98962  0.21600  0.00529  1.0000
  H   H2817     1.0  0.72606  0.31867  0.34755  1.0000
  C   C3498     1.0  0.51268  0.19522  0.28860  1.0000
  C   C3499     1.0  0.73916  0.21967  0.46083  1.0000
  C   C3500     1.0  0.62330  0.36504  0.20106  1.0000
  H   H2818     1.0  0.99617  0.19235  0.47161  1.0000
  C   C3501     1.0  0.56269  0.27015  0.08067  1.0000
  H   H2819     1.0  0.73307  0.19986  0.36067  1.0000
  H   H2820     1.0  0.69682  0.20199  0.38430  1.0000
  C   C3502     1.0  0.68344  0.34260  0.41242  1.0000
  P   P121      1.0  0.64518  0.34510  0.19796  1.0000
  H   H2821     1.0  0.54009  0.27091  0.34277  1.0000
  C   C3503     1.0  0.52774  0.28514  0.09314  1.0000
  H   H2822     1.0  0.63986  0.31087  0.14671  1.0000
  H   H2823     1.0  0.59883  0.24016  0.45236  1.0000
  Fe  Fe238     1.0  0.58271  0.35005  0.11126  1.0000
  S   S469      1.0  0.59985  0.27461  0.98869  1.0000
  C   C3504     1.0  0.64559  0.32272  0.14951  1.0000
  H   H2824     1.0  0.64044  0.25238  0.14430  1.0000
  C   C3505     1.0  0.61627  0.23887  0.42264  1.0000
  H   H2825     1.0  0.57739  0.24253  0.02843  1.0000
  C   C3506     1.0  0.54827  0.21122  0.41939  1.0000
  H   H2826     1.0  0.69235  0.36576  0.42143  1.0000
  H   H2827     1.0  0.53799  0.27335  0.06617  1.0000
  H   H2828     1.0  0.55323  0.37116  0.04911  1.0000
  C   C3507     1.0  0.91084  0.34325  0.99159  1.0000
  C   C3508     1.0  0.65917  0.35413  0.15670  1.0000
  H   H2829     1.0  0.63168  0.37896  0.46464  1.0000
  S   S470      1.0  0.96090  0.34159  0.38839  1.0000
  Fe  Fe239     1.0  0.53188  0.30988  0.01963  1.0000
  H   H2830     1.0  0.64349  0.19536  0.04815  1.0000
  C   C3509     1.0  0.93873  0.28029  0.98768  1.0000
  H   H2831     1.0  0.71022  0.35156  0.35710  1.0000
  C   C3510     1.0  0.80955  0.20115  0.33197  1.0000
  S   S471      1.0  0.97169  0.20405  0.00117  1.0000
  H   H2832     1.0  0.83575  0.21524  0.32224  1.0000
  H   H2833     1.0  0.94830  0.25965  0.31406  1.0000
  C   C3511     1.0  0.64618  0.23783  0.46502  1.0000
  C   C3512     1.0  0.50197  0.26773  0.43308  1.0000
  C   C3513     1.0  0.63083  0.28755  0.24224  1.0000
  S   S472      1.0  0.55442  0.32019  0.99235  1.0000
  H   H2834     1.0  0.62954  0.23806  0.39178  1.0000
  Fe  Fe240     1.0  0.56627  0.28739  0.99228  1.0000
  C   C3514     1.0  0.68106  0.33914  0.21192  1.0000
  H   H2835     1.0  0.66535  0.30295  0.20104  1.0000
  C   C3515     1.0  0.95353  0.28246  0.99694  1.0000
  C   C3516     1.0  0.51988  0.23654  0.32230  1.0000
  C   C3517     1.0  0.52621  0.21608  0.32236  1.0000
  C   C3518     1.0  0.51949  0.20210  0.33909  1.0000
  C   C3519     1.0  0.54357  0.20001  0.15790  1.0000
  C   C3520     1.0  0.55611  0.18801  0.99698  1.0000
  H   H2836     1.0  0.70763  0.34301  0.44819  1.0000
  H   H2837     1.0  0.53613  0.21097  0.30939  1.0000
  H   H2838     1.0  0.60432  0.19379  0.42242  1.0000
  C   C3521     1.0  0.97784  0.32399  0.03222  1.0000
  C   C3522     1.0  0.82177  0.34369  0.35137  1.0000
  C   C3523     1.0  0.59761  0.28382  0.21173  1.0000
  C   C3524     1.0  0.60261  0.29169  0.19130  1.0000
  C   C3525     1.0  0.59273  0.31081  0.18329  1.0000
  C   C3526     1.0  0.57792  0.32229  0.19571  1.0000
  C   C3527     1.0  0.57302  0.31446  0.21618  1.0000
  C   C3528     1.0  0.58280  0.29525  0.22418  1.0000
  H   H2839     1.0  0.61399  0.28286  0.18161  1.0000
  H   H2840     1.0  0.59651  0.31654  0.16751  1.0000
  H   H2841     1.0  0.56154  0.32323  0.22587  1.0000
  H   H2842     1.0  0.57888  0.28928  0.23996  1.0000
  H   H2843     1.0  0.61270  0.33761  0.23370  1.0000
  C   C3529     1.0  0.50820  0.19892  0.02225  1.0000
  C   C3530     1.0  0.98644  0.23816  0.28019  1.0000
  C   C3531     1.0  0.66502  0.25363  0.32909  1.0000
  C   C3532     1.0  0.66145  0.25574  0.30996  1.0000
  C   C3533     1.0  0.64741  0.24588  0.30682  1.0000
  C   C3534     1.0  0.63686  0.23371  0.32284  1.0000
  C   C3535     1.0  0.64009  0.23198  0.34205  1.0000
  C   C3536     1.0  0.65417  0.24177  0.34516  1.0000
  H   H2844     1.0  0.66974  0.26491  0.29744  1.0000
  H   H2845     1.0  0.64514  0.24728  0.29196  1.0000
  H   H2846     1.0  0.63190  0.22271  0.35456  1.0000
  H   H2847     1.0  0.65680  0.23999  0.35992  1.0000
  H   H2848     1.0  0.60504  0.30669  0.25681  1.0000
  H   H2849     1.0  0.99802  0.21908  0.33544  1.0000
  H   H2850     1.0  0.64378  0.32261  0.44602  1.0000
  H   H2851     1.0  0.57981  0.24824  0.97759  1.0000
  H   H2852     1.0  0.74867  0.23054  0.45300  1.0000
  C   C3537     1.0  0.97025  0.34034  0.31113  1.0000
  H   H2853     1.0  0.97812  0.22381  0.25180  1.0000
  C   C3538     1.0  0.65292  0.25179  0.44819  1.0000
  C   C3539     1.0  0.64134  0.27111  0.44460  1.0000
  H   H2854     1.0  0.77234  0.20198  0.30241  1.0000
  C   C3540     1.0  0.51850  0.20808  0.04847  1.0000
  H   H2855     1.0  0.55263  0.19859  0.18502  1.0000
  H   H2856     1.0  0.66710  0.24758  0.43804  1.0000
  C   C3541     1.0  0.54195  0.27329  0.41669  1.0000
  C   C3542     1.0  0.61838  0.30603  0.24480  1.0000
  C   C3543     1.0  0.76341  0.33649  0.40123  1.0000
  C   C3544     1.0  0.77931  0.32154  0.39443  1.0000
  C   C3545     1.0  0.77522  0.30657  0.38664  1.0000
  C   C3546     1.0  0.75517  0.30602  0.38608  1.0000
  C   C3547     1.0  0.73932  0.32092  0.39296  1.0000
  C   C3548     1.0  0.74350  0.33618  0.40019  1.0000
  H   H2857     1.0  0.79473  0.32156  0.39511  1.0000
  H   H2858     1.0  0.78765  0.29518  0.38128  1.0000
  H   H2859     1.0  0.72392  0.32093  0.39229  1.0000
  H   H2860     1.0  0.73130  0.34799  0.40486  1.0000
  C   C3549     1.0  0.89547  0.33276  0.39618  1.0000
  C   C3550     1.0  0.89921  0.34947  0.40103  1.0000
  C   C3551     1.0  0.91933  0.35201  0.39843  1.0000
  C   C3552     1.0  0.93590  0.33794  0.39087  1.0000
  C   C3553     1.0  0.93219  0.32138  0.38566  1.0000
  C   C3554     1.0  0.91203  0.31880  0.38835  1.0000
  H   H2861     1.0  0.88666  0.36034  0.40702  1.0000
  H   H2862     1.0  0.55871  0.28572  0.12327  1.0000
  H   H2863     1.0  0.94483  0.31046  0.37982  1.0000
  H   H2864     1.0  0.90927  0.30586  0.38452  1.0000
  H   H2865     1.0  0.97078  0.26849  0.02003  1.0000
  H   H2866     1.0  0.54642  0.34622  0.09562  1.0000
  H   H2867     1.0  0.55064  0.22749  0.02373  1.0000
  P   P122      1.0  0.71200  0.29911  0.46292  1.0000
  S   S473      1.0  0.50859  0.30953  0.00273  1.0000
  C   C3555     1.0  0.50599  0.24304  0.33879  1.0000
  H   H2868     1.0  0.71441  0.23468  0.44620  1.0000
  C   C3556     1.0  0.71990  0.21774  0.33626  1.0000
  H   H2869     1.0  0.70525  0.22243  0.34564  1.0000
  H   H2870     1.0  0.55733  0.27575  0.41018  1.0000
  C   C3557     1.0  0.62129  0.37773  0.21430  1.0000
  C   C3558     1.0  0.93531  0.24866  0.01006  1.0000
  P   P123      1.0  0.55603  0.23499  0.40827  1.0000
  C   C3559     1.0  0.82062  0.37915  0.07103  1.0000
  H   H2871     1.0  0.52416  0.20351  0.27925  1.0000
  H   H2872     1.0  0.97104  0.20389  0.36691  1.0000
  C   C3560     1.0  0.59615  0.21152  0.20768  1.0000
  C   C3561     1.0  0.76770  0.20875  0.37081  1.0000
  C   C3562     1.0  0.92962  0.26350  0.99427  1.0000
  S   S474      1.0  0.50819  0.25213  0.00733  1.0000
  C   C3563     1.0  0.66713  0.35264  0.20130  1.0000
  C   C3564     1.0  0.59614  0.19163  0.18415  1.0000
  C   C3565     1.0  0.56079  0.24289  0.34078  1.0000
  H   H2873     1.0  0.61389  0.29127  0.45499  1.0000
  C   C3566     1.0  0.98454  0.20979  0.24687  1.0000
  H   H2874     1.0  0.59793  0.23563  0.38379  1.0000
  C   C3567     1.0  0.55373  0.28319  0.11108  1.0000
  H   H2875     1.0  0.76217  0.31223  0.33032  1.0000
  H   H2876     1.0  0.53235  0.22690  0.19833  1.0000
  Fe  Fe241     1.0  0.52427  0.27789  0.00117  1.0000
  C   C3568     1.0  0.53780  0.30596  0.18125  1.0000
  C   C3569     1.0  0.77147  0.26947  0.45680  1.0000
  C   C3570     1.0  0.57986  0.23598  0.41383  1.0000
  C   C3571     1.0  0.83766  0.35389  0.34170  1.0000
  C   C3572     1.0  0.55345  0.22631  0.13042  1.0000
  S   S475      1.0  0.84471  0.38034  0.41926  1.0000
  H   H2877     1.0  0.63024  0.24027  0.42595  1.0000
  C   C3573     1.0  0.60714  0.24944  0.98610  1.0000
  H   H2878     1.0  0.76556  0.22090  0.35828  1.0000
  H   H2879     1.0  0.56575  0.30737  0.04144  1.0000
  P   P124      1.0  0.51371  0.30058  0.12802  1.0000
  H   H2880     1.0  0.74445  0.22466  0.28771  1.0000
  H   H2881     1.0  0.51396  0.34208  0.13127  1.0000
  C   C3574     1.0  0.68327  0.32221  0.41600  1.0000
  C   C3575     1.0  0.55584  0.24320  0.19657  1.0000
  H   H2882     1.0  0.53190  0.21245  0.39657  1.0000
  H   H2883     1.0  0.56014  0.32050  0.15942  1.0000
  H   H2884     1.0  0.59122  0.30743  0.06062  1.0000
  C   C3576     1.0  0.94566  0.32537  0.98233  1.0000
  H   H2885     1.0  0.96763  0.32517  0.31410  1.0000
  C   C3577     1.0  0.79946  0.18764  0.32851  1.0000
  H   H2886     1.0  0.91842  0.26188  0.98683  1.0000
  H   H2887     1.0  0.51823  0.25712  0.13661  1.0000
  C   C3578     1.0  0.97917  0.20678  0.23021  1.0000
  H   H2888     1.0  0.55155  0.27532  0.22725  1.0000
  H   H2889     1.0  0.54743  0.31788  0.13072  1.0000
  C   C3579     1.0  0.70087  0.36481  0.20658  1.0000
  H   H2890     1.0  0.82439  0.33020  0.36248  1.0000
  C   C3580     1.0  0.50719  0.28599  0.43211  1.0000
  H   H2891     1.0  0.71094  0.23513  0.30929  1.0000
  H   H2892     1.0  0.83117  0.36493  0.07230  1.0000
  C   C3581     1.0  0.73483  0.33042  0.34380  1.0000
  C   C3582     1.0  0.51412  0.29478  0.16848  1.0000
  C   C3583     1.0  0.60765  0.19500  0.21801  1.0000
  S   S476      1.0  0.58830  0.32531  0.09403  1.0000
  H   H2893     1.0  0.65517  0.22290  0.46772  1.0000
  C   C3584     1.0  0.98705  0.34576  0.29672  1.0000
  H   H2894     1.0  0.51842  0.26458  0.24119  1.0000
  Fe  Fe242     1.0  0.98885  0.32060  0.37533  1.0000
  H   H2895     1.0  0.51168  0.19163  0.00971  1.0000
  C   C3585     1.0  0.53689  0.25478  0.41789  1.0000
  C   C3586     1.0  0.68705  0.37834  0.19610  1.0000
  H   H2896     1.0  0.62418  0.28676  0.13010  1.0000
  H   H2897     1.0  0.99070  0.19782  0.03444  1.0000
  C   C3587     1.0  0.53633  0.20408  0.41032  1.0000
  C   C3588     1.0  0.75781  0.20617  0.31207  1.0000
  H   H2898     1.0  0.61198  0.19623  0.23123  1.0000
  C   C3589     1.0  0.60731  0.36691  0.19155  1.0000
  H   H2899     1.0  0.54326  0.30757  0.19371  1.0000
  C   C3590     1.0  0.99548  0.19405  0.38279  1.0000
  C   C3591     1.0  0.56233  0.22322  0.16228  1.0000
  H   H2900     1.0  0.89604  0.34420  0.00157  1.0000
  C   C3592     1.0  0.54236  0.27566  0.07895  1.0000
  C   C3593     1.0  0.61192  0.24309  0.15900  1.0000
  S   S477      1.0  0.82346  0.36876  0.38772  1.0000
  C   C3594     1.0  0.68321  0.19142  0.32975  1.0000
  C   C3595     1.0  0.73567  0.20495  0.34473  1.0000
  C   C3596     1.0  0.69786  0.34522  0.21452  1.0000
  H   H2901     1.0  0.76496  0.20143  0.42058  1.0000
  H   H2902     1.0  0.90460  0.35614  0.33264  1.0000
  C   C3597     1.0  0.73752  0.36383  0.34501  1.0000
  H   H2903     1.0  0.92362  0.31544  0.00856  1.0000
  S   S478      1.0  0.99062  0.28932  0.37143  1.0000
  C   C3598     1.0  0.75807  0.36030  0.33520  1.0000
  C   C3599     1.0  0.56758  0.19703  0.02915  1.0000
  C   C3600     1.0  0.52353  0.30222  0.14884  1.0000
  C   C3601     1.0  0.97383  0.21294  0.30758  1.0000
  H   H2904     1.0  0.92877  0.23528  0.01473  1.0000
  H   H2905     1.0  0.84632  0.37987  0.32092  1.0000
  S   S479      1.0  0.58601  0.38161  0.09702  1.0000
  C   C3602     1.0  0.61586  0.23761  0.40339  1.0000
  H   H2906     1.0  0.57413  0.26363  0.06918  1.0000
  H   H2907     1.0  0.50114  0.28769  0.17159  1.0000
  H   H2908     1.0  0.55376  0.23393  0.11510  1.0000
  C   C3603     1.0  0.58985  0.20985  0.19092  1.0000
  C   C3604     1.0  0.52292  0.38270  0.04365  1.0000
  H   H2909     1.0  0.98345  0.24828  0.39211  1.0000
  H   H2910     1.0  0.51220  0.28941  0.09123  1.0000
  H   H2911     1.0  0.63448  0.31571  0.18097  1.0000
  H   H2912     1.0  0.60812  0.35686  0.18182  1.0000
  C   C3605     1.0  0.66178  0.35151  0.13721  1.0000
  C   C3606     1.0  0.57048  0.32663  0.07962  1.0000
  C   C3607     1.0  0.53999  0.38314  0.05049  1.0000
  C   C3608     1.0  0.62295  0.27639  0.45783  1.0000
  H   H2913     1.0  0.71384  0.36956  0.20860  1.0000
  H   H2914     1.0  0.92207  0.36485  0.40250  1.0000
  C   C3609     1.0  0.53630  0.33730  0.07328  1.0000
  C   C3610     1.0  0.55292  0.20026  0.43763  1.0000
  H   H2915     1.0  0.57024  0.24550  0.13593  1.0000
  C   C3611     1.0  0.80510  0.38349  0.08730  1.0000
  H   H2916     1.0  0.61929  0.22817  0.16498  1.0000
  C   C3612     1.0  0.63887  0.35176  0.45324  1.0000
  C   C3613     1.0  0.96119  0.37347  0.31893  1.0000
  H   H2917     1.0  0.97047  0.33496  0.04153  1.0000
  C   C3614     1.0  0.70068  0.33689  0.43960  1.0000
  C   C3615     1.0  0.60164  0.19392  0.03430  1.0000
  C   C3616     1.0  0.63696  0.33175  0.45727  1.0000
  H   H2918     1.0  0.57559  0.26151  0.19948  1.0000
  H   H2919     1.0  0.66845  0.36209  0.12483  1.0000
  H   H2920     1.0  0.58083  0.21413  0.34321  1.0000
  H   H2921     1.0  0.59223  0.19000  0.17089  1.0000
  C   C3617     1.0  0.97506  0.22757  0.37907  1.0000
  H   H2922     1.0  0.70851  0.33476  0.22277  1.0000
  C   C3618     1.0  0.97779  0.30741  0.00583  1.0000
  H   H2923     1.0  0.78262  0.33865  0.32201  1.0000
  S   S480      1.0  0.60241  0.34742  0.13290  1.0000
  C   C3619     1.0  0.58642  0.18520  0.03213  1.0000
  H   H2924     1.0  0.50882  0.24057  0.22629  1.0000
  H   H2925     1.0  0.51251  0.23795  0.42744  1.0000
  C   C3620     1.0  0.88072  0.37160  0.35274  1.0000
  C   C3621     1.0  0.83654  0.19514  0.30333  1.0000
  H   H2926     1.0  0.66809  0.30033  0.47071  1.0000
  H   H2927     1.0  0.59215  0.22548  0.21294  1.0000
  H   H2928     1.0  0.64716  0.35818  0.43887  1.0000
  H   H2929     1.0  0.96306  0.23858  0.37314  1.0000
  C   C3622     1.0  0.55276  0.20663  0.16986  1.0000
  H   H2930     1.0  0.65215  0.19160  0.34517  1.0000
  Fe  Fe243     1.0  0.81673  0.37477  0.44240  1.0000
  C   C3623     1.0  0.80230  0.35130  0.34736  1.0000
  C   C3624     1.0  0.95745  0.35411  0.32240  1.0000
  H   H2931     1.0  0.58677  0.29701  0.13720  1.0000
  C   C3625     1.0  0.55070  0.33763  0.08394  1.0000
  H   H2932     1.0  0.85258  0.34822  0.34527  1.0000
  H   H2933     1.0  0.56186  0.24459  0.32496  1.0000
  H   H2934     1.0  0.53761  0.26744  0.37877  1.0000
  C   C3626     1.0  0.67025  0.37233  0.19351  1.0000
  H   H2935     1.0  0.97434  0.19753  0.31522  1.0000
  C   C3627     1.0  0.54699  0.20471  0.98451  1.0000
  C   C3628     1.0  0.56086  0.25717  0.20480  1.0000
  H   H2936     1.0  0.56664  0.23812  0.44469  1.0000
  H   H2937     1.0  0.62706  0.27394  0.25216  1.0000
  H   H2938     1.0  0.53120  0.30296  0.42314  1.0000
  C   C3629     1.0  0.54728  0.25574  0.37128  1.0000
  C   C3630     1.0  0.76050  0.26972  0.42699  1.0000
  C   C3631     1.0  0.77563  0.26438  0.43811  1.0000
  C   C3632     1.0  0.98732  0.21792  0.28941  1.0000
  C   C3633     1.0  0.75479  0.19919  0.33275  1.0000
  C   C3634     1.0  0.73715  0.28619  0.45283  1.0000
  C   C3635     1.0  0.74136  0.28064  0.43425  1.0000
  C   C3636     1.0  0.89498  0.37041  0.33491  1.0000
  H   H2939     1.0  0.94492  0.34965  0.33414  1.0000
  C   C3637     1.0  0.76531  0.21329  0.38951  1.0000
  C   C3638     1.0  0.65507  0.33579  0.13360  1.0000
  C   C3639     1.0  0.76682  0.34170  0.32961  1.0000
  C   C3640     1.0  0.64776  0.28654  0.22650  1.0000
  H   H2940     1.0  0.80359  0.37268  0.10118  1.0000
  H   H2941     1.0  0.51369  0.29127  0.19964  1.0000
  H   H2942     1.0  0.67902  0.32397  0.21835  1.0000
  C   C3641     1.0  0.58037  0.23752  0.43311  1.0000
  H   H2943     1.0  0.61014  0.22144  0.03448  1.0000
  C   C3642     1.0  0.70076  0.31628  0.44321  1.0000
  C   C3643     1.0  0.69175  0.30911  0.43139  1.0000
  H   H2944     1.0  0.99685  0.24237  0.26631  1.0000
  H   H2945     1.0  0.76374  0.26578  0.41248  1.0000
  H   H2946     1.0  0.79062  0.25644  0.43215  1.0000
  C   C3644     1.0  0.52860  0.25894  0.22848  1.0000
  C   C3645     1.0  0.51680  0.25209  0.42618  1.0000
  H   H2947     1.0  0.73008  0.28491  0.42514  1.0000
  C   C3646     1.0  0.59777  0.23619  0.39894  1.0000
  H   H2948     1.0  0.94957  0.22403  0.33050  1.0000
  H   H2949     1.0  0.79005  0.34359  0.35566  1.0000
  H   H2950     1.0  0.53138  0.19807  0.22663  1.0000
  C   C3647     1.0  0.81465  0.37931  0.32384  1.0000
  H   H2951     1.0  0.69124  0.29339  0.43402  1.0000
  C   C3648     1.0  0.92650  0.32694  0.99543  1.0000
  H   H2952     1.0  0.76111  0.22875  0.39133  1.0000
  H   H2953     1.0  0.95466  0.23896  0.03135  1.0000
  H   H2954     1.0  0.67706  0.35264  0.40033  1.0000
  C   C3649     1.0  0.69194  0.34997  0.42436  1.0000
  C   C3650     1.0  0.77248  0.18875  0.36838  1.0000
  C   C3651     1.0  0.57955  0.22644  0.03021  1.0000
  C   C3652     1.0  0.72311  0.22490  0.31574  1.0000
  C   C3653     1.0  0.54386  0.20986  0.13820  1.0000
  H   H2955     1.0  0.59039  0.19269  0.08262  1.0000
  C   C3654     1.0  0.95895  0.24801  0.30705  1.0000
  C   C3655     1.0  0.62280  0.32354  0.23159  1.0000
  C   C3656     1.0  0.63982  0.32267  0.21570  1.0000
  C   C3657     1.0  0.60046  0.21963  0.97929  1.0000
  C   C3658     1.0  0.54150  0.32625  0.05810  1.0000
  H   H2956     1.0  0.96883  0.21840  0.22254  1.0000
  H   H2957     1.0  0.97214  0.26874  0.28216  1.0000
  C   C3659     1.0  0.83409  0.37173  0.32800  1.0000
  C   C3660     1.0  0.59371  0.28195  0.14340  1.0000
  H   H2958     1.0  0.52994  0.20778  0.05649  1.0000
  C   C3661     1.0  0.79860  0.36906  0.33336  1.0000
  C   C3662     1.0  0.59438  0.23996  0.98065  1.0000
  C   C3663     1.0  0.54728  0.31334  0.16185  1.0000
  C   C3664     1.0  0.82805  0.20481  0.31946  1.0000
  S   S481      1.0  0.52241  0.32533  0.04606  1.0000
  H   H2959     1.0  0.58602  0.18949  0.11916  1.0000
  C   C3665     1.0  0.64977  0.34100  0.17282  1.0000
  C   C3666     1.0  0.61911  0.20872  0.98370  1.0000
  C   C3667     1.0  0.52324  0.24542  0.22012  1.0000
  C   C3668     1.0  0.74202  0.21903  0.30363  1.0000
  H   H2960     1.0  0.65704  0.27211  0.22430  1.0000
  C   C3669     1.0  0.63003  0.36349  0.46774  1.0000
  C   C3670     1.0  0.62399  0.25678  0.14724  1.0000
  C   C3671     1.0  0.59854  0.23882  0.43750  1.0000
  H   H2961     1.0  0.57847  0.21008  0.37919  1.0000
  C   C3672     1.0  0.54861  0.25782  0.35087  1.0000
  C   C3673     1.0  0.54728  0.26501  0.22064  1.0000
  C   C3674     1.0  0.57013  0.22352  0.37146  1.0000
  C   C3675     1.0  0.53326  0.28920  0.10929  1.0000
  H   H2962     1.0  0.58424  0.27026  0.09779  1.0000
  C   C3676     1.0  0.56444  0.21783  0.02760  1.0000
  C   C3677     1.0  0.53674  0.23764  0.20417  1.0000
  C   C3678     1.0  0.61488  0.27616  0.13933  1.0000
  C   C3679     1.0  0.54012  0.31166  0.14569  1.0000
  C   C3680     1.0  0.70750  0.20807  0.46683  1.0000
  H   H2963     1.0  0.63314  0.37616  0.22232  1.0000
  C   C3681     1.0  0.99141  0.36494  0.29373  1.0000
  H   H2964     1.0  0.55236  0.20128  0.24881  1.0000
  H   H2965     1.0  0.56521  0.27303  0.15857  1.0000
  C   C3682     1.0  0.97238  0.25313  0.28903  1.0000
  C   C3683     1.0  0.62594  0.23856  0.99015  1.0000
  C   C3684     1.0  0.50623  0.20851  0.35584  1.0000
  C   C3685     1.0  0.58987  0.38167  0.19473  1.0000
  S   S482      1.0  0.55325  0.35882  0.13223  1.0000
  H   H2966     1.0  0.68088  0.20756  0.32510  1.0000
  H   H2967     1.0  0.99732  0.31666  0.43989  1.0000
  H   H2968     1.0  0.98996  0.36146  0.17869  1.0000
  H   H2969     1.0  0.77623  0.37858  0.37012  1.0000
  C   C3686     1.0  0.71986  0.22204  0.45695  1.0000
  P   P125      1.0  0.57467  0.23127  0.17786  1.0000
  C   C3687     1.0  0.50159  0.32524  0.11673  1.0000
  C   C3688     1.0  0.96843  0.32177  0.01781  1.0000
  H   H2970     1.0  0.53679  0.20460  0.12896  1.0000
  C   C3689     1.0  0.95910  0.26755  0.01288  1.0000
  C   C3690     1.0  0.58161  0.26838  0.15537  1.0000
  C   C3691     1.0  0.97807  0.37891  0.30463  1.0000
  H   H2971     1.0  0.87925  0.35833  0.36418  1.0000
  H   H2972     1.0  0.80330  0.20893  0.34426  1.0000
  C   C3692     1.0  0.98652  0.23308  0.38972  1.0000
  C   C3693     1.0  0.97951  0.20804  0.37564  1.0000
  H   H2973     1.0  0.64617  0.20985  0.99268  1.0000
  C   C3694     1.0  0.59061  0.24879  0.16305  1.0000
  H   H2974     1.0  0.73039  0.37800  0.34949  1.0000
  C   C3695     1.0  0.57590  0.31589  0.06411  1.0000
  H   H2975     1.0  0.53561  0.21643  0.99071  1.0000
  H   H2976     1.0  0.52111  0.34590  0.07660  1.0000
  C   C3696     1.0  0.95971  0.22794  0.31633  1.0000
  H   H2977     1.0  0.66400  0.36677  0.15894  1.0000
  C   C3697     1.0  0.57146  0.22572  0.35108  1.0000
  S   S483      1.0  0.71588  0.20527  0.41513  1.0000
  C   C3698     1.0  0.76756  0.19789  0.40598  1.0000
  H   H2978     1.0  0.95386  0.33123  0.01619  1.0000
  C   C3699     1.0  0.59812  0.21450  0.03358  1.0000
  H   H2979     1.0  0.98582  0.25570  0.32660  1.0000
  H   H2980     1.0  0.65666  0.33415  0.11843  1.0000
  H   H2981     1.0  0.52294  0.37023  0.03712  1.0000
  C   C3700     1.0  0.52355  0.19884  0.03190  1.0000
  C   C3701     1.0  0.72596  0.34892  0.34926  1.0000
  H   H2982     1.0  0.67663  0.31649  0.40676  1.0000
  C   C3702     1.0  0.64270  0.32546  0.16900  1.0000
  C   C3703     1.0  0.56269  0.23295  0.14238  1.0000
  C   C3704     1.0  0.55817  0.23859  0.38172  1.0000
  C   C3705     1.0  0.52715  0.28879  0.42390  1.0000
  P   P126      1.0  0.77300  0.37959  0.32942  1.0000
  C   C3706     1.0  0.65231  0.30402  0.21332  1.0000
  C   C3707     1.0  0.75525  0.32680  0.33403  1.0000
  C   C3708     1.0  0.94993  0.25075  0.01943  1.0000
  C   C3709     1.0  0.56837  0.27391  0.09675  1.0000
  C   C3710     1.0  0.63185  0.21823  0.98910  1.0000
  H   H2983     1.0  0.74077  0.32409  0.46169  1.0000
  C   C3711     1.0  0.75224  0.28008  0.46426  1.0000
  H   H2984     1.0  0.98060  0.37290  0.25769  1.0000
  H   H2985     1.0  0.99696  0.33467  0.28850  1.0000
  H   H2986     1.0  0.50098  0.25888  0.33877  1.0000
  C   C3712     1.0  0.74610  0.20331  0.47481  1.0000
  Fe  Fe244     1.0  0.60298  0.38001  0.12067  1.0000
  H   H2987     1.0  0.57763  0.38283  0.18737  1.0000
  C   C3713     1.0  0.99659  0.31187  0.03483  1.0000
  C   C3714     1.0  0.50451  0.34273  0.12108  1.0000
  C   C3715     1.0  0.55502  0.18751  0.24355  1.0000
  H   H2988     1.0  0.63570  0.24578  0.99459  1.0000
  C   C3716     1.0  0.99638  0.20989  0.02333  1.0000
  C   C3717     1.0  0.52929  0.18630  0.41928  1.0000
  S   S484      1.0  0.49903  0.19046  0.37682  1.0000
  H   H2989     1.0  0.64174  0.19119  0.41113  1.0000
  C   C3718     1.0  0.98698  0.18871  0.22355  1.0000
  H   H2990     1.0  0.99190  0.23660  0.97726  1.0000
  P   P127      1.0  0.54925  0.18602  0.02366  1.0000
  H   H2991     1.0  0.65965  0.38318  0.18553  1.0000
  C   C3719     1.0  0.99675  0.29547  0.00839  1.0000
  S   S485      1.0  0.80932  0.38236  0.47320  1.0000
  H   H2992     1.0  0.76524  0.36924  0.29431  1.0000
  C   C3720     1.0  0.99123  0.38148  0.24726  1.0000
  C   C3721     1.0  0.99699  0.23168  0.99110  1.0000
  C   C3722     1.0  0.61624  0.26243  0.47473  1.0000
  C   C3723     1.0  0.76916  0.38390  0.29003  1.0000
  H   H2993     1.0  0.53634  0.18709  0.16399  1.0000
  H   H2994     1.0  0.71488  0.18660  0.31516  1.0000
  H   H2995     1.0  0.55694  0.31248  0.47484  1.0000
  H   H2996     1.0  0.52469  0.18628  0.33906  1.0000
  C   C3724     1.0  0.99804  0.19480  0.25684  1.0000
  H   H2997     1.0  0.98277  0.18627  0.21073  1.0000
  C   C3725     1.0  0.49920  0.22900  0.35563  1.0000
  C   C3726     1.0  0.70427  0.18722  0.39054  1.0000
  C   C3727     1.0  0.61262  0.18545  0.41084  1.0000
  C   C3728     1.0  0.54318  0.18570  0.23086  1.0000
  C   C3729     1.0  0.69646  0.28058  0.47543  1.0000
  C   C3730     1.0  0.62611  0.32349  0.47576  1.0000
  H   H2998     1.0  0.95134  0.38405  0.32782  1.0000
  C   C3731     1.0  0.72978  0.32395  0.47574  1.0000
  Fe  Fe245     1.0  0.59945  0.33148  0.67132  1.0000
  S   S486      1.0  0.62723  0.33230  0.64637  1.0000
  S   S487      1.0  0.60035  0.31336  0.70234  1.0000
  Fe  Fe246     1.0  0.57156  0.35775  0.64505  1.0000
  S   S488      1.0  0.59662  0.36168  0.61802  1.0000
  S   S489      1.0  0.53829  0.36953  0.64626  1.0000
  Fe  Fe247     1.0  0.60728  0.32855  0.62724  1.0000
  S   S490      1.0  0.61806  0.30797  0.60460  1.0000
  Fe  Fe248     1.0  0.61440  0.36523  0.63922  1.0000
  C   C3732     1.0  0.61658  0.33533  0.49019  1.0000
  S   S491      1.0  0.58097  0.32453  0.65297  1.0000
  S   S492      1.0  0.58792  0.36460  0.66534  1.0000
  Fe  Fe249     1.0  0.56448  0.33128  0.80741  1.0000
  S   S493      1.0  0.54588  0.34074  0.83571  1.0000
  S   S494      1.0  0.56259  0.35305  0.77841  1.0000
  S   S495      1.0  0.56646  0.29678  0.85920  1.0000
  Fe  Fe250     1.0  0.53970  0.30955  0.84474  1.0000
  H   H2999     1.0  0.59957  0.29806  0.74378  1.0000
  Fe  Fe251     1.0  0.57399  0.32732  0.84781  1.0000
  S   S496      1.0  0.58313  0.34315  0.86711  1.0000
  S   S497      1.0  0.59339  0.32044  0.81873  1.0000
  C   C3733     1.0  0.68903  0.19123  0.96803  1.0000
  Fe  Fe252     1.0  0.58948  0.23288  0.51918  1.0000
  Fe  Fe253     1.0  0.56238  0.25652  0.55023  1.0000
  S   S498      1.0  0.55593  0.28119  0.56808  1.0000
  S   S499      1.0  0.56763  0.26230  0.51676  1.0000
  C   C3734     1.0  0.96733  0.19089  0.86138  1.0000
  H   H3000     1.0  0.60218  0.26667  0.48494  1.0000
  S   S500      1.0  0.52168  0.34012  0.95019  1.0000
  C   C3735     1.0  0.62963  0.25184  0.87262  1.0000
  H   H3001     1.0  0.65144  0.20775  0.85748  1.0000
  C   C3736     1.0  0.94887  0.34050  0.96544  1.0000
  C   C3737     1.0  0.97886  0.22320  0.60949  1.0000
  H   H3002     1.0  0.62926  0.25968  0.88407  1.0000
  Fe  Fe254     1.0  0.97331  0.21592  0.92831  1.0000
  H   H3003     1.0  0.94667  0.23194  0.56958  1.0000
  H   H3004     1.0  0.71874  0.34341  0.51766  1.0000
  H   H3005     1.0  0.58524  0.31337  0.77371  1.0000
  S   S501      1.0  0.94190  0.22770  0.92191  1.0000
  H   H3006     1.0  0.66242  0.26598  0.97182  1.0000
  S   S502      1.0  0.55564  0.30119  0.81529  1.0000
  C   C3738     1.0  0.53882  0.33981  0.69604  1.0000
  S   S503      1.0  0.90596  0.18826  0.95149  1.0000
  C   C3739     1.0  0.61893  0.35533  0.48617  1.0000
  C   C3740     1.0  0.61885  0.25083  0.84293  1.0000
  H   H3007     1.0  0.87509  0.19100  0.88778  1.0000
  S   S504      1.0  0.95838  0.35739  0.91118  1.0000
  H   H3008     1.0  0.60276  0.36377  0.94353  1.0000
  C   C3741     1.0  0.66601  0.19663  0.51656  1.0000
  C   C3742     1.0  0.64159  0.23267  0.87254  1.0000
  H   H3009     1.0  0.90964  0.36882  0.80284  1.0000
  C   C3743     1.0  0.61816  0.26087  0.85794  1.0000
  C   C3744     1.0  0.92648  0.33693  0.92451  1.0000
  C   C3745     1.0  0.94757  0.33567  0.91890  1.0000
  C   C3746     1.0  0.96040  0.31673  0.92009  1.0000
  C   C3747     1.0  0.95222  0.29917  0.92673  1.0000
  C   C3748     1.0  0.64200  0.22245  0.85776  1.0000
  H   H3010     1.0  0.91646  0.35141  0.92395  1.0000
  H   H3011     1.0  0.97670  0.31568  0.91589  1.0000
  H   H3012     1.0  0.96218  0.28465  0.92741  1.0000
  H   H3013     1.0  0.65919  0.20100  0.50363  1.0000
  H   H3014     1.0  0.71317  0.37623  0.66635  1.0000
  H   H3015     1.0  0.92816  0.25963  0.88095  1.0000
  C   C3749     1.0  0.69976  0.31361  0.49846  1.0000
  C   C3750     1.0  0.60720  0.37200  0.78237  1.0000
  C   C3751     1.0  0.66447  0.19958  0.55028  1.0000
  H   H3016     1.0  0.52270  0.18926  0.48803  1.0000
  S   S505      1.0  0.54639  0.28541  0.97262  1.0000
  C   C3752     1.0  0.90504  0.19507  0.87103  1.0000
  H   H3017     1.0  0.94494  0.27050  0.79182  1.0000
  C   C3753     1.0  0.57850  0.32002  0.51001  1.0000
  C   C3754     1.0  0.49966  0.37326  0.74931  1.0000
  C   C3755     1.0  0.51163  0.27096  0.84833  1.0000
  H   H3018     1.0  0.53468  0.21292  0.50110  1.0000
  H   H3019     1.0  0.77114  0.37347  0.92288  1.0000
  H   H3020     1.0  0.62783  0.36116  0.91172  1.0000
  H   H3021     1.0  0.61231  0.36470  0.49715  1.0000
  H   H3022     1.0  0.98752  0.37724  0.86320  1.0000
  C   C3756     1.0  0.93323  0.35688  0.96179  1.0000
  C   C3757     1.0  0.93754  0.27832  0.85252  1.0000
  H   H3023     1.0  0.56032  0.35282  0.93603  1.0000
  C   C3758     1.0  0.50801  0.20222  0.55731  1.0000
  C   C3759     1.0  0.70150  0.32449  0.51186  1.0000
  C   C3760     1.0  0.93113  0.30046  0.93253  1.0000
  C   C3761     1.0  0.86973  0.36014  0.88660  1.0000
  C   C3762     1.0  0.56634  0.34174  0.89037  1.0000
  C   C3763     1.0  0.57054  0.34850  0.90563  1.0000
  C   C3764     1.0  0.55716  0.34743  0.92430  1.0000
  C   C3765     1.0  0.53947  0.33978  0.92764  1.0000
  C   C3766     1.0  0.53519  0.33317  0.91236  1.0000
  C   C3767     1.0  0.54865  0.33403  0.89376  1.0000
  C   C3768     1.0  0.97623  0.33583  0.85477  1.0000
  C   C3769     1.0  0.68377  0.18736  0.54972  1.0000
  H   H3024     1.0  0.52153  0.32724  0.91500  1.0000
  H   H3025     1.0  0.54519  0.32893  0.88203  1.0000
  C   C3770     1.0  0.60043  0.29993  0.59542  1.0000
  C   C3771     1.0  0.57974  0.30880  0.59859  1.0000
  C   C3772     1.0  0.56635  0.30283  0.59016  1.0000
  C   C3773     1.0  0.57338  0.28773  0.57877  1.0000
  C   C3774     1.0  0.59398  0.27864  0.57588  1.0000
  C   C3775     1.0  0.60748  0.28486  0.58398  1.0000
  H   H3026     1.0  0.57410  0.32041  0.60735  1.0000
  H   H3027     1.0  0.55041  0.30983  0.59264  1.0000
  H   H3028     1.0  0.59947  0.26677  0.56750  1.0000
  H   H3029     1.0  0.62343  0.27789  0.58147  1.0000
  C   C3776     1.0  0.96292  0.23976  0.60797  1.0000
  H   H3030     1.0  0.97699  0.27242  0.96340  1.0000
  C   C3777     1.0  0.66812  0.36810  0.76048  1.0000
  H   H3031     1.0  0.54397  0.34715  0.57453  1.0000
  H   H3032     1.0  0.94792  0.29951  0.82660  1.0000
  S   S506      1.0  0.50886  0.30476  0.86262  1.0000
  C   C3778     1.0  0.91045  0.37183  0.84974  1.0000
  H   H3033     1.0  0.59116  0.23244  0.93685  1.0000
  C   C3779     1.0  0.55934  0.21857  0.83004  1.0000
  C   C3780     1.0  0.98285  0.34366  0.80299  1.0000
  H   H3034     1.0  0.98760  0.22114  0.62071  1.0000
  H   H3035     1.0  0.52029  0.19079  0.95738  1.0000
  H   H3036     1.0  0.57678  0.37595  0.57019  1.0000
  C   C3781     1.0  0.51268  0.35517  0.75529  1.0000
  H   H3037     1.0  0.97554  0.35838  0.80616  1.0000
  C   C3782     1.0  0.52754  0.33236  0.68676  1.0000
  H   H3038     1.0  0.64571  0.36269  0.66559  1.0000
  C   C3783     1.0  0.66337  0.27095  0.48583  1.0000
  H   H3039     1.0  0.90220  0.38024  0.86124  1.0000
  C   C3784     1.0  0.86445  0.37049  0.91796  1.0000
  C   C3785     1.0  0.58885  0.32442  0.72339  1.0000
  C   C3786     1.0  0.57818  0.34422  0.72160  1.0000
  C   C3787     1.0  0.56991  0.35285  0.73858  1.0000
  C   C3788     1.0  0.57251  0.34180  0.75740  1.0000
  C   C3789     1.0  0.58310  0.32200  0.75925  1.0000
  C   C3790     1.0  0.59120  0.31333  0.74229  1.0000
  H   H3040     1.0  0.57643  0.35293  0.70714  1.0000
  H   H3041     1.0  0.56148  0.36806  0.73711  1.0000
  H   H3042     1.0  0.57425  0.36301  0.51476  1.0000
  H   H3043     1.0  0.64490  0.35010  0.80810  1.0000
  H   H3044     1.0  0.93387  0.22232  0.88196  1.0000
  C   C3791     1.0  0.65567  0.20430  0.53366  1.0000
  C   C3792     1.0  0.56238  0.31734  0.52648  1.0000
  H   H3045     1.0  0.66055  0.37791  0.78869  1.0000
  H   H3046     1.0  0.62013  0.25066  0.53136  1.0000
  H   H3047     1.0  0.56383  0.31801  0.54116  1.0000
  H   H3048     1.0  0.59528  0.18743  0.87926  1.0000
  H   H3049     1.0  0.50679  0.35641  0.80409  1.0000
  C   C3793     1.0  0.60721  0.34983  0.93816  1.0000
  C   C3794     1.0  0.96037  0.25041  0.81394  1.0000
  H   H3050     1.0  0.51440  0.20701  0.56742  1.0000
  C   C3795     1.0  0.73377  0.18928  0.48477  1.0000
  C   C3796     1.0  0.65147  0.37626  0.66333  1.0000
  C   C3797     1.0  0.54953  0.22018  0.79901  1.0000
  C   C3798     1.0  0.55075  0.24041  0.79330  1.0000
  C   C3799     1.0  0.55642  0.24970  0.80580  1.0000
  C   C3800     1.0  0.56064  0.23889  0.82413  1.0000
  H   H3051     1.0  0.52095  0.34536  0.74512  1.0000
  H   H3052     1.0  0.67671  0.20073  0.96132  1.0000
  Fe  Fe255     1.0  0.65086  0.19376  0.90990  1.0000
  H   H3053     1.0  0.98824  0.19426  0.83288  1.0000
  H   H3054     1.0  0.63729  0.32981  0.74262  1.0000
  H   H3055     1.0  0.87418  0.21157  0.91201  1.0000
  H   H3056     1.0  0.72549  0.37255  0.60067  1.0000
  C   C3801     1.0  0.94510  0.22176  0.83232  1.0000
  C   C3802     1.0  0.92208  0.20327  0.86968  1.0000
  C   C3803     1.0  0.62171  0.36985  0.70843  1.0000
  C   C3804     1.0  0.99634  0.34212  0.78474  1.0000
  C   C3805     1.0  0.59328  0.19422  0.84825  1.0000
  H   H3057     1.0  0.62423  0.33812  0.71198  1.0000
  H   H3058     1.0  0.55507  0.33411  0.69448  1.0000
  C   C3806     1.0  0.72470  0.38260  0.65471  1.0000
  H   H3059     1.0  0.54532  0.21293  0.78923  1.0000
  H   H3060     1.0  0.54755  0.24888  0.77909  1.0000
  H   H3061     1.0  0.55784  0.26524  0.80116  1.0000
  H   H3062     1.0  0.56525  0.24637  0.83345  1.0000
  C   C3807     1.0  0.94047  0.28374  0.88399  1.0000
  C   C3808     1.0  0.70897  0.19426  0.96032  1.0000
  C   C3809     1.0  0.93488  0.27255  0.87319  1.0000
  C   C3810     1.0  0.98930  0.32111  0.86543  1.0000
  C   C3811     1.0  0.94493  0.25696  0.80314  1.0000
  H   H3063     1.0  0.53830  0.36076  0.71373  1.0000
  H   H3064     1.0  0.64712  0.27466  0.48658  1.0000
  H   H3065     1.0  0.90206  0.37077  0.97151  1.0000
  C   C3812     1.0  0.92943  0.22863  0.82164  1.0000
  C   C3813     1.0  0.57629  0.31851  0.49127  1.0000
  C   C3814     1.0  0.93928  0.34738  0.83713  1.0000
  H   H3066     1.0  0.62060  0.31218  0.84561  1.0000
  C   C3815     1.0  0.54008  0.22378  0.88265  1.0000
  H   H3067     1.0  0.98896  0.21913  0.76759  1.0000
  C   C3816     1.0  0.62591  0.38504  0.71540  1.0000
  S   S507      1.0  0.97083  0.23761  0.94768  1.0000
  H   H3068     1.0  0.68158  0.29628  0.85555  1.0000
  Fe  Fe256     1.0  0.58326  0.29091  0.82902  1.0000
  H   H3069     1.0  0.97855  0.25530  0.85172  1.0000
  S   S508      1.0  0.58613  0.22834  0.55232  1.0000
  S   S509      1.0  0.65742  0.22253  0.88983  1.0000
  S   S510      1.0  0.56641  0.21467  0.52074  1.0000
  H   H3070     1.0  0.52888  0.30725  0.50428  1.0000
  S   S511      1.0  0.92009  0.27889  0.94114  1.0000
  S   S512      1.0  0.96416  0.19096  0.95316  1.0000
  C   C3817     1.0  0.91420  0.35822  0.97473  1.0000
  Fe  Fe257     1.0  0.53236  0.31720  0.97546  1.0000
  C   C3818     1.0  0.69792  0.37894  0.73753  1.0000
  C   C3819     1.0  0.97150  0.21286  0.58229  1.0000
  C   C3820     1.0  0.52205  0.21819  0.49366  1.0000
  C   C3821     1.0  0.57403  0.23119  0.87191  1.0000
  C   C3822     1.0  0.60343  0.18694  0.86409  1.0000
  H   H3071     1.0  0.95498  0.19343  0.80898  1.0000
  H   H3072     1.0  0.58419  0.35448  0.90305  1.0000
  C   C3823     1.0  0.98689  0.28314  0.95697  1.0000
  H   H3073     1.0  0.93274  0.26988  0.84425  1.0000
  H   H3074     1.0  0.90496  0.18608  0.86067  1.0000
  C   C3824     1.0  0.63100  0.30697  0.85566  1.0000
  H   H3075     1.0  0.59774  0.28232  0.52068  1.0000
  H   H3076     1.0  0.93447  0.29138  0.97507  1.0000
  C   C3825     1.0  0.63015  0.35799  0.80510  1.0000
  C   C3826     1.0  0.58952  0.24849  0.93186  1.0000
  C   C3827     1.0  0.63405  0.38043  0.73246  1.0000
  C   C3828     1.0  0.50421  0.28088  0.86439  1.0000
  H   H3077     1.0  0.97230  0.22852  0.83697  1.0000
  S   S513      1.0  0.53683  0.24042  0.55403  1.0000
  H   H3078     1.0  0.97230  0.25892  0.81109  1.0000
  H   H3079     1.0  0.51127  0.24540  0.83669  1.0000
  S   S514      1.0  0.51957  0.25513  0.50233  1.0000
  C   C3829     1.0  0.91475  0.36557  0.81670  1.0000
  H   H3080     1.0  0.58918  0.22919  0.86271  1.0000
  H   H3081     1.0  0.74376  0.34302  0.48552  1.0000
  C   C3830     1.0  0.55984  0.22039  0.87092  1.0000
  H   H3082     1.0  0.86710  0.19256  0.63959  1.0000
  H   H3083     1.0  0.68733  0.30561  0.50228  1.0000
  P   P128      1.0  0.96180  0.32871  0.84065  1.0000
  C   C3831     1.0  0.92939  0.24614  0.80707  1.0000
  C   C3832     1.0  0.70531  0.26120  0.48395  1.0000
  C   C3833     1.0  0.56831  0.28103  0.92413  1.0000
  H   H3084     1.0  0.91729  0.25131  0.79882  1.0000
  C   C3834     1.0  0.51209  0.23819  0.49205  1.0000
  H   H3085     1.0  0.93803  0.27944  0.90004  1.0000
  C   C3835     1.0  0.62792  0.24315  0.47839  1.0000
  H   H3086     1.0  0.60381  0.37480  0.76777  1.0000
  H   H3087     1.0  0.49992  0.35834  0.89452  1.0000
  C   C3836     1.0  0.63776  0.36058  0.74284  1.0000
  C   C3837     1.0  0.95216  0.30622  0.85335  1.0000
  C   C3838     1.0  0.97895  0.32635  0.81705  1.0000
  H   H3088     1.0  0.54569  0.21953  0.95429  1.0000
  C   C3839     1.0  0.94871  0.30073  0.87420  1.0000
  H   H3089     1.0  0.62479  0.30794  0.47865  1.0000
  C   C3840     1.0  0.73146  0.33480  0.48917  1.0000
  C   C3841     1.0  0.51703  0.36824  0.56785  1.0000
  H   H3090     1.0  0.61665  0.35785  0.83614  1.0000
  C   C3842     1.0  0.71149  0.38211  0.59723  1.0000
  C   C3843     1.0  0.92797  0.35748  0.85250  1.0000
  H   H3091     1.0  0.58832  0.32040  0.47824  1.0000
  C   C3844     1.0  0.59471  0.37124  0.81769  1.0000
  H   H3092     1.0  0.90331  0.22743  0.90889  1.0000
  C   C3845     1.0  0.62468  0.26469  0.53012  1.0000
  C   C3846     1.0  0.64294  0.26477  0.53506  1.0000
  C   C3847     1.0  0.64895  0.28290  0.53301  1.0000
  C   C3848     1.0  0.63657  0.30096  0.52629  1.0000
  C   C3849     1.0  0.61773  0.30103  0.52223  1.0000
  C   C3850     1.0  0.61201  0.28275  0.52393  1.0000
  P   P129      1.0  0.60187  0.32448  0.51362  1.0000
  S   S515      1.0  0.62057  0.22551  0.49977  1.0000
  C   C3851     1.0  0.59443  0.34082  0.53155  1.0000
  C   C3852     1.0  0.60149  0.33542  0.54940  1.0000
  C   C3853     1.0  0.59530  0.34820  0.56310  1.0000
  H   H3093     1.0  0.93279  0.35453  0.86652  1.0000
  C   C3854     1.0  0.66266  0.37825  0.67652  1.0000
  C   C3855     1.0  0.58042  0.35885  0.52810  1.0000
  H   H3094     1.0  0.57953  0.25370  0.88470  1.0000
  H   H3095     1.0  0.88611  0.34459  0.90969  1.0000
  C   C3856     1.0  0.95134  0.24293  0.59358  1.0000
  H   H3096     1.0  0.97454  0.20254  0.57225  1.0000
  C   C3857     1.0  0.94618  0.29508  0.84260  1.0000
  H   H3097     1.0  0.86819  0.36832  0.93238  1.0000
  C   C3858     1.0  0.67232  0.25159  0.49382  1.0000
  H   H3098     1.0  0.65248  0.25078  0.54031  1.0000
  H   H3099     1.0  0.66315  0.28295  0.53675  1.0000
  H   H3100     1.0  0.64144  0.31491  0.52468  1.0000
  C   C3859     1.0  0.54249  0.31131  0.50574  1.0000
  H   H3101     1.0  0.61140  0.32123  0.55318  1.0000
  H   H3102     1.0  0.60081  0.34387  0.57686  1.0000
  H   H3103     1.0  0.51546  0.24406  0.96743  1.0000
  H   H3104     1.0  0.64078  0.21393  0.53396  1.0000
  C   C3860     1.0  0.99148  0.24534  0.85695  1.0000
  H   H3105     1.0  0.54417  0.26029  0.90445  1.0000
  H   H3106     1.0  0.97458  0.23743  0.88691  1.0000
  H   H3107     1.0  0.58797  0.33439  0.96307  1.0000
  H   H3108     1.0  0.52123  0.27755  0.83493  1.0000
  C   C3861     1.0  0.66530  0.29806  0.86130  1.0000
  C   C3862     1.0  0.85510  0.37663  0.88057  1.0000
  C   C3863     1.0  0.63077  0.23159  0.84289  1.0000
  C   C3864     1.0  0.71398  0.31316  0.48035  1.0000
  H   H3109     1.0  0.60893  0.27563  0.85814  1.0000
  H   H3110     1.0  0.95961  0.25022  0.61790  1.0000
  H   H3111     1.0  0.90202  0.32044  0.93610  1.0000
  H   H3112     1.0  0.55351  0.19344  0.82117  1.0000
  C   C3865     1.0  0.92105  0.21558  0.88295  1.0000
  H   H3113     1.0  0.59714  0.19947  0.81613  1.0000
  C   C3866     1.0  0.62642  0.34998  0.71805  1.0000
  H   H3114     1.0  0.59050  0.21228  0.97531  1.0000
  H   H3115     1.0  0.53512  0.32110  0.67781  1.0000
  S   S516      1.0  0.92703  0.22449  0.97031  1.0000
  H   H3116     1.0  0.52573  0.33557  0.77928  1.0000
  C   C3867     1.0  0.98922  0.23527  0.87684  1.0000
  C   C3868     1.0  0.67234  0.24426  0.93150  1.0000
  C   C3869     1.0  0.67409  0.24747  0.94964  1.0000
  C   C3870     1.0  0.66144  0.26367  0.95756  1.0000
  C   C3871     1.0  0.64700  0.27667  0.94740  1.0000
  C   C3872     1.0  0.64547  0.27384  0.92894  1.0000
  C   C3873     1.0  0.65812  0.25740  0.92119  1.0000
  P   P130      1.0  0.62641  0.29007  0.91594  1.0000
  C   C3874     1.0  0.60464  0.27824  0.92107  1.0000
  C   C3875     1.0  0.61858  0.31363  0.92434  1.0000
  C   C3876     1.0  0.62707  0.33030  0.91340  1.0000
  C   C3877     1.0  0.62133  0.34834  0.92027  1.0000
  H   H3117     1.0  0.96677  0.36779  0.84483  1.0000
  C   C3878     1.0  0.59880  0.33329  0.94916  1.0000
  C   C3879     1.0  0.60432  0.31530  0.94224  1.0000
  C   C3880     1.0  0.58535  0.28995  0.91943  1.0000
  H   H3118     1.0  0.68004  0.36148  0.73083  1.0000
  C   C3881     1.0  0.96039  0.23298  0.82860  1.0000
  C   C3882     1.0  0.60662  0.25737  0.92710  1.0000
  C   C3883     1.0  0.63657  0.29544  0.88942  1.0000
  C   C3884     1.0  0.62331  0.30238  0.87616  1.0000
  C   C3885     1.0  0.65765  0.29375  0.88185  1.0000
  H   H3119     1.0  0.68178  0.23151  0.92539  1.0000
  H   H3120     1.0  0.51738  0.36279  0.55470  1.0000
  C   C3886     1.0  0.53464  0.23780  0.89505  1.0000
  H   H3121     1.0  0.63694  0.28867  0.95422  1.0000
  H   H3122     1.0  0.65676  0.25462  0.90727  1.0000
  H   H3123     1.0  0.63812  0.32946  0.89958  1.0000
  C   C3887     1.0  0.88783  0.19810  0.88624  1.0000
  C   C3888     1.0  0.69324  0.24679  0.49316  1.0000
  C   C3889     1.0  0.98345  0.20972  0.59649  1.0000
  H   H3124     1.0  0.59764  0.30262  0.95099  1.0000
  H   H3125     1.0  0.58342  0.30603  0.91481  1.0000
  H   H3126     1.0  0.62121  0.24781  0.92841  1.0000
  H   H3127     1.0  0.60700  0.30419  0.88155  1.0000
  H   H3128     1.0  0.66823  0.28912  0.89174  1.0000
  C   C3890     1.0  0.95561  0.22945  0.58078  1.0000
  C   C3891     1.0  0.51589  0.38176  0.60212  1.0000
  H   H3129     1.0  0.98760  0.29398  0.82395  1.0000
  Fe  Fe258     1.0  0.93226  0.20420  0.94844  1.0000
  H   H3130     1.0  0.51928  0.24061  0.90376  1.0000
  C   C3892     1.0  0.98950  0.30752  0.81299  1.0000
  C   C3893     1.0  0.62688  0.36308  0.78558  1.0000
  H   H3131     1.0  0.63389  0.18567  0.81007  1.0000
  H   H3132     1.0  0.50581  0.36677  0.84190  1.0000
  H   H3133     1.0  0.63130  0.22379  0.83132  1.0000
  Fe  Fe259     1.0  0.93848  0.24719  0.94399  1.0000
  C   C3894     1.0  0.68188  0.36865  0.74201  1.0000
  H   H3134     1.0  0.57268  0.19385  0.93938  1.0000
  H   H3135     1.0  0.91729  0.22039  0.82455  1.0000
  C   C3895     1.0  0.51524  0.20479  0.48619  1.0000
  Fe  Fe260     1.0  0.56110  0.21256  0.55371  1.0000
  S   S517      1.0  0.60459  0.26183  0.82440  1.0000
  C   C3896     1.0  0.90389  0.37594  0.83186  1.0000
  C   C3897     1.0  0.56805  0.19222  0.95542  1.0000
  C   C3898     1.0  0.49929  0.24606  0.97366  1.0000
  C   C3899     1.0  0.52925  0.35486  0.70698  1.0000
  C   C3900     1.0  0.98671  0.18989  0.84884  1.0000
  C   C3901     1.0  0.55401  0.20923  0.81721  1.0000
  H   H3136     1.0  0.93911  0.25587  0.59232  1.0000
  C   C3902     1.0  0.91833  0.31938  0.93143  1.0000
  C   C3903     1.0  0.53202  0.35941  0.57900  1.0000
  H   H3137     1.0  0.94044  0.34323  0.80750  1.0000
  C   C3904     1.0  0.50449  0.36101  0.78897  1.0000
  H   H3138     1.0  0.65784  0.30773  0.83226  1.0000
  Fe  Fe261     1.0  0.54405  0.24378  0.52075  1.0000
  H   H3139     1.0  0.69055  0.32474  0.52587  1.0000
  H   H3140     1.0  0.99714  0.32601  0.96314  1.0000
  C   C3905     1.0  0.57035  0.26033  0.93065  1.0000
  C   C3906     1.0  0.90377  0.21863  0.89810  1.0000
  H   H3141     1.0  0.95200  0.30969  0.88301  1.0000
  C   C3907     1.0  0.50589  0.25284  0.84929  1.0000
  C   C3908     1.0  0.93232  0.35123  0.81935  1.0000
  C   C3909     1.0  0.88726  0.20974  0.89985  1.0000
  C   C3910     1.0  0.63412  0.34532  0.73536  1.0000
  C   C3911     1.0  0.50667  0.33993  0.68846  1.0000
  S   S518      1.0  0.61951  0.19193  0.92819  1.0000
  C   C3912     1.0  0.64578  0.29632  0.78955  1.0000
  C   C3913     1.0  0.66617  0.28786  0.78990  1.0000
  C   C3914     1.0  0.68105  0.29969  0.78213  1.0000
  C   C3915     1.0  0.67553  0.32006  0.77418  1.0000
  C   C3916     1.0  0.65503  0.32869  0.77396  1.0000
  C   C3917     1.0  0.64024  0.31663  0.78154  1.0000
  P   P131      1.0  0.64709  0.35523  0.76552  1.0000
  C   C3918     1.0  0.61418  0.36228  0.82104  1.0000
  H   H3142     1.0  0.52488  0.20111  0.85330  1.0000
  C   C3919     1.0  0.65197  0.30457  0.84819  1.0000
  H   H3143     1.0  0.66293  0.24039  0.50054  1.0000
  H   H3144     1.0  0.70013  0.23179  0.49950  1.0000
  H   H3145     1.0  0.68503  0.23732  0.95771  1.0000
  C   C3920     1.0  0.87456  0.35719  0.90519  1.0000
  H   H3146     1.0  0.87741  0.34967  0.87681  1.0000
  H   H3147     1.0  0.55706  0.25349  0.93495  1.0000
  H   H3148     1.0  0.96318  0.33968  0.95477  1.0000
  C   C3921     1.0  0.57418  0.37155  0.54190  1.0000
  H   H3149     1.0  0.65639  0.20554  0.56352  1.0000
  H   H3150     1.0  0.52862  0.21607  0.88193  1.0000
  Fe  Fe262     1.0  0.95990  0.21346  0.97241  1.0000
  C   C3922     1.0  0.54448  0.31299  0.52435  1.0000
  C   C3923     1.0  0.56854  0.24521  0.88431  1.0000
  C   C3924     1.0  0.99864  0.20938  0.77729  1.0000
  H   H3151     1.0  0.66537  0.36615  0.68892  1.0000
  H   H3152     1.0  0.63422  0.28714  0.79555  1.0000
  H   H3153     1.0  0.67038  0.27211  0.79618  1.0000
  H   H3154     1.0  0.69688  0.29306  0.78231  1.0000
  H   H3155     1.0  0.68726  0.32899  0.76842  1.0000
  H   H3156     1.0  0.62435  0.32297  0.78131  1.0000
  P   P132      1.0  0.56622  0.20419  0.85303  1.0000
  C   C3925     1.0  0.54874  0.24876  0.89561  1.0000
  H   H3157     1.0  0.93580  0.36834  0.94858  1.0000
  H   H3158     1.0  0.71224  0.20583  0.94735  1.0000
  H   H3159     1.0  0.80118  0.38024  0.89643  1.0000
  C   C3926     1.0  0.51518  0.34923  0.77496  1.0000
  C   C3927     1.0  0.55284  0.20669  0.96382  1.0000
  H   H3160     1.0  0.53250  0.31015  0.53737  1.0000
  H   H3161     1.0  0.74926  0.28357  0.47892  1.0000
  H   H3162     1.0  0.55345  0.29027  0.92317  1.0000
  C   C3928     1.0  0.69539  0.37339  0.59716  1.0000
  C   C3929     1.0  0.67532  0.28543  0.47680  1.0000
  H   H3163     1.0  0.85142  0.37829  0.86628  1.0000
  H   H3164     1.0  0.57593  0.38225  0.79588  1.0000
  C   C3930     1.0  0.98492  0.29978  0.96548  1.0000
  C   C3931     1.0  0.58171  0.36626  0.55935  1.0000
  C   C3932     1.0  0.55836  0.31414  0.48920  1.0000
  C   C3933     1.0  0.97622  0.35611  0.85345  1.0000
  H   H3165     1.0  0.53110  0.37687  0.88547  1.0000
  C   C3934     1.0  0.50819  0.36225  0.70922  1.0000
  H   H3166     1.0  0.70816  0.37964  0.72306  1.0000
  H   H3167     1.0  0.66412  0.37871  0.59448  1.0000
  H   H3168     1.0  0.54297  0.35932  0.60492  1.0000
  C   C3935     1.0  0.74400  0.38095  0.65825  1.0000
  H   H3169     1.0  0.61557  0.37332  0.69511  1.0000
  H   H3170     1.0  0.72153  0.25709  0.48336  1.0000
  C   C3936     1.0  0.67086  0.37787  0.77443  1.0000
  C   C3937     1.0  0.53201  0.18700  0.86121  1.0000
  C   C3938     1.0  0.53149  0.36625  0.59608  1.0000
  C   C3939     1.0  0.71736  0.33504  0.50724  1.0000
  C   C3940     1.0  0.50136  0.38377  0.57390  1.0000
  C   C3941     1.0  0.71449  0.19139  0.48060  1.0000
  H   H3171     1.0  0.58217  0.37348  0.83020  1.0000
  P   P133      1.0  0.94492  0.19887  0.85074  1.0000
  H   H3172     1.0  0.69699  0.35726  0.60043  1.0000
  C   C3942     1.0  0.98828  0.36156  0.86356  1.0000
  C   C3943     1.0  0.59122  0.37617  0.79837  1.0000
  C   C3944     1.0  0.60442  0.19364  0.82871  1.0000
  H   H3173     1.0  0.74736  0.37358  0.67268  1.0000
  H   H3174     1.0  0.99007  0.30540  0.86606  1.0000
  C   C3945     1.0  0.62533  0.18574  0.82518  1.0000
  H   H3175     1.0  0.76104  0.20151  0.47791  1.0000
  C   C3946     1.0  0.99826  0.31320  0.95669  1.0000
  H   H3176     1.0  0.71362  0.43804  0.45502  1.0000
  H   H3177     1.0  0.85165  0.51165  0.46929  1.0000
  H   H3178     1.0  0.80860  0.51929  0.45373  1.0000
  H   H3179     1.0  0.55304  0.49505  0.07963  1.0000
  C   C3947     1.0  0.98931  0.50113  0.11765  1.0000
  H   H3180     1.0  0.84154  0.46872  0.45885  1.0000
  H   H3181     1.0  0.74046  0.43110  0.02461  1.0000
  S   S519      1.0  0.82853  0.42638  0.38232  1.0000
  C   C3948     1.0  0.79555  0.56458  0.31843  1.0000
  Fe  Fe263     1.0  0.82103  0.51441  0.25768  1.0000
  S   S520      1.0  0.80206  0.49408  0.25442  1.0000
  S   S521      1.0  0.85100  0.51741  0.23626  1.0000
  Fe  Fe264     1.0  0.78912  0.53095  0.29116  1.0000
  S   S522      1.0  0.76716  0.51241  0.29012  1.0000
  Fe  Fe265     1.0  0.79462  0.48771  0.28787  1.0000
  S   S523      1.0  0.79101  0.45690  0.30547  1.0000
  Fe  Fe266     1.0  0.77609  0.52028  0.25669  1.0000
  S   S524      1.0  0.75435  0.53004  0.23502  1.0000
  S   S525      1.0  0.81609  0.50562  0.29089  1.0000
  H   H3182     1.0  0.56232  0.49652  0.17674  1.0000
  Fe  Fe267     1.0  0.96483  0.47907  0.23258  1.0000
  S   S526      1.0  0.96332  0.49081  0.20061  1.0000
  S   S527      1.0  0.93763  0.48143  0.25834  1.0000
  H   H3183     1.0  0.55879  0.56684  0.09964  1.0000
  S   S528      1.0  0.79491  0.39205  0.42287  1.0000
  Fe  Fe268     1.0  0.55794  0.39023  0.11970  1.0000
  C   C3949     1.0  0.96795  0.58098  0.43826  1.0000
  H   H3184     1.0  0.85951  0.46809  0.30041  1.0000
  H   H3185     1.0  0.92793  0.56415  0.47450  1.0000
  C   C3950     1.0  0.88154  0.44942  0.31751  1.0000
  H   H3186     1.0  0.57449  0.40579  0.21016  1.0000
  S   S529      1.0  0.98301  0.44912  0.22704  1.0000
  H   H3187     1.0  0.99650  0.41075  0.20091  1.0000
  C   C3951     1.0  0.52000  0.42568  0.21991  1.0000
  C   C3952     1.0  0.61393  0.46166  0.17495  1.0000
  H   H3188     1.0  0.89353  0.58319  0.39601  1.0000
  H   H3189     1.0  0.85344  0.49654  0.31653  1.0000
  H   H3190     1.0  0.81364  0.44577  0.06275  1.0000
  H   H3191     1.0  0.56756  0.44389  0.21312  1.0000
  Fe  Fe269     1.0  0.68362  0.45046  0.15927  1.0000
  S   S530      1.0  0.68697  0.46949  0.12877  1.0000
  S   S531      1.0  0.66197  0.42852  0.17070  1.0000
  Fe  Fe270     1.0  0.71014  0.47231  0.17266  1.0000
  S   S532      1.0  0.71522  0.49322  0.14293  1.0000
  S   S533      1.0  0.72313  0.46982  0.20005  1.0000
  Fe  Fe271     1.0  0.68199  0.49508  0.14419  1.0000
  H   H3192     1.0  0.61152  0.50095  0.14814  1.0000
  Fe  Fe272     1.0  0.71972  0.46602  0.12974  1.0000
  S   S534      1.0  0.74409  0.45991  0.10255  1.0000
  S   S535      1.0  0.67637  0.47632  0.17492  1.0000
  S   S536      1.0  0.71704  0.44464  0.15930  1.0000
  Fe  Fe273     1.0  0.75003  0.51562  0.99351  1.0000
  H   H3193     1.0  0.51499  0.39577  0.22335  1.0000
  S   S537      1.0  0.73314  0.52327  0.02339  1.0000
  C   C3953     1.0  0.53270  0.51401  0.12172  1.0000
  H   H3194     1.0  0.66305  0.57959  0.19058  1.0000
  C   C3954     1.0  0.51864  0.48277  0.17584  1.0000
  H   H3195     1.0  0.98688  0.50619  0.06501  1.0000
  C   C3955     1.0  0.52266  0.41408  0.06159  1.0000
  S   S538      1.0  0.76794  0.48605  0.98665  1.0000
  S   S539      1.0  0.79559  0.54139  0.25790  1.0000
  C   C3956     1.0  0.79135  0.43106  0.01557  1.0000
  C   C3957     1.0  0.77880  0.41167  0.29751  1.0000
  H   H3196     1.0  0.85826  0.56575  0.34811  1.0000
  C   C3958     1.0  0.86755  0.46683  0.31201  1.0000
  H   H3197     1.0  0.81663  0.54254  0.99849  1.0000
  H   H3198     1.0  0.65305  0.51373  0.17468  1.0000
  C   C3959     1.0  0.74088  0.47755  0.08060  1.0000
  C   C3960     1.0  0.75379  0.47441  0.06236  1.0000
  C   C3961     1.0  0.75146  0.48825  0.04470  1.0000
  C   C3962     1.0  0.73639  0.50553  0.04523  1.0000
  C   C3963     1.0  0.72351  0.50876  0.06348  1.0000
  C   C3964     1.0  0.72562  0.49473  0.08109  1.0000
  H   H3199     1.0  0.76563  0.46129  0.06187  1.0000
  H   H3200     1.0  0.76141  0.48559  0.03073  1.0000
  H   H3201     1.0  0.71173  0.52201  0.06400  1.0000
  H   H3202     1.0  0.71553  0.49723  0.09507  1.0000
  S   S540      1.0  0.57503  0.39086  0.14239  1.0000
  C   C3965     1.0  0.65626  0.41290  0.12105  1.0000
  C   C3966     1.0  0.66307  0.42100  0.13390  1.0000
  C   C3967     1.0  0.65284  0.41998  0.15377  1.0000
  C   C3968     1.0  0.63551  0.41116  0.16059  1.0000
  C   C3969     1.0  0.62865  0.40312  0.14771  1.0000
  H   H3203     1.0  0.78259  0.42219  0.46998  1.0000
  H   H3204     1.0  0.67655  0.42757  0.12856  1.0000
  H   H3205     1.0  0.62748  0.41038  0.17594  1.0000
  C   C3970     1.0  0.66167  0.55045  0.20867  1.0000
  C   C3971     1.0  0.85322  0.51458  0.99520  1.0000
  C   C3972     1.0  0.59827  0.44776  0.20852  1.0000
  S   S541      1.0  0.60345  0.57007  0.19693  1.0000
  H   H3206     1.0  0.78232  0.43698  0.27350  1.0000
  C   C3973     1.0  0.85649  0.50139  0.01285  1.0000
  H   H3207     1.0  0.79379  0.55539  0.44568  1.0000
  C   C3974     1.0  0.75271  0.50510  0.41330  1.0000
  C   C3975     1.0  0.59728  0.51718  0.17157  1.0000
  H   H3208     1.0  0.54050  0.45986  0.10883  1.0000
  H   H3209     1.0  0.99653  0.53081  0.10695  1.0000
  H   H3210     1.0  0.80237  0.50326  0.00738  1.0000
  H   H3211     1.0  0.85030  0.39004  0.45553  1.0000
  H   H3212     1.0  0.76762  0.42789  0.04229  1.0000
  C   C3976     1.0  0.74695  0.51282  0.22478  1.0000
  C   C3977     1.0  0.74775  0.49272  0.23410  1.0000
  C   C3978     1.0  0.74050  0.47985  0.22621  1.0000
  C   C3979     1.0  0.73265  0.48675  0.20876  1.0000
  C   C3980     1.0  0.73235  0.50674  0.19915  1.0000
  C   C3981     1.0  0.73926  0.51970  0.20726  1.0000
  H   H3213     1.0  0.75358  0.48718  0.24760  1.0000
  H   H3214     1.0  0.74089  0.46443  0.23375  1.0000
  H   H3215     1.0  0.72678  0.51219  0.18552  1.0000
  H   H3216     1.0  0.73893  0.53509  0.19984  1.0000
  C   C3982     1.0  0.87475  0.50734  0.24304  1.0000
  C   C3983     1.0  0.89247  0.50915  0.22837  1.0000
  C   C3984     1.0  0.91173  0.50130  0.23297  1.0000
  C   C3985     1.0  0.91351  0.49162  0.25233  1.0000
  C   C3986     1.0  0.89579  0.49024  0.26720  1.0000
  C   C3987     1.0  0.87641  0.49791  0.26254  1.0000
  H   H3217     1.0  0.89131  0.51659  0.21330  1.0000
  H   H3218     1.0  0.92512  0.50299  0.22152  1.0000
  H   H3219     1.0  0.89714  0.48305  0.28225  1.0000
  H   H3220     1.0  0.86280  0.49663  0.27394  1.0000
  C   C3988     1.0  0.81875  0.43440  0.36065  1.0000
  C   C3989     1.0  0.80678  0.42334  0.35631  1.0000
  C   C3990     1.0  0.79849  0.43033  0.33926  1.0000
  C   C3991     1.0  0.80207  0.44836  0.32650  1.0000
  C   C3992     1.0  0.81436  0.45919  0.33072  1.0000
  C   C3993     1.0  0.82274  0.45220  0.34772  1.0000
  H   H3221     1.0  0.80368  0.40955  0.36622  1.0000
  H   H3222     1.0  0.78902  0.42189  0.33620  1.0000
  H   H3223     1.0  0.81739  0.47295  0.32100  1.0000
  H   H3224     1.0  0.83217  0.46071  0.35088  1.0000
  C   C3994     1.0  0.79521  0.43477  0.99466  1.0000
  C   C3995     1.0  0.74460  0.42354  0.37254  1.0000
  C   C3996     1.0  0.84856  0.56188  0.25545  1.0000
  H   H3225     1.0  0.61546  0.39613  0.15314  1.0000
  C   C3997     1.0  0.97519  0.57529  0.45593  1.0000
  C   C3998     1.0  0.80865  0.47762  0.05349  1.0000
  H   H3226     1.0  0.87010  0.41140  0.46280  1.0000
  C   C3999     1.0  0.83972  0.44972  0.43997  1.0000
  H   H3227     1.0  0.78280  0.56358  0.34970  1.0000
  C   C4000     1.0  0.91290  0.42607  0.28995  1.0000
  H   H3228     1.0  0.52769  0.45482  0.21254  1.0000
  C   C4001     1.0  0.96193  0.51759  0.14896  1.0000
  C   C4002     1.0  0.69070  0.56108  0.05216  1.0000
  H   H3229     1.0  0.58402  0.50273  0.08484  1.0000
  C   C4003     1.0  0.83688  0.43120  0.28341  1.0000
  C   C4004     1.0  0.84758  0.52676  0.46127  1.0000
  H   H3230     1.0  0.78134  0.56105  0.00402  1.0000
  C   C4005     1.0  0.50696  0.46309  0.04859  1.0000
  P   P134      1.0  0.88721  0.42872  0.30477  1.0000
  H   H3231     1.0  0.60983  0.57897  0.15368  1.0000
  C   C4006     1.0  0.59784  0.54324  0.09640  1.0000
  H   H3232     1.0  0.60665  0.50762  0.18166  1.0000
  H   H3233     1.0  0.82001  0.49919  0.42737  1.0000
  C   C4007     1.0  0.57924  0.45606  0.18219  1.0000
  H   H3234     1.0  0.59127  0.53483  0.07159  1.0000
  H   H3235     1.0  0.81218  0.39338  0.31356  1.0000
  H   H3236     1.0  0.51696  0.45508  0.03737  1.0000
  C   C4008     1.0  0.85001  0.55118  0.43023  1.0000
  C   C4009     1.0  0.59651  0.54569  0.07647  1.0000
  H   H3237     1.0  0.86482  0.52016  0.43284  1.0000
  H   H3238     1.0  0.65262  0.54974  0.09161  1.0000
  H   H3239     1.0  0.95171  0.52385  0.16128  1.0000
  H   H3240     1.0  0.58160  0.53704  0.19195  1.0000
  C   C4010     1.0  0.86499  0.50704  0.02602  1.0000
  C   C4011     1.0  0.50574  0.41418  0.05406  1.0000
  C   C4012     1.0  0.54792  0.45978  0.13657  1.0000
  H   H3241     1.0  0.68979  0.54877  0.98642  1.0000
  C   C4013     1.0  0.55210  0.45514  0.11766  1.0000
  H   H3242     1.0  0.72988  0.46551  0.45551  1.0000
  C   C4014     1.0  0.85963  0.57728  0.24888  1.0000
  C   C4015     1.0  0.85058  0.55173  0.32795  1.0000
  H   H3243     1.0  0.73974  0.52458  0.09776  1.0000
  C   C4016     1.0  0.85126  0.42609  0.29542  1.0000
  C   C4017     1.0  0.66882  0.52986  0.21019  1.0000
  C   C4018     1.0  0.68189  0.52241  0.19395  1.0000
  C   C4019     1.0  0.68774  0.53551  0.17614  1.0000
  C   C4020     1.0  0.68083  0.55629  0.17453  1.0000
  C   C4021     1.0  0.77388  0.39254  0.30380  1.0000
  C   C4022     1.0  0.70967  0.53991  0.10940  1.0000
  C   C4023     1.0  0.69791  0.55222  0.12267  1.0000
  C   C4024     1.0  0.53938  0.48090  0.17545  1.0000
  P   P135      1.0  0.55634  0.45707  0.17382  1.0000
  C   C4025     1.0  0.51151  0.48056  0.05108  1.0000
  H   H3244     1.0  0.66417  0.51964  0.22389  1.0000
  H   H3245     1.0  0.68757  0.50643  0.19517  1.0000
  H   H3246     1.0  0.69795  0.52923  0.16389  1.0000
  H   H3247     1.0  0.76147  0.40207  0.39288  1.0000
  H   H3248     1.0  0.70231  0.53387  0.10104  1.0000
  H   H3249     1.0  0.68153  0.55582  0.12420  1.0000
  C   C4026     1.0  0.59593  0.46311  0.16875  1.0000
  H   H3250     1.0  0.97205  0.54516  0.13424  1.0000
  C   C4027     1.0  0.61031  0.48139  0.11271  1.0000
  H   H3251     1.0  0.57372  0.43940  0.09612  1.0000
  C   C4028     1.0  0.56245  0.45278  0.14858  1.0000
  C   C4029     1.0  0.79743  0.45946  0.45319  1.0000
  C   C4030     1.0  0.74007  0.54151  0.11929  1.0000
  C   C4031     1.0  0.60383  0.39254  0.21738  1.0000
  C   C4032     1.0  0.60186  0.56246  0.06253  1.0000
  C   C4033     1.0  0.58036  0.44884  0.20227  1.0000
  C   C4034     1.0  0.79155  0.40184  0.08571  1.0000
  C   C4035     1.0  0.63079  0.53842  0.18432  1.0000
  C   C4036     1.0  0.57082  0.44361  0.11048  1.0000
  C   C4037     1.0  0.58320  0.53376  0.17737  1.0000
  C   C4038     1.0  0.56880  0.51509  0.11112  1.0000
  H   H3252     1.0  0.62717  0.46619  0.16434  1.0000
  P   P136      1.0  0.59155  0.52129  0.11439  1.0000
  C   C4039     1.0  0.97119  0.45799  0.08756  1.0000
  C   C4040     1.0  0.75583  0.43186  0.01625  1.0000
  C   C4041     1.0  0.57183  0.54666  0.16405  1.0000
  H   H3253     1.0  0.89455  0.46336  0.35465  1.0000
  C   C4042     1.0  0.67868  0.55992  0.07139  1.0000
  Fe  Fe274     1.0  0.98373  0.46189  0.19477  1.0000
  H   H3254     1.0  0.60245  0.40237  0.22748  1.0000
  H   H3255     1.0  0.53825  0.52857  0.17970  1.0000
  H   H3256     1.0  0.55592  0.41648  0.16986  1.0000
  H   H3257     1.0  0.56119  0.55973  0.16849  1.0000
  H   H3258     1.0  0.68927  0.39360  0.18999  1.0000
  C   C4043     1.0  0.83738  0.56592  0.44039  1.0000
  C   C4044     1.0  0.76920  0.39433  0.27046  1.0000
  C   C4045     1.0  0.54604  0.41924  0.18379  1.0000
  S   S542      1.0  0.99269  0.53304  0.18320  1.0000
  C   C4046     1.0  0.56971  0.50635  0.09498  1.0000
  S   S543      1.0  0.53329  0.41447  0.10849  1.0000
  C   C4047     1.0  0.87021  0.52591  0.02151  1.0000
  C   C4048     1.0  0.86690  0.53917  0.00386  1.0000
  H   H3259     1.0  0.53305  0.46823  0.14189  1.0000
  C   C4049     1.0  0.53291  0.51575  0.17850  1.0000
  H   H3260     1.0  0.67193  0.51910  0.98781  1.0000
  H   H3261     1.0  0.84773  0.41710  0.31015  1.0000
  H   H3262     1.0  0.83336  0.43147  0.42275  1.0000
  C   C4050     1.0  0.73074  0.53457  0.10767  1.0000
  C   C4051     1.0  0.73807  0.45022  0.45826  1.0000
  H   H3263     1.0  0.69771  0.53718  0.24843  1.0000
  C   C4052     1.0  0.51508  0.57003  0.14114  1.0000
  C   C4053     1.0  0.87023  0.40714  0.34123  1.0000
  H   H3264     1.0  0.51269  0.47014  0.17500  1.0000
  C   C4054     1.0  0.80463  0.49071  0.01954  1.0000
  C   C4055     1.0  0.80658  0.47126  0.01672  1.0000
  C   C4056     1.0  0.55005  0.51890  0.12445  1.0000
  C   C4057     1.0  0.59993  0.51340  0.15250  1.0000
  H   H3265     1.0  0.77954  0.40536  0.09834  1.0000
  C   C4058     1.0  0.97343  0.52959  0.13372  1.0000
  H   H3266     1.0  0.64301  0.53681  0.06670  1.0000
  C   C4059     1.0  0.97812  0.47240  0.09328  1.0000
  S   S544      1.0  0.63143  0.39348  0.11133  1.0000
  S   S545      1.0  0.66142  0.52304  0.13169  1.0000
  C   C4060     1.0  0.85134  0.43378  0.00862  1.0000
  H   H3267     1.0  0.85751  0.39090  0.36983  1.0000
  H   H3268     1.0  0.97966  0.47332  0.13341  1.0000
  C   C4061     1.0  0.61303  0.50112  0.11011  1.0000
  C   C4062     1.0  0.85478  0.41079  0.47127  1.0000
  H   H3269     1.0  0.85238  0.48680  0.01625  1.0000
  H   H3270     1.0  0.59228  0.43436  0.15055  1.0000
  H   H3271     1.0  0.85607  0.44513  0.43576  1.0000
  C   C4063     1.0  0.76242  0.50720  0.44857  1.0000
  C   C4064     1.0  0.54646  0.49753  0.17684  1.0000
  H   H3272     1.0  0.71808  0.47719  0.03171  1.0000
  C   C4065     1.0  0.61512  0.45392  0.19481  1.0000
  H   H3273     1.0  0.75852  0.47325  0.42329  1.0000
  H   H3274     1.0  0.97370  0.42957  0.14293  1.0000
  H   H3275     1.0  0.71015  0.56269  0.22033  1.0000
  C   C4066     1.0  0.58815  0.52596  0.13919  1.0000
  H   H3276     1.0  0.56546  0.55314  0.13486  1.0000
  H   H3277     1.0  0.73190  0.40274  0.46160  1.0000
  C   C4067     1.0  0.70710  0.55913  0.13451  1.0000
  C   C4068     1.0  0.65654  0.54319  0.06246  1.0000
  C   C4069     1.0  0.81085  0.45812  0.05062  1.0000
  H   H3278     1.0  0.80920  0.48010  0.06783  1.0000
  H   H3279     1.0  0.78962  0.57124  0.41125  1.0000
  C   C4070     1.0  0.75733  0.52472  0.43492  1.0000
  C   C4071     1.0  0.92626  0.54634  0.24432  1.0000
  C   C4072     1.0  0.75253  0.52367  0.41726  1.0000
  H   H3280     1.0  0.63014  0.53217  0.19996  1.0000
  H   H3281     1.0  0.63046  0.57177  0.01949  1.0000
  H   H3282     1.0  0.88139  0.43779  0.99210  1.0000
  H   H3283     1.0  0.87100  0.55371  0.00066  1.0000
  C   C4073     1.0  0.94166  0.54630  0.22713  1.0000
  H   H3284     1.0  0.81049  0.56932  0.28751  1.0000
  H   H3285     1.0  0.50976  0.42825  0.23383  1.0000
  H   H3286     1.0  0.59968  0.42724  0.11687  1.0000
  P   P137      1.0  0.77022  0.46583  0.46174  1.0000
  C   C4074     1.0  0.93840  0.41195  0.26372  1.0000
  C   C4075     1.0  0.64486  0.53591  0.14977  1.0000
  C   C4076     1.0  0.61926  0.56476  0.15828  1.0000
  Fe  Fe275     1.0  0.99214  0.50111  0.19808  1.0000
  H   H3287     1.0  0.98095  0.39385  0.30248  1.0000
  C   C4077     1.0  0.75998  0.43508  0.99548  1.0000
  H   H3288     1.0  0.88154  0.57728  0.43238  1.0000
  H   H3289     1.0  0.68257  0.56591  0.08234  1.0000
  C   C4078     1.0  0.66823  0.55579  0.25662  1.0000
  H   H3290     1.0  0.84408  0.54314  0.37820  1.0000
  C   C4079     1.0  0.83149  0.46290  0.45316  1.0000
  H   H3291     1.0  0.59524  0.47782  0.11743  1.0000
  C   C4080     1.0  0.55221  0.50187  0.09204  1.0000
  C   C4081     1.0  0.83004  0.56112  0.46099  1.0000
  S   S546      1.0  0.85983  0.55708  0.40458  1.0000
  H   H3292     1.0  0.70411  0.56771  0.04822  1.0000
  H   H3293     1.0  0.74614  0.55844  0.00591  1.0000
  H   H3294     1.0  0.86785  0.55861  0.47246  1.0000
  H   H3295     1.0  0.59521  0.46939  0.15340  1.0000
  C   C4082     1.0  0.81041  0.46787  0.45969  1.0000
  C   C4083     1.0  0.54396  0.56471  0.07718  1.0000
  C   C4084     1.0  0.70790  0.48630  0.02219  1.0000
  C   C4085     1.0  0.69370  0.50271  0.02835  1.0000
  C   C4086     1.0  0.68115  0.51518  0.01573  1.0000
  C   C4087     1.0  0.68207  0.51021  0.99743  1.0000
  P   P138      1.0  0.66186  0.53554  0.02412  1.0000
  C   C4088     1.0  0.63920  0.52482  0.03306  1.0000
  C   C4089     1.0  0.66864  0.54416  0.04313  1.0000
  C   C4090     1.0  0.68574  0.55319  0.03811  1.0000
  H   H3296     1.0  0.76534  0.38770  0.25996  1.0000
  H   H3297     1.0  0.80350  0.50902  0.04026  1.0000
  C   C4091     1.0  0.98959  0.42883  0.14251  1.0000
  C   C4092     1.0  0.66173  0.55083  0.07658  1.0000
  C   C4093     1.0  0.63867  0.50845  0.04909  1.0000
  C   C4094     1.0  0.62227  0.49850  0.05497  1.0000
  C   C4095     1.0  0.60632  0.50469  0.04478  1.0000
  C   C4096     1.0  0.60675  0.52087  0.02875  1.0000
  C   C4097     1.0  0.62324  0.53075  0.02272  1.0000
  C   C4098     1.0  0.65972  0.55732  0.00438  1.0000
  C   C4099     1.0  0.77139  0.42995  0.02627  1.0000
  C   C4100     1.0  0.69629  0.49380  0.99130  1.0000
  H   H3298     1.0  0.51838  0.51674  0.13227  1.0000
  C   C4101     1.0  0.79252  0.56696  0.99163  1.0000
  C   C4102     1.0  0.64249  0.57273  0.00627  1.0000
  C   C4103     1.0  0.87258  0.41347  0.98503  1.0000
  H   H3299     1.0  0.85636  0.56206  0.31481  1.0000
  C   C4104     1.0  0.73957  0.42786  0.35386  1.0000
  H   H3300     1.0  0.69289  0.50584  0.04278  1.0000
  C   C4105     1.0  0.76609  0.39230  0.36530  1.0000
  H   H3301     1.0  0.69535  0.55404  0.02332  1.0000
  H   H3302     1.0  0.84654  0.51000  0.98520  1.0000
  H   H3303     1.0  0.55259  0.39851  0.06590  1.0000
  H   H3304     1.0  0.78288  0.42992  0.06713  1.0000
  C   C4106     1.0  0.69482  0.56606  0.22902  1.0000
  H   H3305     1.0  0.65124  0.50304  0.05673  1.0000
  H   H3306     1.0  0.62221  0.48569  0.06715  1.0000
  H   H3307     1.0  0.59381  0.49671  0.04908  1.0000
  H   H3308     1.0  0.59456  0.52546  0.02062  1.0000
  H   H3309     1.0  0.62370  0.54252  0.00962  1.0000
  C   C4107     1.0  0.80541  0.49392  0.03799  1.0000
  H   H3310     1.0  0.72074  0.46962  0.99856  1.0000
  C   C4108     1.0  0.95614  0.55829  0.22331  1.0000
  C   C4109     1.0  0.50526  0.50099  0.17735  1.0000
  C   C4110     1.0  0.87656  0.57619  0.25670  1.0000
  C   C4111     1.0  0.62719  0.46594  0.10960  1.0000
  C   C4112     1.0  0.64683  0.47011  0.10375  1.0000
  C   C4113     1.0  0.64963  0.48968  0.10125  1.0000
  C   C4114     1.0  0.63284  0.50505  0.10470  1.0000
  H   H3311     1.0  0.60667  0.55605  0.11709  1.0000
  H   H3312     1.0  0.50404  0.42976  0.17532  1.0000
  H   H3313     1.0  0.62517  0.45064  0.11196  1.0000
  H   H3314     1.0  0.65993  0.45810  0.10159  1.0000
  H   H3315     1.0  0.66488  0.49290  0.09722  1.0000
  H   H3316     1.0  0.63543  0.51991  0.10361  1.0000
  H   H3317     1.0  0.82042  0.57258  0.46883  1.0000
  H   H3318     1.0  0.84019  0.53532  0.31176  1.0000
  C   C4115     1.0  0.51622  0.42769  0.12603  1.0000
  C   C4116     1.0  0.75773  0.48756  0.42694  1.0000
  H   H3319     1.0  0.52496  0.48591  0.04189  1.0000
  H   H3320     1.0  0.91500  0.53712  0.24683  1.0000
  C   C4117     1.0  0.82259  0.39314  0.05314  1.0000
  C   C4118     1.0  0.73895  0.41480  0.46193  1.0000
  C   C4119     1.0  0.87302  0.44600  0.26994  1.0000
  C   C4120     1.0  0.85839  0.45144  0.25819  1.0000
  C   C4121     1.0  0.58812  0.39452  0.20758  1.0000
  C   C4122     1.0  0.92761  0.43471  0.29348  1.0000
  C   C4123     1.0  0.94759  0.43170  0.28242  1.0000
  C   C4124     1.0  0.76162  0.39679  0.34627  1.0000
  H   H3321     1.0  0.75753  0.53909  0.43784  1.0000
  C   C4125     1.0  0.89088  0.44811  0.33329  1.0000
  C   C4126     1.0  0.89699  0.38763  0.32022  1.0000
  H   H3322     1.0  0.50193  0.53173  0.17957  1.0000
  C   C4127     1.0  0.95302  0.42021  0.26767  1.0000
  C   C4128     1.0  0.83574  0.42301  0.01196  1.0000
  H   H3323     1.0  0.72946  0.44174  0.34933  1.0000
  H   H3324     1.0  0.58768  0.58431  0.23379  1.0000
  H   H3325     1.0  0.88671  0.45231  0.26469  1.0000
  H   H3326     1.0  0.86084  0.46185  0.24409  1.0000
  H   H3327     1.0  0.81013  0.43670  0.98594  1.0000
  H   H3328     1.0  0.92380  0.44411  0.30439  1.0000
  H   H3329     1.0  0.95872  0.43886  0.28483  1.0000
  H   H3330     1.0  0.96845  0.41814  0.25903  1.0000
  H   H3331     1.0  0.64064  0.57758  0.26161  1.0000
  H   H3332     1.0  0.90124  0.43456  0.33818  1.0000
  H   H3333     1.0  0.96713  0.48477  0.09871  1.0000
  H   H3334     1.0  0.93963  0.57978  0.26400  1.0000
  C   C4129     1.0  0.86951  0.43333  0.28867  1.0000
  H   H3335     1.0  0.97017  0.56285  0.46690  1.0000
  H   H3336     1.0  0.78231  0.41879  0.30774  1.0000
  C   C4130     1.0  0.76212  0.48851  0.44492  1.0000
  C   C4131     1.0  0.51703  0.42245  0.14620  1.0000
  H   H3337     1.0  0.99055  0.56677  0.15181  1.0000
  H   H3338     1.0  0.77373  0.42163  0.24939  1.0000
  H   H3339     1.0  0.52820  0.40984  0.15133  1.0000
  C   C4132     1.0  0.85722  0.40258  0.98838  1.0000
  C   C4133     1.0  0.79306  0.57008  0.33681  1.0000
  C   C4134     1.0  0.52290  0.40742  0.21401  1.0000
  H   H3340     1.0  0.62924  0.45257  0.19946  1.0000
  C   C4135     1.0  0.51951  0.58173  0.15246  1.0000
  C   C4136     1.0  0.88474  0.40621  0.32337  1.0000
  C   C4137     1.0  0.73216  0.57680  0.98210  1.0000
  C   C4138     1.0  0.75831  0.41044  0.46626  1.0000
  S   S547      1.0  0.78098  0.54785  0.31666  1.0000
  C   C4139     1.0  0.86387  0.48308  0.32134  1.0000
  C   C4140     1.0  0.74780  0.41442  0.34087  1.0000
  H   H3341     1.0  0.55244  0.54990  0.07549  1.0000
  C   C4141     1.0  0.83891  0.40724  0.00186  1.0000
  H   H3342     1.0  0.79620  0.44049  0.43363  1.0000
  H   H3343     1.0  0.80608  0.46905  0.00227  1.0000
  H   H3344     1.0  0.87686  0.53026  0.03170  1.0000
  C   C4142     1.0  0.58540  0.43668  0.12223  1.0000
  H   H3345     1.0  0.52007  0.50213  0.10338  1.0000
  H   H3346     1.0  0.74361  0.41800  0.32652  1.0000
  C   C4143     1.0  0.77395  0.41343  0.26447  1.0000
  C   C4144     1.0  0.96405  0.49739  0.14858  1.0000
  C   C4145     1.0  0.75784  0.44595  0.46188  1.0000
  C   C4146     1.0  0.77880  0.42207  0.27800  1.0000
  C   C4147     1.0  0.91841  0.41490  0.27477  1.0000
  H   H3347     1.0  0.87081  0.49453  0.34390  1.0000
  C   C4148     1.0  0.68782  0.55160  0.24501  1.0000
  C   C4149     1.0  0.53368  0.50574  0.10542  1.0000
  C   C4150     1.0  0.84351  0.39877  0.46701  1.0000
  C   C4151     1.0  0.91885  0.57853  0.30154  1.0000
  H   H3348     1.0  0.83578  0.56235  0.24905  1.0000
  H   H3349     1.0  0.84929  0.44616  0.01597  1.0000
  H   H3350     1.0  0.50183  0.50494  0.06709  1.0000
  H   H3351     1.0  0.97973  0.43073  0.07604  1.0000
  C   C4152     1.0  0.71831  0.57460  0.17526  1.0000
  C   C4153     1.0  0.80582  0.44678  0.43935  1.0000
  H   H3352     1.0  0.75636  0.53697  0.11828  1.0000
  C   C4154     1.0  0.78677  0.58473  0.97859  1.0000
  H   H3353     1.0  0.66288  0.54459  0.26912  1.0000
  C   C4155     1.0  0.53016  0.44073  0.20777  1.0000
  H   H3354     1.0  0.74901  0.53722  0.40650  1.0000
  H   H3355     1.0  0.63376  0.56090  0.12828  1.0000
  C   C4156     1.0  0.61068  0.57423  0.08796  1.0000
  C   C4157     1.0  0.61870  0.55695  0.17852  1.0000
  H   H3356     1.0  0.66446  0.41346  0.10577  1.0000
  Fe  Fe276     1.0  0.82293  0.39597  0.39934  1.0000
  C   C4158     1.0  0.85503  0.53159  0.44066  1.0000
  C   C4159     1.0  0.98691  0.39117  0.22863  1.0000
  C   C4160     1.0  0.80925  0.45485  0.03234  1.0000
  H   H3357     1.0  0.94249  0.40353  0.25190  1.0000
  C   C4161     1.0  0.77966  0.43657  0.98469  1.0000
  H   H3358     1.0  0.74935  0.50428  0.39944  1.0000
  S   S548      1.0  0.97563  0.44483  0.17582  1.0000
  H   H3359     1.0  0.94237  0.53697  0.21672  1.0000
  H   H3360     1.0  0.93225  0.56672  0.30093  1.0000
  C   C4162     1.0  0.85153  0.55391  0.34673  1.0000
  C   C4163     1.0  0.57428  0.54283  0.14504  1.0000
  H   H3361     1.0  0.82692  0.51205  0.34135  1.0000
  H   H3362     1.0  0.82879  0.44857  0.25601  1.0000
  S   S549      1.0  0.99249  0.49143  0.23065  1.0000
  C   C4164     1.0  0.54327  0.43761  0.18958  1.0000
  C   C4165     1.0  0.63264  0.55441  0.14390  1.0000
  C   C4166     1.0  0.82692  0.44182  0.43290  1.0000
  H   H3363     1.0  0.73836  0.43400  0.38255  1.0000
  C   C4167     1.0  0.58115  0.44091  0.14132  1.0000
  H   H3364     1.0  0.86755  0.49679  0.03969  1.0000
  C   C4168     1.0  0.86838  0.38995  0.35589  1.0000
  H   H3365     1.0  0.59922  0.44197  0.22395  1.0000
  C   C4169     1.0  0.97775  0.48915  0.13307  1.0000
  C   C4170     1.0  0.60513  0.55762  0.10197  1.0000
  H   H3366     1.0  0.86046  0.42120  0.34399  1.0000
  C   C4171     1.0  0.81264  0.55647  0.98846  1.0000
  H   H3367     1.0  0.52263  0.42564  0.06928  1.0000
  C   C4172     1.0  0.80897  0.41164  0.05134  1.0000
  C   C4173     1.0  0.87365  0.48191  0.33666  1.0000
  H   H3368     1.0  0.99190  0.53315  0.03559  1.0000
  C   C4174     1.0  0.88706  0.46437  0.34269  1.0000
  C   C4175     1.0  0.90637  0.51726  0.33246  1.0000
  C   C4176     1.0  0.91742  0.49965  0.32610  1.0000
  C   C4177     1.0  0.92425  0.49954  0.30579  1.0000
  C   C4178     1.0  0.92054  0.51715  0.29181  1.0000
  C   C4179     1.0  0.90996  0.53505  0.29803  1.0000
  C   C4180     1.0  0.90256  0.53486  0.31850  1.0000
  P   P139      1.0  0.90512  0.55799  0.28012  1.0000
  C   C4181     1.0  0.88237  0.55976  0.27134  1.0000
  H   H3369     1.0  0.95760  0.57293  0.43577  1.0000
  P   P140      1.0  0.81141  0.42993  0.02823  1.0000
  H   H3370     1.0  0.95542  0.48793  0.16057  1.0000
  H   H3371     1.0  0.73587  0.55845  0.14185  1.0000
  C   C4182     1.0  0.85838  0.53357  0.99055  1.0000
  H   H3372     1.0  0.54853  0.52552  0.13708  1.0000
  C   C4183     1.0  0.89685  0.56434  0.47360  1.0000
  H   H3373     1.0  0.95502  0.45911  0.08895  1.0000
  C   C4184     1.0  0.86967  0.42901  0.99518  1.0000
  C   C4185     1.0  0.85435  0.54546  0.26989  1.0000
  C   C4186     1.0  0.87133  0.54423  0.27769  1.0000
  C   C4187     1.0  0.92545  0.55807  0.25812  1.0000
  C   C4188     1.0  0.83530  0.54161  0.47147  1.0000
  H   H3374     1.0  0.90079  0.51732  0.34822  1.0000
  H   H3375     1.0  0.92059  0.48605  0.33688  1.0000
  H   H3376     1.0  0.93246  0.48583  0.30073  1.0000
  H   H3377     1.0  0.92608  0.51659  0.27622  1.0000
  H   H3378     1.0  0.89404  0.54834  0.32376  1.0000
  C   C4189     1.0  0.84034  0.44401  0.26491  1.0000
  C   C4190     1.0  0.64376  0.52791  0.16999  1.0000
  C   C4191     1.0  0.75767  0.40565  0.37833  1.0000
  C   C4192     1.0  0.98509  0.44207  0.08020  1.0000
  C   C4193     1.0  0.52924  0.57430  0.06592  1.0000
  P   P141      1.0  0.69121  0.57342  0.15285  1.0000
  C   C4194     1.0  0.53592  0.40420  0.19596  1.0000
  C   C4195     1.0  0.65563  0.57446  0.25221  1.0000
  H   H3379     1.0  0.84600  0.53337  0.27451  1.0000
  H   H3380     1.0  0.87595  0.53098  0.28830  1.0000
  H   H3381     1.0  0.71811  0.55884  0.18089  1.0000
  C   C4196     1.0  0.77827  0.50117  0.36091  1.0000
  C   C4197     1.0  0.77659  0.48139  0.36974  1.0000
  C   C4198     1.0  0.78734  0.47104  0.38458  1.0000
  C   C4199     1.0  0.80051  0.48011  0.38989  1.0000
  C   C4200     1.0  0.80360  0.49936  0.37988  1.0000
  C   C4201     1.0  0.79134  0.51030  0.36631  1.0000
  P   P142      1.0  0.82307  0.50994  0.38427  1.0000
  C   C4202     1.0  0.81177  0.52386  0.40403  1.0000
  C   C4203     1.0  0.84492  0.49148  0.39059  1.0000
  C   C4204     1.0  0.85819  0.49651  0.39982  1.0000
  C   C4205     1.0  0.87511  0.48244  0.40487  1.0000
  C   C4206     1.0  0.87908  0.46331  0.40054  1.0000
  C   C4207     1.0  0.86622  0.45832  0.39099  1.0000
  C   C4208     1.0  0.84949  0.47246  0.38565  1.0000
  C   C4209     1.0  0.80256  0.54413  0.39972  1.0000
  C   C4210     1.0  0.79594  0.55542  0.41476  1.0000
  C   C4211     1.0  0.79821  0.54649  0.43418  1.0000
  C   C4212     1.0  0.80660  0.52614  0.43871  1.0000
  C   C4213     1.0  0.81317  0.51482  0.42373  1.0000
  C   C4214     1.0  0.83381  0.52626  0.36215  1.0000
  C   C4215     1.0  0.83352  0.52378  0.34318  1.0000
  C   C4216     1.0  0.84158  0.53667  0.32620  1.0000
  C   C4217     1.0  0.73760  0.57296  0.00051  1.0000
  C   C4218     1.0  0.66800  0.56365  0.19110  1.0000
  C   C4219     1.0  0.84327  0.54117  0.36377  1.0000
  H   H3382     1.0  0.76995  0.50931  0.34938  1.0000
  H   H3383     1.0  0.76718  0.47401  0.36492  1.0000
  H   H3384     1.0  0.78617  0.45564  0.39139  1.0000
  H   H3385     1.0  0.80890  0.47174  0.40120  1.0000
  H   H3386     1.0  0.79252  0.52558  0.35910  1.0000
  H   H3387     1.0  0.85543  0.51131  0.40323  1.0000
  H   H3388     1.0  0.88502  0.48634  0.41234  1.0000
  H   H3389     1.0  0.89199  0.45228  0.40478  1.0000
  H   H3390     1.0  0.86913  0.44345  0.38769  1.0000
  H   H3391     1.0  0.84027  0.46835  0.37767  1.0000
  H   H3392     1.0  0.80120  0.55139  0.38463  1.0000
  C   C4220     1.0  0.53972  0.39864  0.05976  1.0000
  C   C4221     1.0  0.63912  0.40384  0.12792  1.0000
  C   C4222     1.0  0.70936  0.48199  0.00358  1.0000
  H   H3393     1.0  0.97309  0.39015  0.22477  1.0000
  C   C4223     1.0  0.80865  0.57329  0.30177  1.0000
  H   H3394     1.0  0.82261  0.42594  0.28881  1.0000
  H   H3395     1.0  0.90724  0.40843  0.27150  1.0000
  C   C4224     1.0  0.76763  0.42592  0.46645  1.0000
  H   H3396     1.0  0.60021  0.56463  0.04732  1.0000
  H   H3397     1.0  0.65129  0.55613  0.22118  1.0000
  C   C4225     1.0  0.98722  0.52140  0.11819  1.0000
  C   C4226     1.0  0.79346  0.41580  0.06785  1.0000
  H   H3398     1.0  0.96792  0.55838  0.20985  1.0000
  C   C4227     1.0  0.72875  0.43468  0.45811  1.0000
  H   H3399     1.0  0.52688  0.56406  0.12968  1.0000
  H   H3400     1.0  0.96656  0.57956  0.23365  1.0000
  H   H3401     1.0  0.76690  0.50825  0.46178  1.0000
  C   C4228     1.0  0.67574  0.55975  0.98769  1.0000
  H   H3402     1.0  0.82699  0.39893  0.00396  1.0000
  H   H3403     1.0  0.52637  0.56696  0.05541  1.0000
  H   H3404     1.0  0.76628  0.39504  0.46934  1.0000
  C   C4229     1.0  0.72833  0.55371  0.13270  1.0000
  H   H3405     1.0  0.85924  0.39106  0.97990  1.0000
  C   C4230     1.0  0.54751  0.57418  0.09081  1.0000
  H   H3406     1.0  0.80436  0.47803  0.47001  1.0000
  H   H3407     1.0  0.74789  0.43691  0.98766  1.0000
  C   C4231     1.0  0.99505  0.43560  0.15704  1.0000
  H   H3408     1.0  0.90826  0.38633  0.30665  1.0000
  C   C4232     1.0  0.60908  0.57663  0.06825  1.0000
  C   C4233     1.0  0.51236  0.51753  0.17856  1.0000
  H   H3409     1.0  0.73985  0.57483  0.19238  1.0000
  C   C4234     1.0  0.50167  0.44398  0.11949  1.0000
  H   H3410     1.0  0.50112  0.44815  0.10389  1.0000
  H   H3411     1.0  0.83483  0.38939  0.04089  1.0000
  C   C4235     1.0  0.50338  0.43369  0.15974  1.0000
  H   H3412     1.0  0.53810  0.39005  0.19131  1.0000
  C   C4236     1.0  0.50573  0.39800  0.04569  1.0000
  C   C4237     1.0  0.94005  0.57016  0.25408  1.0000
  C   C4238     1.0  0.95535  0.57020  0.23676  1.0000
  C   C4239     1.0  0.80372  0.58400  0.33863  1.0000
  C   C4240     1.0  0.90316  0.57848  0.29230  1.0000
  H   H3413     1.0  0.73609  0.58463  0.02631  1.0000
  C   C4241     1.0  0.73062  0.58363  0.18180  1.0000
  H   H3414     1.0  0.83334  0.58103  0.43242  1.0000
  H   H3415     1.0  0.99827  0.53742  0.22688  1.0000
  H   H3416     1.0  0.53458  0.58502  0.14948  1.0000
  H   H3417     1.0  0.69753  0.49039  0.97686  1.0000
  C   C4242     1.0  0.68224  0.58470  0.22445  1.0000
  C   C4243     1.0  0.51859  0.40353  0.84166  1.0000
  S   S550      1.0  0.81828  0.48109  0.51185  1.0000
  Fe  Fe277     1.0  0.85973  0.47668  0.54189  1.0000
  S   S551      1.0  0.83045  0.49889  0.54519  1.0000
  S   S552      1.0  0.88222  0.47482  0.56101  1.0000
  Fe  Fe278     1.0  0.81535  0.47424  0.54501  1.0000
  S   S553      1.0  0.78361  0.47423  0.56379  1.0000
  Fe  Fe279     1.0  0.83548  0.50418  0.51204  1.0000
  S   S554      1.0  0.84416  0.45099  0.54471  1.0000
  S   S555      1.0  0.95197  0.52047  0.60196  1.0000
  S   S556      1.0  0.93221  0.54288  0.55127  1.0000
  P   P143      1.0  0.85334  0.55066  0.96799  1.0000
  Fe  Fe280     1.0  0.70088  0.42160  0.68952  1.0000
  S   S557      1.0  0.71332  0.44056  0.66082  1.0000
  Fe  Fe281     1.0  0.71949  0.44072  0.71395  1.0000
  S   S558      1.0  0.73289  0.46150  0.68693  1.0000
  S   S559      1.0  0.72363  0.43761  0.74552  1.0000
  Fe  Fe282     1.0  0.70316  0.46558  0.67778  1.0000
  S   S560      1.0  0.68788  0.49483  0.66148  1.0000
  Fe  Fe283     1.0  0.74193  0.43493  0.67216  1.0000
  S   S561      1.0  0.77330  0.42768  0.65316  1.0000
  S   S562      1.0  0.68871  0.44695  0.70612  1.0000
  S   S563      1.0  0.73061  0.41355  0.69973  1.0000
  Fe  Fe284     1.0  0.77773  0.49290  0.79585  1.0000
  S   S564      1.0  0.80599  0.50549  0.79087  1.0000
  S   S565      1.0  0.75987  0.50054  0.77124  1.0000
  Fe  Fe285     1.0  0.78066  0.47268  0.83874  1.0000
  S   S566      1.0  0.80939  0.48298  0.83714  1.0000
  S   S567      1.0  0.76429  0.45292  0.86507  1.0000
  Fe  Fe286     1.0  0.79423  0.51245  0.82147  1.0000
  S   S568      1.0  0.79249  0.54137  0.83109  1.0000
  Fe  Fe287     1.0  0.81903  0.47512  0.80685  1.0000
  S   S569      1.0  0.84998  0.45934  0.79303  1.0000
  S   S570      1.0  0.76472  0.50267  0.82518  1.0000
  S   S571      1.0  0.79162  0.46212  0.80959  1.0000
  C   C4244     1.0  0.88621  0.43613  0.79831  1.0000
  S   S572      1.0  0.82413  0.49509  0.96623  1.0000
  C   C4245     1.0  0.51639  0.39192  0.86094  1.0000
  S   S573      1.0  0.61502  0.53687  0.72046  1.0000
  H   H3418     1.0  0.86606  0.47605  0.95705  1.0000
  S   S574      1.0  0.52185  0.55806  0.71784  1.0000
  S   S575      1.0  0.63244  0.39027  0.63134  1.0000
  Fe  Fe288     1.0  0.95538  0.53756  0.57059  1.0000
  S   S576      1.0  0.57597  0.56337  0.68513  1.0000
  C   C4246     1.0  0.84648  0.52720  0.92295  1.0000
  C   C4247     1.0  0.99353  0.39599  0.69103  1.0000
  H   H3419     1.0  0.91084  0.47834  0.58212  1.0000
  C   C4248     1.0  0.51314  0.45249  0.59368  1.0000
  H   H3420     1.0  0.89205  0.49809  0.92998  1.0000
  H   H3421     1.0  0.83024  0.49552  0.59376  1.0000
  H   H3422     1.0  0.53851  0.42034  0.81835  1.0000
  S   S577      1.0  0.74028  0.47066  0.95260  1.0000
  H   H3423     1.0  0.78955  0.44793  0.49581  1.0000
  C   C4249     1.0  0.56117  0.50802  0.76463  1.0000
  H   H3424     1.0  0.72729  0.46625  0.82166  1.0000
  C   C4250     1.0  0.87850  0.50963  0.93187  1.0000
  C   C4251     1.0  0.81536  0.40882  0.49314  1.0000
  H   H3425     1.0  0.63485  0.53809  0.62927  1.0000
  Fe  Fe289     1.0  0.89389  0.57089  0.88764  1.0000
  S   S578      1.0  0.91622  0.54793  0.90368  1.0000
  H   H3426     1.0  0.77392  0.38592  0.53934  1.0000
  S   S579      1.0  0.86401  0.56784  0.88292  1.0000
  C   C4252     1.0  0.82430  0.46212  0.95190  1.0000
  C   C4253     1.0  0.51097  0.56488  0.68143  1.0000
  C   C4254     1.0  0.53676  0.41065  0.83288  1.0000
  H   H3427     1.0  0.90047  0.42994  0.73977  1.0000
  Fe  Fe290     1.0  0.84828  0.45972  0.51135  1.0000
  H   H3428     1.0  0.91810  0.46197  0.61502  1.0000
  C   C4255     1.0  0.85070  0.45538  0.89376  1.0000
  Fe  Fe291     1.0  0.93463  0.43336  0.89948  1.0000
  S   S580      1.0  0.95162  0.45600  0.90171  1.0000
  S   S581      1.0  0.90512  0.44100  0.88940  1.0000
  H   H3429     1.0  0.53953  0.42439  0.67411  1.0000
  H   H3430     1.0  0.99582  0.51920  0.66893  1.0000
  C   C4256     1.0  0.96718  0.43331  0.68578  1.0000
  H   H3431     1.0  0.96305  0.45276  0.80020  1.0000
  C   C4257     1.0  0.69793  0.46542  0.61668  1.0000
  S   S582      1.0  0.86607  0.48370  0.50852  1.0000
  C   C4258     1.0  0.82654  0.42114  0.49718  1.0000
  C   C4259     1.0  0.92524  0.52258  0.90167  1.0000
  C   C4260     1.0  0.94217  0.51254  0.90982  1.0000
  C   C4261     1.0  0.94992  0.49228  0.90950  1.0000
  C   C4262     1.0  0.94057  0.48150  0.90150  1.0000
  C   C4263     1.0  0.92349  0.49139  0.89326  1.0000
  C   C4264     1.0  0.91598  0.51207  0.89309  1.0000
  H   H3432     1.0  0.94941  0.52052  0.91644  1.0000
  H   H3433     1.0  0.96314  0.48484  0.91575  1.0000
  H   H3434     1.0  0.91625  0.48318  0.88692  1.0000
  H   H3435     1.0  0.90279  0.51973  0.88685  1.0000
  C   C4265     1.0  0.83595  0.47248  0.88993  1.0000
  C   C4266     1.0  0.91632  0.55530  0.47733  1.0000
  H   H3436     1.0  0.88312  0.44539  0.94342  1.0000
  C   C4267     1.0  0.61985  0.42001  0.78982  1.0000
  C   C4268     1.0  0.97525  0.46089  0.79278  1.0000
  H   H3437     1.0  0.78943  0.41257  0.87046  1.0000
  C   C4269     1.0  0.97852  0.53306  0.76231  1.0000
  H   H3438     1.0  0.96188  0.52711  0.66055  1.0000
  C   C4270     1.0  0.90799  0.47780  0.72906  1.0000
  H   H3439     1.0  0.83962  0.50550  0.62670  1.0000
  C   C4271     1.0  0.71816  0.49655  0.82646  1.0000
  S   S583      1.0  0.56582  0.57240  0.73050  1.0000
  H   H3440     1.0  0.62327  0.40031  0.70731  1.0000
  C   C4272     1.0  0.77785  0.41523  0.93462  1.0000
  S   S584      1.0  0.73328  0.52165  0.96878  1.0000
  C   C4273     1.0  0.83019  0.54305  0.65216  1.0000
  H   H3441     1.0  0.77070  0.52507  0.86743  1.0000
  P   P144      1.0  0.86808  0.56861  0.58835  1.0000
  C   C4274     1.0  0.52725  0.42373  0.68710  1.0000
  H   H3442     1.0  0.59932  0.55420  0.64188  1.0000
  H   H3443     1.0  0.83513  0.52923  0.91422  1.0000
  C   C4275     1.0  0.86415  0.51261  0.92020  1.0000
  C   C4276     1.0  0.65785  0.55554  0.84899  1.0000
  C   C4277     1.0  0.88703  0.53185  0.48414  1.0000
  C   C4278     1.0  0.69561  0.48993  0.91540  1.0000
  H   H3444     1.0  0.70003  0.43383  0.62750  1.0000
  C   C4279     1.0  0.72168  0.47579  0.83263  1.0000
  H   H3445     1.0  0.92968  0.49016  0.70464  1.0000
  C   C4280     1.0  0.86883  0.44842  0.80706  1.0000
  Fe  Fe292     1.0  0.96402  0.54463  0.60854  1.0000
  C   C4281     1.0  0.77156  0.46200  0.51996  1.0000
  H   H3446     1.0  0.90945  0.50721  0.49486  1.0000
  C   C4282     1.0  0.65555  0.40921  0.64450  1.0000
  C   C4283     1.0  0.86701  0.45137  0.82638  1.0000
  C   C4284     1.0  0.94995  0.46734  0.64197  1.0000
  H   H3447     1.0  0.52833  0.50859  0.73393  1.0000
  H   H3448     1.0  0.60110  0.41056  0.75026  1.0000
  H   H3449     1.0  0.85350  0.46071  0.83330  1.0000
  C   C4285     1.0  0.81550  0.54819  0.83071  1.0000
  C   C4286     1.0  0.83270  0.54449  0.81566  1.0000
  C   C4287     1.0  0.85011  0.55212  0.81432  1.0000
  C   C4288     1.0  0.84095  0.52718  0.64272  1.0000
  H   H3450     1.0  0.80102  0.56205  0.65992  1.0000
  H   H3451     1.0  0.80610  0.58317  0.77092  1.0000
  H   H3452     1.0  0.83231  0.53636  0.80465  1.0000
  H   H3453     1.0  0.86319  0.54963  0.80242  1.0000
  C   C4289     1.0  0.85063  0.56306  0.82824  1.0000
  C   C4290     1.0  0.95181  0.51479  0.84244  1.0000
  C   C4291     1.0  0.75746  0.45895  0.88893  1.0000
  C   C4292     1.0  0.74558  0.44735  0.90428  1.0000
  C   C4293     1.0  0.74028  0.45127  0.92362  1.0000
  C   C4294     1.0  0.74715  0.46658  0.92792  1.0000
  C   C4295     1.0  0.75897  0.47828  0.91254  1.0000
  C   C4296     1.0  0.76390  0.47462  0.89301  1.0000
  H   H3454     1.0  0.74058  0.43518  0.90123  1.0000
  H   H3455     1.0  0.73111  0.44217  0.93535  1.0000
  H   H3456     1.0  0.76427  0.49015  0.91563  1.0000
  H   H3457     1.0  0.77287  0.48374  0.88113  1.0000
  C   C4297     1.0  0.66910  0.50818  0.67782  1.0000
  C   C4298     1.0  0.65574  0.52515  0.67031  1.0000
  C   C4299     1.0  0.63926  0.53453  0.68333  1.0000
  C   C4300     1.0  0.63631  0.52691  0.70382  1.0000
  C   C4301     1.0  0.65015  0.51049  0.71131  1.0000
  C   C4302     1.0  0.66659  0.50122  0.69835  1.0000
  H   H3458     1.0  0.65781  0.53068  0.65443  1.0000
  H   H3459     1.0  0.62862  0.54731  0.67752  1.0000
  H   H3460     1.0  0.64803  0.50475  0.72718  1.0000
  H   H3461     1.0  0.67717  0.48857  0.70428  1.0000
  C   C4303     1.0  0.73455  0.45494  0.75199  1.0000
  C   C4304     1.0  0.73587  0.47383  0.74000  1.0000
  C   C4305     1.0  0.74374  0.48757  0.74605  1.0000
  C   C4306     1.0  0.75075  0.48247  0.76393  1.0000
  C   C4307     1.0  0.74973  0.46347  0.77578  1.0000
  C   C4308     1.0  0.74148  0.44987  0.76992  1.0000
  H   H3462     1.0  0.73044  0.47801  0.72627  1.0000
  H   H3463     1.0  0.74435  0.50225  0.73684  1.0000
  H   H3464     1.0  0.75506  0.45933  0.78956  1.0000
  H   H3465     1.0  0.74051  0.43532  0.77930  1.0000
  H   H3466     1.0  0.65280  0.42127  0.63210  1.0000
  H   H3467     1.0  0.50251  0.48410  0.59286  1.0000
  C   C4309     1.0  0.70512  0.44530  0.61522  1.0000
  C   C4310     1.0  0.71909  0.44004  0.59824  1.0000
  H   H3468     1.0  0.79362  0.55299  0.92000  1.0000
  H   H3469     1.0  0.55575  0.43584  0.62424  1.0000
  S   S585      1.0  0.82729  0.53649  0.49744  1.0000
  C   C4311     1.0  0.50768  0.43412  0.59552  1.0000
  H   H3470     1.0  0.76613  0.40583  0.61385  1.0000
  H   H3471     1.0  0.55152  0.52107  0.77004  1.0000
  C   C4312     1.0  0.78147  0.46198  0.58881  1.0000
  C   C4313     1.0  0.76349  0.46710  0.60262  1.0000
  C   C4314     1.0  0.76086  0.45669  0.62243  1.0000
  C   C4315     1.0  0.77612  0.44093  0.62842  1.0000
  C   C4316     1.0  0.79401  0.43570  0.61454  1.0000
  C   C4317     1.0  0.79686  0.44643  0.59485  1.0000
  H   H3472     1.0  0.75158  0.47919  0.59804  1.0000
  H   H3473     1.0  0.74706  0.46092  0.63306  1.0000
  H   H3474     1.0  0.80578  0.42341  0.61910  1.0000
  H   H3475     1.0  0.81074  0.44233  0.58427  1.0000
  C   C4318     1.0  0.89680  0.49343  0.55731  1.0000
  C   C4319     1.0  0.89575  0.51015  0.54186  1.0000
  C   C4320     1.0  0.90721  0.52488  0.53980  1.0000
  C   C4321     1.0  0.91948  0.52321  0.55332  1.0000
  C   C4322     1.0  0.92099  0.50620  0.56841  1.0000
  C   C4323     1.0  0.90968  0.49140  0.57038  1.0000
  H   H3476     1.0  0.88604  0.51174  0.53160  1.0000
  S   S586      1.0  0.51942  0.46312  0.63647  1.0000
  H   H3477     1.0  0.93066  0.50453  0.57872  1.0000
  H   H3478     1.0  0.98977  0.56046  0.63355  1.0000
  S   S587      1.0  0.86662  0.41514  0.93499  1.0000
  S   S588      1.0  0.99680  0.52914  0.60241  1.0000
  C   C4324     1.0  0.77613  0.45868  0.50050  1.0000
  C   C4325     1.0  0.55280  0.49183  0.76455  1.0000
  H   H3479     1.0  0.51452  0.49057  0.71586  1.0000
  H   H3480     1.0  0.91509  0.41729  0.80171  1.0000
  C   C4326     1.0  0.50661  0.41502  0.80237  1.0000
  H   H3481     1.0  0.79690  0.42680  0.56014  1.0000
  H   H3482     1.0  0.85994  0.42377  0.89480  1.0000
  H   H3483     1.0  0.88760  0.43359  0.78353  1.0000
  C   C4327     1.0  0.82725  0.56389  0.97235  1.0000
  C   C4328     1.0  0.75425  0.47575  0.52637  1.0000
  H   H3484     1.0  0.96604  0.43206  0.71690  1.0000
  H   H3485     1.0  0.52870  0.45302  0.59350  1.0000
  C   C4329     1.0  0.64029  0.42148  0.78639  1.0000
  C   C4330     1.0  0.95124  0.54120  0.80588  1.0000
  H   H3486     1.0  0.86365  0.45645  0.89899  1.0000
  C   C4331     1.0  0.94218  0.46800  0.62540  1.0000
  C   C4332     1.0  0.71865  0.46737  0.85291  1.0000
  C   C4333     1.0  0.53013  0.40474  0.77302  1.0000
  C   C4334     1.0  0.52396  0.40235  0.79374  1.0000
  C   C4335     1.0  0.71170  0.50891  0.84059  1.0000
  C   C4336     1.0  0.70823  0.50057  0.86104  1.0000
  C   C4337     1.0  0.71209  0.47966  0.86708  1.0000
  P   P145      1.0  0.69942  0.51670  0.87918  1.0000
  C   C4338     1.0  0.68512  0.50390  0.90179  1.0000
  C   C4339     1.0  0.72060  0.52271  0.88554  1.0000
  C   C4340     1.0  0.71835  0.52774  0.90411  1.0000
  C   C4341     1.0  0.73496  0.53143  0.90948  1.0000
  C   C4342     1.0  0.75384  0.53048  0.89624  1.0000
  C   C4343     1.0  0.75603  0.52600  0.87758  1.0000
  C   C4344     1.0  0.73946  0.52223  0.87220  1.0000
  C   C4345     1.0  0.85767  0.53615  0.94892  1.0000
  C   C4346     1.0  0.70041  0.38879  0.75138  1.0000
  C   C4347     1.0  0.50025  0.44054  0.71002  1.0000
  H   H3487     1.0  0.73555  0.49061  0.48409  1.0000
  C   C4348     1.0  0.99155  0.51378  0.51208  1.0000
  C   C4349     1.0  0.68368  0.53927  0.86854  1.0000
  C   C4350     1.0  0.66942  0.53810  0.85808  1.0000
  C   C4351     1.0  0.76365  0.46947  0.48714  1.0000
  C   C4352     1.0  0.92237  0.44207  0.71487  1.0000
  H   H3488     1.0  0.80276  0.56197  0.85639  1.0000
  H   H3489     1.0  0.74598  0.53285  0.79332  1.0000
  H   H3490     1.0  0.72219  0.45127  0.85767  1.0000
  C   C4353     1.0  0.76926  0.39884  0.93574  1.0000
  Fe  Fe293     1.0  0.75354  0.49363  0.95999  1.0000
  H   H3491     1.0  0.70970  0.52495  0.83555  1.0000
  H   H3492     1.0  0.71048  0.47270  0.88263  1.0000
  H   H3493     1.0  0.70385  0.52857  0.91459  1.0000
  C   C4354     1.0  0.84627  0.42225  0.48615  1.0000
  H   H3494     1.0  0.76671  0.53342  0.90037  1.0000
  H   H3495     1.0  0.66744  0.52368  0.85673  1.0000
  H   H3496     1.0  0.74144  0.51871  0.85777  1.0000
  C   C4355     1.0  0.93078  0.45900  0.70470  1.0000
  H   H3497     1.0  0.77127  0.42503  0.94525  1.0000
  H   H3498     1.0  0.83121  0.53010  0.56476  1.0000
  H   H3499     1.0  0.52348  0.42115  0.74475  1.0000
  C   C4356     1.0  0.96813  0.51190  0.66670  1.0000
  C   C4357     1.0  0.96603  0.52352  0.80696  1.0000
  H   H3500     1.0  0.84164  0.39682  0.92227  1.0000
  C   C4358     1.0  0.99346  0.45126  0.78225  1.0000
  H   H3501     1.0  0.80147  0.40372  0.53716  1.0000
  C   C4359     1.0  0.97972  0.56871  0.64451  1.0000
  C   C4360     1.0  0.90087  0.58001  0.94150  1.0000
  H   H3502     1.0  0.82909  0.54956  0.93963  1.0000
  C   C4361     1.0  0.90034  0.43005  0.82767  1.0000
  H   H3503     1.0  0.68777  0.46936  0.63019  1.0000
  H   H3504     1.0  0.90644  0.53772  0.52779  1.0000
  Fe  Fe294     1.0  0.79076  0.50383  0.96648  1.0000
  H   H3505     1.0  0.92766  0.42812  0.70951  1.0000
  C   C4362     1.0  0.88286  0.44218  0.83672  1.0000
  S   S589      1.0  0.98771  0.52247  0.56087  1.0000
  S   S590      1.0  0.92564  0.40945  0.92580  1.0000
  H   H3506     1.0  0.66513  0.43390  0.76584  1.0000
  H   H3507     1.0  0.63660  0.50135  0.92756  1.0000
  H   H3508     1.0  0.69714  0.55959  0.87752  1.0000
  C   C4363     1.0  0.89432  0.51289  0.61513  1.0000
  C   C4364     1.0  0.73144  0.58033  0.87563  1.0000
  P   P146      1.0  0.98516  0.51785  0.78516  1.0000
  P   P147      1.0  0.82545  0.41120  0.88638  1.0000
  C   C4365     1.0  0.82186  0.41249  0.86173  1.0000
  C   C4366     1.0  0.83073  0.43518  0.88632  1.0000
  C   C4367     1.0  0.81624  0.45254  0.88196  1.0000
  C   C4368     1.0  0.81880  0.47109  0.88387  1.0000
  P   P148      1.0  0.72895  0.41390  0.59719  1.0000
  H   H3509     1.0  0.75841  0.55683  0.80519  1.0000
  C   C4369     1.0  0.83836  0.41403  0.84544  1.0000
  C   C4370     1.0  0.83593  0.41470  0.82629  1.0000
  C   C4371     1.0  0.81691  0.41443  0.82317  1.0000
  H   H3510     1.0  0.68827  0.43121  0.58765  1.0000
  C   C4372     1.0  0.80270  0.41258  0.85843  1.0000
  C   C4373     1.0  0.96503  0.47702  0.67818  1.0000
  H   H3511     1.0  0.83794  0.55001  0.65932  1.0000
  C   C4374     1.0  0.80026  0.41353  0.83921  1.0000
  H   H3512     1.0  0.97305  0.43015  0.65497  1.0000
  H   H3513     1.0  0.53663  0.49225  0.77016  1.0000
  H   H3514     1.0  0.94241  0.50053  0.66571  1.0000
  H   H3515     1.0  0.65547  0.47679  0.95147  1.0000
  C   C4375     1.0  0.97427  0.52898  0.51308  1.0000
  C   C4376     1.0  0.92382  0.46186  0.62793  1.0000
  H   H3516     1.0  0.67254  0.42470  0.65547  1.0000
  H   H3517     1.0  0.51059  0.53298  0.63562  1.0000
  H   H3518     1.0  0.80271  0.45159  0.87753  1.0000
  H   H3519     1.0  0.80738  0.48438  0.88087  1.0000
  H   H3520     1.0  0.96452  0.47164  0.63961  1.0000
  H   H3521     1.0  0.85311  0.41469  0.84758  1.0000
  H   H3522     1.0  0.84866  0.41599  0.81374  1.0000
  H   H3523     1.0  0.81491  0.41564  0.80822  1.0000
  H   H3524     1.0  0.70485  0.39417  0.63422  1.0000
  C   C4377     1.0  0.77193  0.39582  0.54956  1.0000
  H   H3525     1.0  0.76538  0.43141  0.58570  1.0000
  C   C4378     1.0  0.91302  0.45530  0.64706  1.0000
  H   H3526     1.0  0.72280  0.48703  0.57162  1.0000
  S   S591      1.0  0.77792  0.50915  0.93926  1.0000
  C   C4379     1.0  0.75884  0.38918  0.64328  1.0000
  C   C4380     1.0  0.56355  0.43586  0.71521  1.0000
  C   C4381     1.0  0.56638  0.41523  0.72248  1.0000
  H   H3527     1.0  0.98918  0.39920  0.72135  1.0000
  C   C4382     1.0  0.59027  0.41794  0.74095  1.0000
  C   C4383     1.0  0.58738  0.43870  0.73384  1.0000
  C   C4384     1.0  0.57399  0.44754  0.72086  1.0000
  P   P149      1.0  0.60229  0.45392  0.73900  1.0000
  C   C4385     1.0  0.61740  0.44066  0.75722  1.0000
  C   C4386     1.0  0.61865  0.46140  0.71536  1.0000
  C   C4387     1.0  0.63402  0.44691  0.70688  1.0000
  C   C4388     1.0  0.64654  0.45229  0.68837  1.0000
  C   C4389     1.0  0.64363  0.47205  0.67800  1.0000
  C   C4390     1.0  0.62808  0.48645  0.68615  1.0000
  C   C4391     1.0  0.61568  0.48121  0.70479  1.0000
  C   C4392     1.0  0.63790  0.44223  0.75401  1.0000
  C   C4393     1.0  0.64930  0.43258  0.76850  1.0000
  H   H3528     1.0  0.96243  0.56046  0.50589  1.0000
  H   H3529     1.0  0.99602  0.39749  0.65983  1.0000
  C   C4394     1.0  0.60835  0.42980  0.77541  1.0000
  C   C4395     1.0  0.58609  0.47498  0.74914  1.0000
  C   C4396     1.0  0.56519  0.47535  0.75683  1.0000
  S   S592      1.0  0.92117  0.41866  0.83899  1.0000
  C   C4397     1.0  0.76706  0.42139  0.57573  1.0000
  C   C4398     1.0  0.58202  0.50748  0.75752  1.0000
  C   C4399     1.0  0.59451  0.49093  0.75006  1.0000
  H   H3530     1.0  0.55359  0.44277  0.70485  1.0000
  Fe  Fe295     1.0  0.99667  0.54616  0.57111  1.0000
  C   C4400     1.0  0.92349  0.47688  0.71199  1.0000
  H   H3531     1.0  0.57199  0.46344  0.71478  1.0000
  H   H3532     1.0  0.63660  0.43149  0.71469  1.0000
  H   H3533     1.0  0.65883  0.44119  0.68229  1.0000
  H   H3534     1.0  0.65359  0.47627  0.66380  1.0000
  H   H3535     1.0  0.62579  0.50178  0.67814  1.0000
  H   H3536     1.0  0.60392  0.49275  0.71075  1.0000
  H   H3537     1.0  0.64514  0.45118  0.74051  1.0000
  C   C4401     1.0  0.97199  0.42440  0.70446  1.0000
  C   C4402     1.0  0.97598  0.54884  0.50454  1.0000
  C   C4403     1.0  0.98786  0.57778  0.65576  1.0000
  H   H3538     1.0  0.59240  0.42898  0.77847  1.0000
  H   H3539     1.0  0.55837  0.46304  0.75680  1.0000
  H   H3540     1.0  0.89883  0.45041  0.64898  1.0000
  C   C4404     1.0  0.97581  0.42339  0.66972  1.0000
  H   H3541     1.0  0.58854  0.52008  0.75746  1.0000
  H   H3542     1.0  0.61066  0.49089  0.74456  1.0000
  H   H3543     1.0  0.79075  0.57228  0.57066  1.0000
  C   C4405     1.0  0.50954  0.55361  0.70078  1.0000
  C   C4406     1.0  0.66374  0.50797  0.90629  1.0000
  C   C4407     1.0  0.89250  0.55267  0.61662  1.0000
  H   H3544     1.0  0.85617  0.58325  0.49645  1.0000
  C   C4408     1.0  0.53258  0.38639  0.87082  1.0000
  C   C4409     1.0  0.72491  0.45525  0.58222  1.0000
  C   C4410     1.0  0.71767  0.47538  0.58370  1.0000
  C   C4411     1.0  0.92077  0.45456  0.66369  1.0000
  C   C4412     1.0  0.98882  0.40474  0.67242  1.0000
  C   C4413     1.0  0.84317  0.53885  0.93734  1.0000
  C   C4414     1.0  0.98505  0.40578  0.70707  1.0000
  H   H3545     1.0  0.83387  0.57470  0.85443  1.0000
  H   H3546     1.0  0.70966  0.53828  0.79187  1.0000
  H   H3547     1.0  0.89281  0.56794  0.61685  1.0000
  H   H3548     1.0  0.91513  0.57747  0.93079  1.0000
  C   C4415     1.0  0.75149  0.41108  0.57750  1.0000
  C   C4416     1.0  0.95712  0.49677  0.66979  1.0000
  C   C4417     1.0  0.51299  0.40542  0.64954  1.0000
  H   H3549     1.0  0.91237  0.44897  0.67830  1.0000
  H   H3550     1.0  0.99090  0.45762  0.68941  1.0000
  Fe  Fe296     1.0  0.98487  0.50675  0.59284  1.0000
  C   C4418     1.0  0.52138  0.40548  0.69643  1.0000
  C   C4419     1.0  0.79045  0.55645  0.57500  1.0000
  C   C4420     1.0  0.78711  0.54646  0.56165  1.0000
  C   C4421     1.0  0.78656  0.52609  0.56726  1.0000
  C   C4422     1.0  0.78975  0.51557  0.58601  1.0000
  C   C4423     1.0  0.79344  0.52537  0.59940  1.0000
  C   C4424     1.0  0.79346  0.54599  0.59387  1.0000
  P   P150      1.0  0.79648  0.51176  0.62396  1.0000
  C   C4425     1.0  0.77168  0.51055  0.64003  1.0000
  C   C4426     1.0  0.81098  0.48681  0.62261  1.0000
  C   C4427     1.0  0.80714  0.47074  0.63839  1.0000
  C   C4428     1.0  0.81915  0.45168  0.63780  1.0000
  C   C4429     1.0  0.83488  0.44844  0.62137  1.0000
  C   C4430     1.0  0.83866  0.46428  0.60551  1.0000
  C   C4431     1.0  0.82686  0.48343  0.60614  1.0000
  C   C4432     1.0  0.76922  0.50810  0.66075  1.0000
  C   C4433     1.0  0.74992  0.50804  0.67315  1.0000
  C   C4434     1.0  0.73298  0.51025  0.66499  1.0000
  C   C4435     1.0  0.73538  0.51210  0.64448  1.0000
  C   C4436     1.0  0.75464  0.51218  0.63202  1.0000
  C   C4437     1.0  0.80999  0.52442  0.63426  1.0000
  C   C4438     1.0  0.79936  0.54063  0.64349  1.0000
  H   H3551     1.0  0.53248  0.39029  0.80294  1.0000
  C   C4439     1.0  0.83096  0.51791  0.63372  1.0000
  H   H3552     1.0  0.93564  0.52794  0.48853  1.0000
  H   H3553     1.0  0.78501  0.55443  0.54693  1.0000
  H   H3554     1.0  0.78388  0.51828  0.55699  1.0000
  H   H3555     1.0  0.78927  0.49976  0.59008  1.0000
  H   H3556     1.0  0.79588  0.55403  0.60400  1.0000
  H   H3557     1.0  0.79477  0.47268  0.65111  1.0000
  H   H3558     1.0  0.81570  0.43925  0.64981  1.0000
  H   H3559     1.0  0.84383  0.43355  0.62070  1.0000
  H   H3560     1.0  0.78220  0.50609  0.66739  1.0000
  H   H3561     1.0  0.74808  0.50594  0.68915  1.0000
  H   H3562     1.0  0.71802  0.50997  0.67461  1.0000
  H   H3563     1.0  0.72228  0.51321  0.63830  1.0000
  H   H3564     1.0  0.75608  0.51338  0.61625  1.0000
  H   H3565     1.0  0.78320  0.54595  0.64405  1.0000
  H   H3566     1.0  0.83773  0.48675  0.89185  1.0000
  H   H3567     1.0  0.96844  0.56520  0.71137  1.0000
  C   C4440     1.0  0.90383  0.51726  0.62828  1.0000
  H   H3568     1.0  0.91242  0.50527  0.63747  1.0000
  H   H3569     1.0  0.89546  0.49752  0.61409  1.0000
  C   C4441     1.0  0.85504  0.43812  0.94222  1.0000
  C   C4442     1.0  0.52409  0.43722  0.63842  1.0000
  C   C4443     1.0  0.97945  0.55350  0.75745  1.0000
  C   C4444     1.0  0.70438  0.48045  0.60102  1.0000
  C   C4445     1.0  0.87529  0.52130  0.94617  1.0000
  C   C4446     1.0  0.80941  0.54983  0.65247  1.0000
  H   H3570     1.0  0.88764  0.46158  0.75227  1.0000
  Fe  Fe297     1.0  0.91946  0.41706  0.87141  1.0000
  C   C4447     1.0  0.51883  0.41950  0.76078  1.0000
  H   H3571     1.0  0.73522  0.45170  0.56870  1.0000
  C   C4448     1.0  0.52437  0.52203  0.63222  1.0000
  C   C4449     1.0  0.52885  0.51467  0.61466  1.0000
  C   C4450     1.0  0.54676  0.50077  0.61013  1.0000
  C   C4451     1.0  0.55999  0.49391  0.62335  1.0000
  C   C4452     1.0  0.55512  0.50055  0.64147  1.0000
  C   C4453     1.0  0.53752  0.51519  0.64550  1.0000
  P   P151      1.0  0.57243  0.49181  0.65833  1.0000
  C   C4454     1.0  0.55913  0.49632  0.68277  1.0000
  C   C4455     1.0  0.58188  0.46503  0.66157  1.0000
  C   C4456     1.0  0.59863  0.45652  0.67059  1.0000
  C   C4457     1.0  0.60678  0.43604  0.67253  1.0000
  C   C4458     1.0  0.59787  0.42373  0.66600  1.0000
  C   C4459     1.0  0.58063  0.43185  0.65783  1.0000
  C   C4460     1.0  0.57244  0.45239  0.65582  1.0000
  C   C4461     1.0  0.56713  0.50588  0.69344  1.0000
  C   C4462     1.0  0.55611  0.51007  0.71193  1.0000
  C   C4463     1.0  0.53724  0.50443  0.72005  1.0000
  C   C4464     1.0  0.52944  0.49440  0.70981  1.0000
  C   C4465     1.0  0.54033  0.49039  0.69121  1.0000
  C   C4466     1.0  0.59234  0.50633  0.64838  1.0000
  C   C4467     1.0  0.58766  0.52697  0.64831  1.0000
  C   C4468     1.0  0.60297  0.53834  0.64147  1.0000
  C   C4469     1.0  0.62298  0.52928  0.63431  1.0000
  C   C4470     1.0  0.62766  0.50891  0.63364  1.0000
  C   C4471     1.0  0.61236  0.49749  0.64042  1.0000
  C   C4472     1.0  0.91875  0.57727  0.76046  1.0000
  H   H3572     1.0  0.51835  0.51968  0.60466  1.0000
  H   H3573     1.0  0.55015  0.49497  0.59658  1.0000
  H   H3574     1.0  0.57382  0.48317  0.61962  1.0000
  H   H3575     1.0  0.53378  0.52139  0.65886  1.0000
  H   H3576     1.0  0.60557  0.46583  0.67580  1.0000
  H   H3577     1.0  0.62023  0.42972  0.67875  1.0000
  H   H3578     1.0  0.60443  0.40791  0.66707  1.0000
  H   H3579     1.0  0.57388  0.42214  0.65280  1.0000
  H   H3580     1.0  0.55891  0.45826  0.64967  1.0000
  H   H3581     1.0  0.58161  0.51059  0.68745  1.0000
  H   H3582     1.0  0.56187  0.51836  0.71965  1.0000
  H   H3583     1.0  0.88642  0.41036  0.97397  1.0000
  C   C4473     1.0  0.80659  0.57953  0.91307  1.0000
  H   H3584     1.0  0.53377  0.48340  0.68300  1.0000
  H   H3585     1.0  0.57222  0.53424  0.65392  1.0000
  S   S593      1.0  0.87224  0.57346  0.82539  1.0000
  H   H3586     1.0  0.72767  0.49640  0.51855  1.0000
  H   H3587     1.0  0.64320  0.50195  0.62801  1.0000
  H   H3588     1.0  0.61630  0.48184  0.63945  1.0000
  H   H3589     1.0  0.75110  0.47856  0.54135  1.0000
  H   H3590     1.0  0.54336  0.39474  0.76649  1.0000
  H   H3591     1.0  0.95214  0.50466  0.85667  1.0000
  C   C4474     1.0  0.98727  0.50744  0.67146  1.0000
  H   H3592     1.0  0.95958  0.52534  0.52083  1.0000
  H   H3593     1.0  0.87569  0.52277  0.48660  1.0000
  C   C4475     1.0  0.93721  0.53245  0.84120  1.0000
  C   C4476     1.0  0.54831  0.40646  0.63397  1.0000
  C   C4477     1.0  0.97088  0.55632  0.72569  1.0000
  H   H3594     1.0  0.73934  0.56942  0.88615  1.0000
  C   C4478     1.0  0.55282  0.40538  0.84292  1.0000
  H   H3595     1.0  0.52025  0.57624  0.67644  1.0000
  H   H3596     1.0  0.52931  0.39249  0.69008  1.0000
  H   H3597     1.0  0.78274  0.43982  0.96856  1.0000
  Fe  Fe298     1.0  0.93795  0.38786  0.90479  1.0000
  S   S594      1.0  0.68202  0.39816  0.69249  1.0000
  C   C4479     1.0  0.88236  0.54844  0.60373  1.0000
  H   H3598     1.0  0.56348  0.38838  0.86934  1.0000
  H   H3599     1.0  0.64913  0.41419  0.79766  1.0000
  H   H3600     1.0  0.71265  0.39709  0.74770  1.0000
  C   C4480     1.0  0.89971  0.46089  0.73906  1.0000
  C   C4481     1.0  0.90415  0.49788  0.83844  1.0000
  C   C4482     1.0  0.88476  0.49410  0.84804  1.0000
  C   C4483     1.0  0.86983  0.49706  0.83702  1.0000
  C   C4484     1.0  0.87429  0.50368  0.81638  1.0000
  C   C4485     1.0  0.89369  0.50773  0.80662  1.0000
  C   C4486     1.0  0.90863  0.50463  0.81781  1.0000
  P   P152      1.0  0.90022  0.51526  0.77980  1.0000
  C   C4487     1.0  0.87807  0.51830  0.76949  1.0000
  C   C4488     1.0  0.90846  0.53912  0.77235  1.0000
  C   C4489     1.0  0.91335  0.54785  0.75205  1.0000
  H   H3601     1.0  0.84725  0.53964  0.52918  1.0000
  C   C4490     1.0  0.85710  0.46742  0.95334  1.0000
  C   C4491     1.0  0.91280  0.56924  0.78064  1.0000
  C   C4492     1.0  0.90780  0.55023  0.78660  1.0000
  C   C4493     1.0  0.87190  0.50151  0.76731  1.0000
  C   C4494     1.0  0.85503  0.50384  0.75897  1.0000
  C   C4495     1.0  0.84385  0.52290  0.75324  1.0000
  C   C4496     1.0  0.84946  0.53968  0.75595  1.0000
  C   C4497     1.0  0.86647  0.53743  0.76405  1.0000
  C   C4498     1.0  0.91953  0.49495  0.77082  1.0000
  C   C4499     1.0  0.93534  0.49853  0.75418  1.0000
  C   C4500     1.0  0.95001  0.48264  0.74750  1.0000
  C   C4501     1.0  0.94910  0.46301  0.75738  1.0000
  C   C4502     1.0  0.93356  0.45925  0.77399  1.0000
  C   C4503     1.0  0.91885  0.47507  0.78071  1.0000
  H   H3602     1.0  0.91572  0.49549  0.84701  1.0000
  H   H3603     1.0  0.88134  0.48878  0.86400  1.0000
  H   H3604     1.0  0.85480  0.49406  0.84443  1.0000
  H   H3605     1.0  0.86251  0.50553  0.80823  1.0000
  H   H3606     1.0  0.92371  0.50749  0.81058  1.0000
  H   H3607     1.0  0.91242  0.54040  0.74072  1.0000
  C   C4504     1.0  0.66042  0.57426  0.85031  1.0000
  C   C4505     1.0  0.83364  0.56623  0.84367  1.0000
  H   H3608     1.0  0.50110  0.39690  0.65665  1.0000
  H   H3609     1.0  0.90277  0.54467  0.80233  1.0000
  H   H3610     1.0  0.87982  0.48658  0.77243  1.0000
  H   H3611     1.0  0.85020  0.49076  0.75756  1.0000
  H   H3612     1.0  0.83046  0.52456  0.74728  1.0000
  H   H3613     1.0  0.84044  0.55442  0.75204  1.0000
  H   H3614     1.0  0.87027  0.55065  0.76631  1.0000
  H   H3615     1.0  0.93674  0.51344  0.74635  1.0000
  H   H3616     1.0  0.64702  0.55457  0.84077  1.0000
  C   C4506     1.0  0.93686  0.54558  0.82294  1.0000
  H   H3617     1.0  0.93308  0.44403  0.78186  1.0000
  H   H3618     1.0  0.90697  0.47171  0.79368  1.0000
  C   C4507     1.0  0.68616  0.55815  0.86976  1.0000
  H   H3619     1.0  0.95066  0.47293  0.61053  1.0000
  H   H3620     1.0  0.96707  0.52909  0.71955  1.0000
  H   H3621     1.0  0.69336  0.46962  0.94366  1.0000
  H   H3622     1.0  0.58207  0.39025  0.74090  1.0000
  H   H3623     1.0  0.50738  0.39398  0.91379  1.0000
  H   H3624     1.0  0.51544  0.38658  0.61562  1.0000
  H   H3625     1.0  0.69921  0.49599  0.60244  1.0000
  C   C4508     1.0  0.96611  0.51029  0.82540  1.0000
  Fe  Fe299     1.0  0.89713  0.41540  0.91421  1.0000
  S   S595      1.0  0.75001  0.56665  0.93087  1.0000
  H   H3626     1.0  0.89055  0.38742  0.82969  1.0000
  H   H3627     1.0  0.75178  0.57003  0.85002  1.0000
  C   C4509     1.0  0.64757  0.39185  0.64744  1.0000
  C   C4510     1.0  0.72011  0.39274  0.63634  1.0000
  C   C4511     1.0  0.90694  0.44303  0.73199  1.0000
  C   C4512     1.0  0.84727  0.54696  0.57492  1.0000
  H   H3628     1.0  0.56367  0.39883  0.62882  1.0000
  H   H3629     1.0  0.84022  0.54250  0.59042  1.0000
  H   H3630     1.0  0.88164  0.44463  0.85151  1.0000
  H   H3631     1.0  0.86662  0.50339  0.90927  1.0000
  C   C4513     1.0  0.84204  0.53998  0.56043  1.0000
  H   H3632     1.0  0.91171  0.57788  0.79177  1.0000
  H   H3633     1.0  0.92623  0.53607  0.85443  1.0000
  Fe  Fe300     1.0  0.54838  0.57444  0.70715  1.0000
  C   C4514     1.0  0.99503  0.55354  0.49437  1.0000
  H   H3634     1.0  0.85067  0.46166  0.59265  1.0000
  C   C4515     1.0  0.96995  0.53602  0.73039  1.0000
  C   C4516     1.0  0.91890  0.56662  0.74616  1.0000
  P   P153      1.0  0.95060  0.45755  0.68246  1.0000
  H   H3635     1.0  0.97441  0.50847  0.75131  1.0000
  C   C4517     1.0  0.85106  0.54538  0.54038  1.0000
  H   H3636     1.0  0.73625  0.56514  0.97342  1.0000
  C   C4518     1.0  0.66992  0.39586  0.67412  1.0000
  H   H3637     1.0  0.96065  0.45076  0.75236  1.0000
  C   C4519     1.0  0.66669  0.41122  0.65778  1.0000
  C   C4520     1.0  0.93931  0.46059  0.66128  1.0000
  S   S596      1.0  0.94984  0.41122  0.87958  1.0000
  H   H3638     1.0  0.80102  0.43205  0.91913  1.0000
  C   C4521     1.0  0.57962  0.40631  0.73547  1.0000
  H   H3639     1.0  0.91121  0.54059  0.63845  1.0000
  C   C4522     1.0  0.54383  0.42735  0.63139  1.0000
  C   C4523     1.0  0.50489  0.40453  0.71283  1.0000
  H   H3640     1.0  0.81998  0.42975  0.50881  1.0000
  C   C4524     1.0  0.90178  0.42691  0.80860  1.0000
  H   H3641     1.0  0.95818  0.48837  0.80125  1.0000
  H   H3642     1.0  0.68529  0.56763  0.80337  1.0000
  S   S597      1.0  0.96455  0.56306  0.57787  1.0000
  H   H3643     1.0  0.92545  0.55924  0.82213  1.0000
  C   C4525     1.0  0.84830  0.43680  0.89171  1.0000
  H   H3644     1.0  0.80012  0.40800  0.50166  1.0000
  H   H3645     1.0  0.78166  0.45416  0.53000  1.0000
  H   H3646     1.0  0.73323  0.53500  0.92391  1.0000
  C   C4526     1.0  0.80296  0.40700  0.90530  1.0000
  H   H3647     1.0  0.92306  0.57306  0.73047  1.0000
  C   C4527     1.0  0.98423  0.47268  0.68311  1.0000
  S   S598      1.0  0.86064  0.43814  0.48998  1.0000
  C   C4528     1.0  0.86673  0.45002  0.94574  1.0000
  C   C4529     1.0  0.73858  0.58095  0.85517  1.0000
  C   C4530     1.0  0.79465  0.41931  0.91952  1.0000
  C   C4531     1.0  0.88374  0.52836  0.60283  1.0000
  C   C4532     1.0  0.86168  0.55943  0.56946  1.0000
  C   C4533     1.0  0.84964  0.38683  0.91208  1.0000
  C   C4534     1.0  0.74121  0.48591  0.51345  1.0000
  H   H3648     1.0  0.85700  0.52182  0.64269  1.0000
  C   C4535     1.0  0.77769  0.38627  0.92193  1.0000
  C   C4536     1.0  0.79048  0.56902  0.91903  1.0000
  H   H3649     1.0  0.87714  0.52439  0.59242  1.0000
  C   C4537     1.0  0.68498  0.48025  0.93326  1.0000
  C   C4538     1.0  0.88856  0.56560  0.94755  1.0000
  H   H3650     1.0  0.90245  0.49166  0.73453  1.0000
  C   C4539     1.0  0.75401  0.39833  0.56416  1.0000
  C   C4540     1.0  0.53288  0.39553  0.64307  1.0000
  H   H3651     1.0  0.96234  0.48554  0.73480  1.0000
  H   H3652     1.0  0.80794  0.46686  0.95405  1.0000
  H   H3653     1.0  0.97743  0.49659  0.82671  1.0000
  C   C4541     1.0  0.74580  0.48268  0.49391  1.0000
  C   C4542     1.0  0.67456  0.57551  0.86067  1.0000
  H   H3654     1.0  0.88655  0.51865  0.95513  1.0000
  H   H3655     1.0  0.61288  0.41145  0.80373  1.0000
  C   C4543     1.0  0.83591  0.47353  0.95633  1.0000
  C   C4544     1.0  0.90610  0.52309  0.48866  1.0000
  H   H3656     1.0  0.82211  0.57164  0.90939  1.0000
  C   C4545     1.0  0.82129  0.58160  0.95916  1.0000
  H   H3657     1.0  0.55852  0.40612  0.71786  1.0000
  C   C4546     1.0  0.83383  0.44416  0.94529  1.0000
  C   C4547     1.0  0.97402  0.52437  0.74850  1.0000
  H   H3658     1.0  0.50220  0.38713  0.86826  1.0000
  H   H3659     1.0  0.82479  0.43504  0.94239  1.0000
  C   C4548     1.0  0.70918  0.40303  0.59387  1.0000
  C   C4549     1.0  0.70128  0.56545  0.80359  1.0000
  C   C4550     1.0  0.65309  0.49817  0.92415  1.0000
  C   C4551     1.0  0.77036  0.57935  0.92345  1.0000
  C   C4552     1.0  0.55084  0.39299  0.86176  1.0000
  H   H3660     1.0  0.51928  0.42070  0.59660  1.0000
  Fe  Fe301     1.0  0.59345  0.56335  0.70769  1.0000
  C   C4553     1.0  0.71495  0.54891  0.79720  1.0000
  H   H3661     1.0  0.50000  0.57147  0.65419  1.0000
  C   C4554     1.0  0.67456  0.40627  0.59005  1.0000
  H   H3662     1.0  0.71211  0.48660  0.91223  1.0000
  C   C4555     1.0  0.50118  0.43169  0.76925  1.0000
  C   C4556     1.0  0.74253  0.55978  0.80430  1.0000
  H   H3663     1.0  0.89373  0.55210  0.94156  1.0000
  H   H3664     1.0  0.99019  0.49850  0.51922  1.0000
  H   H3665     1.0  0.52029  0.45550  0.68542  1.0000
  C   C4557     1.0  0.78745  0.40593  0.54822  1.0000
  C   C4558     1.0  0.72919  0.57727  0.80918  1.0000
  H   H3666     1.0  0.97696  0.58069  0.73520  1.0000
  C   C4559     1.0  0.51648  0.44129  0.69360  1.0000
  Fe  Fe302     1.0  0.75872  0.53664  0.95000  1.0000
  C   C4560     1.0  0.66371  0.48434  0.93764  1.0000
  C   C4561     1.0  0.90305  0.53715  0.62890  1.0000
  C   C4562     1.0  0.73547  0.54590  0.79791  1.0000
  H   H3667     1.0  0.72118  0.50295  0.81068  1.0000
  H   H3668     1.0  0.56690  0.41071  0.83604  1.0000
  C   C4563     1.0  0.70832  0.57947  0.80980  1.0000
  H   H3669     1.0  0.95076  0.55169  0.79198  1.0000
  H   H3670     1.0  0.65522  0.51871  0.89617  1.0000
  Fe  Fe303     1.0  0.87481  0.58429  0.85199  1.0000
  C   C4564     1.0  0.95852  0.57041  0.64759  1.0000
  S   S599      1.0  0.94686  0.55946  0.63451  1.0000
  H   H3671     1.0  0.78529  0.41424  0.83670  1.0000
  H   H3672     1.0  0.65997  0.41551  0.58797  1.0000
  C   C4565     1.0  0.81606  0.55898  0.84478  1.0000
  H   H3673     1.0  0.75606  0.39590  0.94730  1.0000
  C   C4566     1.0  0.50862  0.42628  0.64737  1.0000
  C   C4567     1.0  0.73500  0.40102  0.62108  1.0000
  C   C4568     1.0  0.97265  0.48109  0.79356  1.0000
  H   H3674     1.0  0.98364  0.56039  0.76754  1.0000
  C   C4569     1.0  0.69065  0.41507  0.59003  1.0000
  H   H3675     1.0  0.56333  0.38539  0.53921  1.0000
  C   C4570     1.0  0.78495  0.41880  0.56123  1.0000
  S   S600      1.0  0.99374  0.47341  0.59638  1.0000
  C   C4571     1.0  0.84524  0.39037  0.89315  1.0000
  C   C4572     1.0  0.82374  0.39772  0.47791  1.0000
  C   C4573     1.0  0.49952  0.56212  0.66883  1.0000
  H   H3676     1.0  0.77371  0.38828  0.64616  1.0000
  C   C4574     1.0  0.99539  0.48780  0.67947  1.0000
  C   C4575     1.0  0.97566  0.56505  0.73919  1.0000
  C   C4576     1.0  0.86978  0.56885  0.96087  1.0000
  C   C4577     1.0  0.86560  0.55755  0.53485  1.0000
  C   C4578     1.0  0.94571  0.58092  0.66195  1.0000
  S   S601      1.0  0.90864  0.39205  0.89514  1.0000
  C   C4579     1.0  0.92082  0.53479  0.48511  1.0000
  C   C4580     1.0  0.67376  0.57655  0.97240  1.0000
  H   H3677     1.0  0.98771  0.57543  0.52608  1.0000
  C   C4581     1.0  0.98859  0.49162  0.78450  1.0000
  H   H3678     1.0  0.68597  0.57816  0.95935  1.0000
  H   H3679     1.0  0.68900  0.39587  0.78050  1.0000
  C   C4582     1.0  0.79461  0.39022  0.90690  1.0000
  C   C4583     1.0  0.87103  0.56447  0.54931  1.0000
  H   H3680     1.0  0.91210  0.56878  0.57832  1.0000
  C   C4584     1.0  0.75439  0.39925  0.62483  1.0000
  C   C4585     1.0  0.84487  0.58016  0.60343  1.0000
  C   C4586     1.0  0.50064  0.39062  0.59117  1.0000
  C   C4587     1.0  0.68697  0.38814  0.76987  1.0000
  H   H3681     1.0  0.82576  0.58309  0.58248  1.0000
  H   H3682     1.0  0.92939  0.58224  0.66452  1.0000
  H   H3683     1.0  0.88288  0.57325  0.54474  1.0000
  H   H3684     1.0  0.87338  0.56078  0.51946  1.0000
  P   P154      1.0  0.99717  0.57908  0.48257  1.0000
  S   S602      1.0  0.77400  0.53295  0.97528  1.0000
  H   H3685     1.0  0.63754  0.39233  0.73752  1.0000
  H   H3686     1.0  0.74228  0.39029  0.56494  1.0000
  H   H3687     1.0  0.99541  0.43569  0.78135  1.0000
  H   H3688     1.0  0.90286  0.58082  0.50296  1.0000
  C   C4588     1.0  0.84523  0.58490  0.62147  1.0000
  C   C4589     1.0  0.90402  0.58373  0.57342  1.0000
  H   H3689     1.0  0.85917  0.58145  0.62682  1.0000
  C   C4590     1.0  0.67689  0.38546  0.59372  1.0000
  C   C4591     1.0  0.88251  0.55231  0.47635  1.0000
  Fe  Fe304     1.0  0.70911  0.74056  0.39129  1.0000
  S   S603      1.0  0.72928  0.71594  0.37550  1.0000
  S   S604      1.0  0.67560  0.74520  0.39302  1.0000
  S   S605      1.0  0.58807  0.72622  0.29813  1.0000
  S   S606      1.0  0.61392  0.75053  0.25804  1.0000
  Fe  Fe305     1.0  0.59109  0.73047  0.26503  1.0000
  H   H3690     1.0  0.68600  0.65233  0.17257  1.0000
  Fe  Fe306     1.0  0.60927  0.74784  0.29104  1.0000
  S   S607      1.0  0.63563  0.73861  0.30703  1.0000
  H   H3691     1.0  0.93542  0.61728  0.40038  1.0000
  H   H3692     1.0  0.88935  0.73078  0.97682  1.0000
  C   C4592     1.0  0.81890  0.58763  0.30347  1.0000
  Fe  Fe307     1.0  0.81845  0.62808  0.39224  1.0000
  S   S608      1.0  0.83304  0.64256  0.36172  1.0000
  S   S609      1.0  0.79193  0.64358  0.41283  1.0000
  Fe  Fe308     1.0  0.83480  0.61311  0.35334  1.0000
  S   S610      1.0  0.82987  0.61087  0.32354  1.0000
  Fe  Fe309     1.0  0.86261  0.62858  0.37155  1.0000
  S   S611      1.0  0.88987  0.64383  0.36287  1.0000
  H   H3693     1.0  0.91448  0.72251  0.00618  1.0000
  S   S612      1.0  0.84796  0.61606  0.40272  1.0000
  Fe  Fe310     1.0  0.95074  0.68110  0.42293  1.0000
  S   S613      1.0  0.92170  0.66883  0.42840  1.0000
  C   C4593     1.0  0.91771  0.73685  0.99763  1.0000
  C   C4594     1.0  0.85630  0.61535  0.45182  1.0000
  H   H3694     1.0  0.62681  0.60093  0.99204  1.0000
  Fe  Fe311     1.0  0.97588  0.71375  0.40370  1.0000
  S   S614      1.0  0.50957  0.69114  0.39177  1.0000
  S   S615      1.0  0.97241  0.66564  0.44320  1.0000
  S   S616      1.0  0.97554  0.68483  0.39540  1.0000
  H   H3695     1.0  0.54040  0.69033  0.35560  1.0000
  Fe  Fe312     1.0  0.57398  0.63337  0.15390  1.0000
  S   S617      1.0  0.58969  0.62821  0.17938  1.0000
  S   S618      1.0  0.58833  0.64974  0.12383  1.0000
  C   C4595     1.0  0.51193  0.74517  0.35527  1.0000
  H   H3696     1.0  0.84947  0.58935  0.97905  1.0000
  C   C4596     1.0  0.99290  0.73281  0.46348  1.0000
  C   C4597     1.0  0.73339  0.65464  0.37519  1.0000
  Fe  Fe313     1.0  0.59007  0.64620  0.01588  1.0000
  S   S619      1.0  0.58204  0.67940  0.01208  1.0000
  S   S620      1.0  0.58497  0.62427  0.04497  1.0000
  C   C4598     1.0  0.71937  0.61513  0.16087  1.0000
  Fe  Fe314     1.0  0.61023  0.67944  0.98801  1.0000
  H   H3697     1.0  0.66886  0.62407  0.09674  1.0000
  H   H3698     1.0  0.76422  0.58932  0.29471  1.0000
  S   S621      1.0  0.61968  0.64599  0.99371  1.0000
  S   S622      1.0  0.57279  0.64535  0.99362  1.0000
  C   C4599     1.0  0.58693  0.64263  0.10208  1.0000
  C   C4600     1.0  0.58023  0.62513  0.10293  1.0000
  C   C4601     1.0  0.57943  0.61982  0.08531  1.0000
  C   C4602     1.0  0.58519  0.63198  0.06677  1.0000
  C   C4603     1.0  0.59159  0.64963  0.06590  1.0000
  C   C4604     1.0  0.59266  0.65482  0.08350  1.0000
  H   H3699     1.0  0.57561  0.61572  0.11711  1.0000
  H   H3700     1.0  0.57432  0.60625  0.08606  1.0000
  H   H3701     1.0  0.59593  0.65919  0.05168  1.0000
  H   H3702     1.0  0.59774  0.66844  0.08276  1.0000
  H   H3703     1.0  0.55064  0.71725  0.32734  1.0000
  C   C4605     1.0  0.93098  0.73790  0.97905  1.0000
  S   S623      1.0  0.60213  0.70460  0.24811  1.0000
  C   C4606     1.0  0.50419  0.58956  0.16729  1.0000
  H   H3704     1.0  0.84615  0.73092  0.38247  1.0000
  H   H3705     1.0  0.51905  0.63777  0.14748  1.0000
  C   C4607     1.0  0.58459  0.67085  0.21852  1.0000
  C   C4608     1.0  0.79142  0.72528  0.38680  1.0000
  C   C4609     1.0  0.67839  0.60211  0.12146  1.0000
  H   H3706     1.0  0.50626  0.60036  0.05992  1.0000
  C   C4610     1.0  0.49985  0.66752  0.02597  1.0000
  H   H3707     1.0  0.80569  0.62072  0.47266  1.0000
  Fe  Fe315     1.0  0.58702  0.77605  0.25967  1.0000
  H   H3708     1.0  0.80181  0.58797  0.35288  1.0000
  H   H3709     1.0  0.54704  0.65639  0.40254  1.0000
  H   H3710     1.0  0.82882  0.59447  0.29048  1.0000
  C   C4611     1.0  0.78923  0.67288  0.47043  1.0000
  C   C4612     1.0  0.81658  0.59295  0.32193  1.0000
  S   S624      1.0  0.54329  0.64538  0.17152  1.0000
  S   S625      1.0  0.55185  0.60657  0.20650  1.0000
  C   C4613     1.0  0.80497  0.68541  0.31007  1.0000
  H   H3711     1.0  0.94316  0.74485  0.45986  1.0000
  P   P155      1.0  0.50521  0.62630  0.08675  1.0000
  S   S626      1.0  0.56441  0.75632  0.26420  1.0000
  H   H3712     1.0  0.78086  0.61845  0.27878  1.0000
  S   S627      1.0  0.64276  0.74759  0.44301  1.0000
  C   C4614     1.0  0.87440  0.72045  0.39232  1.0000
  C   C4615     1.0  0.89833  0.65120  0.38109  1.0000
  C   C4616     1.0  0.88681  0.65074  0.40049  1.0000
  C   C4617     1.0  0.89409  0.65637  0.41472  1.0000
  C   C4618     1.0  0.91300  0.66239  0.40977  1.0000
  C   C4619     1.0  0.92442  0.66308  0.39030  1.0000
  C   C4620     1.0  0.91707  0.65756  0.37602  1.0000
  H   H3713     1.0  0.87226  0.64613  0.40450  1.0000
  H   H3714     1.0  0.88490  0.65624  0.42957  1.0000
  H   H3715     1.0  0.93893  0.66781  0.38627  1.0000
  H   H3716     1.0  0.92602  0.65806  0.36101  1.0000
  Fe  Fe316     1.0  0.97304  0.69619  0.44732  1.0000
  C   C4621     1.0  0.67325  0.64468  0.17806  1.0000
  C   C4622     1.0  0.53541  0.70682  0.43119  1.0000
  C   C4623     1.0  0.86407  0.60072  0.46690  1.0000
  H   H3717     1.0  0.64609  0.58625  0.16463  1.0000
  H   H3718     1.0  0.67635  0.70400  0.37958  1.0000
  C   C4624     1.0  0.80124  0.70802  0.35907  1.0000
  C   C4625     1.0  0.88397  0.60856  0.30454  1.0000
  C   C4626     1.0  0.55481  0.68281  0.24219  1.0000
  C   C4627     1.0  0.56609  0.69357  0.24830  1.0000
  H   H3719     1.0  0.53888  0.68327  0.24912  1.0000
  H   H3720     1.0  0.55886  0.70214  0.25988  1.0000
  C   C4628     1.0  0.74734  0.69682  0.38615  1.0000
  C   C4629     1.0  0.76215  0.68518  0.37377  1.0000
  C   C4630     1.0  0.77624  0.66916  0.38172  1.0000
  C   C4631     1.0  0.77539  0.66447  0.40221  1.0000
  C   C4632     1.0  0.76065  0.67619  0.41461  1.0000
  C   C4633     1.0  0.74676  0.69245  0.40659  1.0000
  H   H3721     1.0  0.76268  0.68852  0.35796  1.0000
  H   H3722     1.0  0.78740  0.66015  0.37207  1.0000
  H   H3723     1.0  0.75982  0.67259  0.43049  1.0000
  H   H3724     1.0  0.73536  0.70131  0.41625  1.0000
  C   C4634     1.0  0.64079  0.75375  0.32099  1.0000
  C   C4635     1.0  0.65372  0.74498  0.33438  1.0000
  C   C4636     1.0  0.65950  0.75669  0.34466  1.0000
  H   H3725     1.0  0.65928  0.72904  0.33689  1.0000
  C   C4637     1.0  0.58630  0.73043  0.34852  1.0000
  C   C4638     1.0  0.57198  0.74829  0.34818  1.0000
  C   C4639     1.0  0.55670  0.75132  0.36497  1.0000
  C   C4640     1.0  0.60813  0.68579  0.34108  1.0000
  C   C4641     1.0  0.59461  0.67667  0.33615  1.0000
  C   C4642     1.0  0.59787  0.67296  0.31694  1.0000
  C   C4643     1.0  0.61452  0.67848  0.30241  1.0000
  C   C4644     1.0  0.62797  0.68766  0.30713  1.0000
  C   C4645     1.0  0.62480  0.69130  0.32635  1.0000
  H   H3726     1.0  0.59795  0.72832  0.33532  1.0000
  H   H3727     1.0  0.57228  0.75949  0.33463  1.0000
  C   C4646     1.0  0.66035  0.64542  0.16554  1.0000
  H   H3728     1.0  0.58119  0.67293  0.34687  1.0000
  H   H3729     1.0  0.58705  0.66650  0.31305  1.0000
  H   H3730     1.0  0.61639  0.67652  0.28728  1.0000
  H   H3731     1.0  0.64022  0.69297  0.29563  1.0000
  C   C4647     1.0  0.53376  0.68678  0.43477  1.0000
  C   C4648     1.0  0.73205  0.58780  0.01191  1.0000
  H   H3732     1.0  0.80462  0.67870  0.42019  1.0000
  C   C4649     1.0  0.56398  0.67134  0.22735  1.0000
  C   C4650     1.0  0.57060  0.71898  0.38286  1.0000
  S   S628      1.0  0.54923  0.65721  0.22114  1.0000
  H   H3733     1.0  0.60209  0.67385  0.42959  1.0000
  C   C4651     1.0  0.71581  0.61069  0.98619  1.0000
  H   H3734     1.0  0.99189  0.76901  0.99863  1.0000
  H   H3735     1.0  0.50681  0.75800  0.47551  1.0000
  H   H3736     1.0  0.57356  0.66559  0.45758  1.0000
  H   H3737     1.0  0.66565  0.60509  0.26625  1.0000
  C   C4652     1.0  0.64349  0.61890  0.12096  1.0000
  H   H3738     1.0  0.61318  0.58965  0.05748  1.0000
  H   H3739     1.0  0.75590  0.66676  0.97965  1.0000
  H   H3740     1.0  0.91009  0.65101  0.47294  1.0000
  H   H3741     1.0  0.87264  0.59341  0.28823  1.0000
  H   H3742     1.0  0.64540  0.66967  0.35877  1.0000
  H   H3743     1.0  0.96852  0.60149  0.41005  1.0000
  S   S629      1.0  0.86573  0.60048  0.36036  1.0000
  H   H3744     1.0  0.62420  0.58548  0.22596  1.0000
  C   C4653     1.0  0.67226  0.59138  0.14080  1.0000
  H   H3745     1.0  0.54624  0.65646  0.44692  1.0000
  H   H3746     1.0  0.63229  0.62949  0.11341  1.0000
  C   C4654     1.0  0.92412  0.60804  0.40753  1.0000
  Fe  Fe317     1.0  0.99724  0.67133  0.41618  1.0000
  S   S630      1.0  0.81791  0.59967  0.38319  1.0000
  H   H3747     1.0  0.59183  0.66211  0.20708  1.0000
  C   C4655     1.0  0.90892  0.75424  0.00531  1.0000
  C   C4656     1.0  0.66407  0.61583  0.11163  1.0000
  H   H3748     1.0  0.64748  0.60667  0.03272  1.0000
  H   H3749     1.0  0.56938  0.62792  0.41999  1.0000
  C   C4657     1.0  0.73114  0.60390  0.17462  1.0000
  P   P156      1.0  0.64666  0.61362  0.23137  1.0000
  C   C4658     1.0  0.61998  0.61192  0.23837  1.0000
  C   C4659     1.0  0.65169  0.62940  0.24554  1.0000
  C   C4660     1.0  0.64594  0.65028  0.24035  1.0000
  C   C4661     1.0  0.64928  0.66269  0.25141  1.0000
  C   C4662     1.0  0.65868  0.65436  0.26759  1.0000
  C   C4663     1.0  0.66461  0.63359  0.27279  1.0000
  C   C4664     1.0  0.66108  0.62112  0.26186  1.0000
  H   H3750     1.0  0.79112  0.65475  0.44927  1.0000
  C   C4665     1.0  0.58471  0.62566  0.25194  1.0000
  C   C4666     1.0  0.60539  0.62644  0.24766  1.0000
  C   C4667     1.0  0.61344  0.59656  0.23363  1.0000
  H   H3751     1.0  0.71987  0.63083  0.15525  1.0000
  C   C4668     1.0  0.52189  0.64179  0.13139  1.0000
  S   S631      1.0  0.56855  0.60203  0.15948  1.0000
  S   S632      1.0  0.53443  0.76015  0.31955  1.0000
  H   H3752     1.0  0.63852  0.65697  0.22793  1.0000
  H   H3753     1.0  0.64429  0.67878  0.24753  1.0000
  H   H3754     1.0  0.66123  0.66402  0.27614  1.0000
  H   H3755     1.0  0.67184  0.62713  0.28538  1.0000
  C   C4669     1.0  0.77066  0.61824  0.29323  1.0000
  C   C4670     1.0  0.63725  0.60821  0.14008  1.0000
  H   H3756     1.0  0.57346  0.63728  0.25847  1.0000
  H   H3757     1.0  0.60966  0.63876  0.25120  1.0000
  S   S633      1.0  0.94923  0.71129  0.42945  1.0000
  C   C4671     1.0  0.73326  0.64761  0.39546  1.0000
  C   C4672     1.0  0.62584  0.71082  0.38004  1.0000
  H   H3758     1.0  0.53209  0.65700  0.01740  1.0000
  H   H3759     1.0  0.49891  0.67769  0.01185  1.0000
  H   H3760     1.0  0.67937  0.63437  0.20744  1.0000
  C   C4673     1.0  0.76724  0.63413  0.30307  1.0000
  C   C4674     1.0  0.58677  0.69284  0.23970  1.0000
  C   C4675     1.0  0.98874  0.58558  0.45919  1.0000
  C   C4676     1.0  0.60494  0.65575  0.39323  1.0000
  H   H3761     1.0  0.97096  0.78407  0.40932  1.0000
  H   H3762     1.0  0.77197  0.60737  0.39241  1.0000
  H   H3763     1.0  0.62300  0.78107  0.30826  1.0000
  C   C4677     1.0  0.76127  0.62740  0.36731  1.0000
  H   H3764     1.0  0.63489  0.69923  0.32938  1.0000
  H   H3765     1.0  0.50432  0.62158  0.12910  1.0000
  C   C4678     1.0  0.81370  0.75793  0.41828  1.0000
  C   C4679     1.0  0.64476  0.68196  0.36578  1.0000
  Fe  Fe318     1.0  0.55860  0.63770  0.19757  1.0000
  C   C4680     1.0  0.66235  0.70126  0.37746  1.0000
  C   C4681     1.0  0.78095  0.74777  0.42779  1.0000
  H   H3766     1.0  0.56221  0.61049  0.24951  1.0000
  C   C4682     1.0  0.53605  0.59301  0.09357  1.0000
  C   C4683     1.0  0.65253  0.62507  0.20529  1.0000
  H   H3767     1.0  0.62650  0.61884  0.19774  1.0000
  C   C4684     1.0  0.58528  0.71535  0.36565  1.0000
  P   P157      1.0  0.89115  0.59088  0.46380  1.0000
  C   C4685     1.0  0.53265  0.70566  0.35570  1.0000
  C   C4686     1.0  0.73181  0.65250  0.97914  1.0000
  H   H3768     1.0  0.74077  0.61086  0.17965  1.0000
  C   C4687     1.0  0.57399  0.77279  0.44597  1.0000
  C   C4688     1.0  0.58926  0.76255  0.43284  1.0000
  C   C4689     1.0  0.59219  0.74175  0.43552  1.0000
  C   C4690     1.0  0.58041  0.73091  0.45190  1.0000
  C   C4691     1.0  0.77147  0.76673  0.43192  1.0000
  P   P158      1.0  0.58402  0.70402  0.45558  1.0000
  C   C4692     1.0  0.56510  0.69731  0.44623  1.0000
  C   C4693     1.0  0.60988  0.69431  0.44369  1.0000
  C   C4694     1.0  0.61415  0.67958  0.43208  1.0000
  C   C4695     1.0  0.63431  0.67216  0.42334  1.0000
  C   C4696     1.0  0.65028  0.67962  0.42580  1.0000
  C   C4697     1.0  0.64613  0.69460  0.43687  1.0000
  C   C4698     1.0  0.62608  0.70182  0.44583  1.0000
  H   H3769     1.0  0.54080  0.66283  0.12930  1.0000
  H   H3770     1.0  0.52157  0.68281  0.43039  1.0000
  C   C4699     1.0  0.55099  0.71213  0.43689  1.0000
  H   H3771     1.0  0.89781  0.63209  0.45499  1.0000
  C   C4700     1.0  0.97402  0.59709  0.42377  1.0000
  C   C4701     1.0  0.91542  0.60044  0.39590  1.0000
  H   H3772     1.0  0.52444  0.71822  0.42410  1.0000
  C   C4702     1.0  0.66277  0.68516  0.36893  1.0000
  H   H3773     1.0  0.67241  0.74133  0.46775  1.0000
  H   H3774     1.0  0.64346  0.72642  0.38983  1.0000
  H   H3775     1.0  0.69796  0.61511  0.14377  1.0000
  C   C4703     1.0  0.52005  0.64290  0.04730  1.0000
  H   H3776     1.0  0.60396  0.73424  0.42497  1.0000
  H   H3777     1.0  0.82940  0.63343  0.44200  1.0000
  C   C4704     1.0  0.80909  0.71466  0.39368  1.0000
  H   H3778     1.0  0.64424  0.66988  0.02477  1.0000
  H   H3779     1.0  0.66586  0.67406  0.41885  1.0000
  H   H3780     1.0  0.65839  0.70082  0.43847  1.0000
  H   H3781     1.0  0.62324  0.71351  0.45428  1.0000
  S   S634      1.0  0.97758  0.74406  0.38410  1.0000
  H   H3782     1.0  0.55172  0.72780  0.43421  1.0000
  C   C4705     1.0  0.51788  0.59323  0.06849  1.0000
  C   C4706     1.0  0.53757  0.66099  0.10046  1.0000
  C   C4707     1.0  0.84151  0.71522  0.41318  1.0000
  C   C4708     1.0  0.65209  0.77732  0.34193  1.0000
  C   C4709     1.0  0.66839  0.65471  0.00447  1.0000
  C   C4710     1.0  0.89361  0.58574  0.42566  1.0000
  C   C4711     1.0  0.79371  0.66863  0.45135  1.0000
  H   H3783     1.0  0.53483  0.63410  0.04948  1.0000
  H   H3784     1.0  0.86636  0.62108  0.43827  1.0000
  C   C4712     1.0  0.67784  0.63637  0.99858  1.0000
  C   C4713     1.0  0.83532  0.62256  0.45395  1.0000
  C   C4714     1.0  0.65178  0.65559  0.02061  1.0000
  C   C4715     1.0  0.64451  0.63822  0.03100  1.0000
  C   C4716     1.0  0.65353  0.62000  0.02500  1.0000
  C   C4717     1.0  0.67001  0.61907  0.00877  1.0000
  H   H3785     1.0  0.89835  0.62024  0.32168  1.0000
  H   H3786     1.0  0.57000  0.70792  0.39649  1.0000
  H   H3787     1.0  0.91392  0.69840  0.98112  1.0000
  S   S635      1.0  0.58436  0.77499  0.29213  1.0000
  H   H3788     1.0  0.52395  0.64731  0.98640  1.0000
  C   C4718     1.0  0.76102  0.62039  0.38759  1.0000
  C   C4719     1.0  0.55042  0.72857  0.01332  1.0000
  C   C4720     1.0  0.56487  0.74133  0.46478  1.0000
  C   C4721     1.0  0.55140  0.74101  0.99453  1.0000
  H   H3789     1.0  0.63149  0.63898  0.04334  1.0000
  C   C4722     1.0  0.78310  0.78117  0.42952  1.0000
  C   C4723     1.0  0.52106  0.60260  0.08251  1.0000
  H   H3790     1.0  0.72297  0.65590  0.40632  1.0000
  H   H3791     1.0  0.83592  0.69141  0.38857  1.0000
  H   H3792     1.0  0.67716  0.67542  0.36438  1.0000
  C   C4724     1.0  0.82252  0.70031  0.38327  1.0000
  C   C4725     1.0  0.64385  0.71394  0.38318  1.0000
  C   C4726     1.0  0.58534  0.74449  0.99459  1.0000
  H   H3793     1.0  0.88349  0.72614  0.37808  1.0000
  Fe  Fe319     1.0  0.56341  0.75361  0.29675  1.0000
  H   H3794     1.0  0.87983  0.69461  0.43849  1.0000
  C   C4727     1.0  0.78581  0.69593  0.30691  1.0000
  C   C4728     1.0  0.72104  0.60656  0.00488  1.0000
  H   H3795     1.0  0.52217  0.77788  0.28051  1.0000
  H   H3796     1.0  0.95804  0.77049  0.99276  1.0000
  C   C4729     1.0  0.51859  0.65577  0.02905  1.0000
  H   H3797     1.0  0.90031  0.70810  0.40611  1.0000
  Fe  Fe320     1.0  0.67716  0.77687  0.37854  1.0000
  H   H3798     1.0  0.80240  0.71853  0.45883  1.0000
  H   H3799     1.0  0.82918  0.68619  0.35797  1.0000
  S   S636      1.0  0.50850  0.60513  0.18141  1.0000
  C   C4730     1.0  0.51140  0.77430  0.40429  1.0000
  C   C4731     1.0  0.98586  0.78091  0.98745  1.0000
  H   H3800     1.0  0.61183  0.72110  0.38432  1.0000
  C   C4732     1.0  0.56322  0.67719  0.44989  1.0000
  C   C4733     1.0  0.80132  0.68235  0.43482  1.0000
  C   C4734     1.0  0.54768  0.67197  0.44407  1.0000
  C   C4735     1.0  0.79239  0.69089  0.47304  1.0000
  H   H3801     1.0  0.63330  0.63701  0.16321  1.0000
  H   H3802     1.0  0.59911  0.77064  0.42076  1.0000
  Fe  Fe321     1.0  0.84874  0.58903  0.39083  1.0000
  C   C4736     1.0  0.74511  0.61705  0.33097  1.0000
  C   C4737     1.0  0.56164  0.76219  0.46179  1.0000
  C   C4738     1.0  0.57834  0.61052  0.24691  1.0000
  P   P159      1.0  0.81424  0.71841  0.41616  1.0000
  H   H3803     1.0  0.84261  0.69879  0.44322  1.0000
  C   C4739     1.0  0.52914  0.65191  0.08986  1.0000
  H   H3804     1.0  0.63761  0.66076  0.41450  1.0000
  C   C4740     1.0  0.58431  0.73200  0.01334  1.0000
  C   C4741     1.0  0.90185  0.59384  0.43741  1.0000
  C   C4742     1.0  0.57579  0.64022  0.40994  1.0000
  H   H3805     1.0  0.71633  0.61779  0.01412  1.0000
  C   C4743     1.0  0.51683  0.63780  0.10002  1.0000
  H   H3806     1.0  0.53713  0.72187  0.02027  1.0000
  C   C4744     1.0  0.53839  0.72087  0.33963  1.0000
  C   C4745     1.0  0.59589  0.68155  0.22469  1.0000
  H   H3807     1.0  0.77233  0.61935  0.35670  1.0000
  C   C4746     1.0  0.85118  0.70505  0.42898  1.0000
  C   C4747     1.0  0.88389  0.71032  0.40810  1.0000
  C   C4748     1.0  0.96663  0.78181  0.98401  1.0000
  H   H3808     1.0  0.50398  0.76046  0.35517  1.0000
  C   C4749     1.0  0.66243  0.58899  0.23591  1.0000
  H   H3809     1.0  0.54498  0.76469  0.36427  1.0000
  Fe  Fe322     1.0  0.67127  0.75539  0.42161  1.0000
  C   C4750     1.0  0.63975  0.62573  0.19251  1.0000
  C   C4751     1.0  0.80439  0.70053  0.43730  1.0000
  H   H3810     1.0  0.67350  0.66845  0.99663  1.0000
  H   H3811     1.0  0.96064  0.75169  0.42442  1.0000
  C   C4752     1.0  0.80214  0.74324  0.42079  1.0000
  H   H3812     1.0  0.82212  0.65724  0.32243  1.0000
  H   H3813     1.0  0.60645  0.62746  0.41381  1.0000
  H   H3814     1.0  0.65079  0.76904  0.25943  1.0000
  C   C4753     1.0  0.56674  0.72427  0.02283  1.0000
  Fe  Fe323     1.0  0.53898  0.61339  0.17901  1.0000
  H   H3815     1.0  0.66305  0.65358  0.15031  1.0000
  H   H3816     1.0  0.54424  0.73917  0.39530  1.0000
  C   C4754     1.0  0.74718  0.63060  0.40165  1.0000
  H   H3817     1.0  0.73514  0.61637  0.34556  1.0000
  H   H3818     1.0  0.83006  0.75492  0.41312  1.0000
  H   H3819     1.0  0.74767  0.62569  0.41728  1.0000
  H   H3820     1.0  0.53248  0.65591  0.07381  1.0000
  H   H3821     1.0  0.81817  0.69241  0.30418  1.0000
  C   C4755     1.0  0.65152  0.59451  0.15000  1.0000
  H   H3822     1.0  0.87025  0.61997  0.30610  1.0000
  H   H3823     1.0  0.53854  0.74389  0.98760  1.0000
  H   H3824     1.0  0.60328  0.77507  0.35519  1.0000
  Fe  Fe324     1.0  0.70479  0.77957  0.40525  1.0000
  C   C4756     1.0  0.64069  0.74285  0.46889  1.0000
  H   H3825     1.0  0.68810  0.59567  0.21205  1.0000
  S   S637      1.0  0.70488  0.74756  0.42167  1.0000
  H   H3826     1.0  0.59913  0.75029  0.98752  1.0000
  C   C4757     1.0  0.96275  0.78168  0.42467  1.0000
  H   H3827     1.0  0.69427  0.59979  0.11395  1.0000
  H   H3828     1.0  0.61173  0.68125  0.21765  1.0000
  P   P160      1.0  0.74924  0.65453  0.33447  1.0000
  S   S638      1.0  0.62980  0.70081  0.98762  1.0000
  C   C4758     1.0  0.51345  0.63267  0.12087  1.0000
  C   C4759     1.0  0.70654  0.58570  0.16135  1.0000
  C   C4760     1.0  0.56322  0.65618  0.40015  1.0000
  C   C4761     1.0  0.51657  0.71021  0.37159  1.0000
  C   C4762     1.0  0.74766  0.64481  0.36087  1.0000
  C   C4763     1.0  0.76127  0.60183  0.30219  1.0000
  H   H3829     1.0  0.79799  0.70520  0.34596  1.0000
  H   H3830     1.0  0.92000  0.60377  0.37981  1.0000
  C   C4764     1.0  0.56880  0.74930  0.98507  1.0000
  H   H3831     1.0  0.92926  0.59355  0.31913  1.0000
  C   C4765     1.0  0.66941  0.63451  0.19784  1.0000
  H   H3832     1.0  0.97504  0.77848  0.34786  1.0000
  C   C4766     1.0  0.87229  0.70270  0.42641  1.0000
  Fe  Fe325     1.0  0.58181  0.59778  0.18629  1.0000
  C   C4767     1.0  0.94705  0.75942  0.45314  1.0000
  C   C4768     1.0  0.57145  0.67196  0.38705  1.0000
  H   H3833     1.0  0.54730  0.67164  0.09260  1.0000
  C   C4769     1.0  0.59271  0.59588  0.23793  1.0000
  C   C4770     1.0  0.70703  0.60611  0.15429  1.0000
  H   H3834     1.0  0.85531  0.58985  0.23745  1.0000
  Fe  Fe326     1.0  0.56722  0.67877  0.98775  1.0000
  H   H3835     1.0  0.56607  0.71436  0.03724  1.0000
  C   C4771     1.0  0.85328  0.72300  0.39485  1.0000
  C   C4772     1.0  0.64362  0.63598  0.17278  1.0000
  H   H3836     1.0  0.75444  0.69503  0.31087  1.0000
  H   H3837     1.0  0.53875  0.59981  0.10457  1.0000
  P   P161      1.0  0.69999  0.63445  0.97842  1.0000
  H   H3838     1.0  0.74182  0.58812  0.32811  1.0000
  H   H3839     1.0  0.67659  0.60483  0.00418  1.0000
  H   H3840     1.0  0.66995  0.74975  0.35442  1.0000
  C   C4773     1.0  0.79996  0.70467  0.45655  1.0000
  C   C4774     1.0  0.62616  0.69493  0.37107  1.0000
  C   C4775     1.0  0.53395  0.65595  0.12121  1.0000
  C   C4776     1.0  0.89979  0.60869  0.31336  1.0000
  H   H3841     1.0  0.89876  0.75342  0.01981  1.0000
  C   C4777     1.0  0.75458  0.63357  0.32211  1.0000
  H   H3842     1.0  0.92456  0.61068  0.43682  1.0000
  C   C4778     1.0  0.59664  0.64001  0.40648  1.0000
  C   C4779     1.0  0.59235  0.67204  0.38364  1.0000
  H   H3843     1.0  0.61600  0.58542  0.09245  1.0000
  S   S639      1.0  0.53519  0.69601  0.98933  1.0000
  H   H3844     1.0  0.54963  0.77009  0.47190  1.0000
  C   C4780     1.0  0.72584  0.67117  0.32936  1.0000
  C   C4781     1.0  0.71970  0.68984  0.33527  1.0000
  C   C4782     1.0  0.70231  0.70313  0.33025  1.0000
  C   C4783     1.0  0.69084  0.69788  0.31938  1.0000
  C   C4784     1.0  0.69657  0.67923  0.31381  1.0000
  C   C4785     1.0  0.71399  0.66593  0.31872  1.0000
  C   C4786     1.0  0.77081  0.66705  0.32534  1.0000
  C   C4787     1.0  0.76886  0.68673  0.31423  1.0000
  H   H3845     1.0  0.51490  0.76240  0.41661  1.0000
  H   H3846     1.0  0.78412  0.71115  0.29856  1.0000
  C   C4788     1.0  0.80717  0.66569  0.32053  1.0000
  C   C4789     1.0  0.79020  0.65659  0.32825  1.0000
  H   H3847     1.0  0.77464  0.64672  0.29582  1.0000
  H   H3848     1.0  0.72285  0.66817  0.37095  1.0000
  H   H3849     1.0  0.72861  0.69437  0.34335  1.0000
  H   H3850     1.0  0.69791  0.71762  0.33459  1.0000
  H   H3851     1.0  0.67760  0.70831  0.31507  1.0000
  H   H3852     1.0  0.68766  0.67525  0.30535  1.0000
  H   H3853     1.0  0.71827  0.65175  0.31386  1.0000
  C   C4790     1.0  0.90181  0.62477  0.46916  1.0000
  H   H3854     1.0  0.77170  0.73666  0.42999  1.0000
  H   H3855     1.0  0.62124  0.61055  0.14717  1.0000
  S   S640      1.0  0.71106  0.77194  0.37485  1.0000
  H   H3856     1.0  0.99184  0.62020  0.41581  1.0000
  C   C4791     1.0  0.99453  0.60190  0.44456  1.0000
  H   H3857     1.0  0.97197  0.61970  0.47527  1.0000
  H   H3858     1.0  0.77364  0.72987  0.36461  1.0000
  C   C4792     1.0  0.74860  0.60117  0.32108  1.0000
  C   C4793     1.0  0.50275  0.64197  0.06282  1.0000
  C   C4794     1.0  0.55618  0.73681  0.38239  1.0000
  C   C4795     1.0  0.63310  0.77432  0.31843  1.0000
  H   H3859     1.0  0.56143  0.68401  0.37946  1.0000
  C   C4796     1.0  0.91757  0.60457  0.42825  1.0000
  P   P162      1.0  0.60312  0.69183  0.36553  1.0000
  H   H3860     1.0  0.62116  0.65502  0.39031  1.0000
  C   C4797     1.0  0.81870  0.69720  0.36593  1.0000
  C   C4798     1.0  0.52793  0.74064  0.33937  1.0000
  H   H3861     1.0  0.79247  0.64119  0.33601  1.0000
  H   H3862     1.0  0.59733  0.72799  0.02032  1.0000
  C   C4799     1.0  0.91719  0.59363  0.31193  1.0000
  C   C4800     1.0  0.91363  0.77263  0.99451  1.0000
  C   C4801     1.0  0.88551  0.59346  0.29420  1.0000
  C   C4802     1.0  0.90037  0.58906  0.40499  1.0000
  C   C4803     1.0  0.50621  0.73001  0.37131  1.0000
  C   C4804     1.0  0.80419  0.77679  0.42271  1.0000
  C   C4805     1.0  0.78756  0.72196  0.36956  1.0000
  C   C4806     1.0  0.82196  0.61547  0.47125  1.0000
  H   H3863     1.0  0.78045  0.73604  0.39463  1.0000
  H   H3864     1.0  0.77113  0.59268  0.98076  1.0000
  H   H3865     1.0  0.99635  0.77846  0.37511  1.0000
  H   H3866     1.0  0.73921  0.63801  0.98597  1.0000
  C   C4807     1.0  0.98723  0.60757  0.42697  1.0000
  C   C4808     1.0  0.95694  0.76324  0.43318  1.0000
  H   H3867     1.0  0.63585  0.78225  0.22930  1.0000
  C   C4809     1.0  0.64048  0.58941  0.99089  1.0000
  C   C4810     1.0  0.94305  0.77404  0.46466  1.0000
  H   H3868     1.0  0.60842  0.74344  0.47489  1.0000
  H   H3869     1.0  0.88529  0.58801  0.25115  1.0000
  H   H3870     1.0  0.75504  0.77031  0.43684  1.0000
  C   C4811     1.0  0.64691  0.78505  0.25414  1.0000
  S   S641      1.0  0.57846  0.71586  0.55478  1.0000
  Fe  Fe327     1.0  0.56923  0.76569  0.57357  1.0000
  S   S642      1.0  0.59148  0.73882  0.58423  1.0000
  C   C4812     1.0  0.56117  0.73382  0.51853  1.0000
  Fe  Fe328     1.0  0.60036  0.73564  0.55220  1.0000
  S   S643      1.0  0.63322  0.72969  0.53649  1.0000
  Fe  Fe329     1.0  0.56762  0.72154  0.58591  1.0000
  S   S644      1.0  0.55526  0.70208  0.61483  1.0000
  C   C4813     1.0  0.72890  0.59574  0.84151  1.0000
  C   C4814     1.0  0.91524  0.59873  0.56377  1.0000
  S   S645      1.0  0.58742  0.60910  0.64192  1.0000
  Fe  Fe330     1.0  0.64102  0.64942  0.83575  1.0000
  S   S646      1.0  0.63055  0.68268  0.83190  1.0000
  S   S647      1.0  0.65318  0.62876  0.86149  1.0000
  Fe  Fe331     1.0  0.63654  0.64780  0.79414  1.0000
  S   S648      1.0  0.62605  0.68098  0.78661  1.0000
  S   S649      1.0  0.64082  0.62689  0.77304  1.0000
  Fe  Fe332     1.0  0.65044  0.68326  0.80132  1.0000
  S   S650      1.0  0.67269  0.70352  0.78512  1.0000
  Fe  Fe333     1.0  0.60739  0.67710  0.81769  1.0000
  S   S651      1.0  0.57406  0.68909  0.82503  1.0000
  S   S652      1.0  0.66268  0.65025  0.80613  1.0000
  S   S653      1.0  0.61611  0.64371  0.82430  1.0000
  C   C4815     1.0  0.71394  0.69031  0.96070  1.0000
  S   S654      1.0  0.50261  0.73889  0.91131  1.0000
  H   H3871     1.0  0.91518  0.59985  0.52063  1.0000
  C   C4816     1.0  0.85898  0.69358  0.92343  1.0000
  S   S655      1.0  0.96702  0.71044  0.88551  1.0000
  S   S656      1.0  0.94429  0.66349  0.92061  1.0000
  Fe  Fe334     1.0  0.95492  0.73556  0.90247  1.0000
  S   S657      1.0  0.93436  0.76253  0.88848  1.0000
  S   S658      1.0  0.94490  0.71584  0.93173  1.0000
  S   S659      1.0  0.90196  0.64401  0.85940  1.0000
  C   C4817     1.0  0.73245  0.68773  0.96633  1.0000
  C   C4818     1.0  0.82751  0.59451  0.63275  1.0000
  H   H3872     1.0  0.72328  0.63242  0.93808  1.0000
  Fe  Fe335     1.0  0.68913  0.77282  0.84793  1.0000
  S   S660      1.0  0.69236  0.77290  0.81558  1.0000
  Fe  Fe336     1.0  0.68835  0.74977  0.88974  1.0000
  S   S661      1.0  0.69038  0.71752  0.90501  1.0000
  S   S662      1.0  0.66340  0.76488  0.87299  1.0000
  S   S663      1.0  0.71395  0.75580  0.86375  1.0000
  H   H3873     1.0  0.86859  0.75898  0.91437  1.0000
  C   C4819     1.0  0.56001  0.75616  0.51409  1.0000
  C   C4820     1.0  0.50267  0.73038  0.62274  1.0000
  C   C4821     1.0  0.79475  0.62852  0.86385  1.0000
  H   H3874     1.0  0.96070  0.72541  0.50857  1.0000
  H   H3875     1.0  0.71328  0.63278  0.90685  1.0000
  H   H3876     1.0  0.94351  0.59835  0.68374  1.0000
  H   H3877     1.0  0.64604  0.67810  0.95649  1.0000
  H   H3878     1.0  0.54388  0.67739  0.52132  1.0000
  C   C4822     1.0  0.99605  0.66385  0.87553  1.0000
  C   C4823     1.0  0.80873  0.59510  0.60812  1.0000
  S   S664      1.0  0.88094  0.60002  0.89837  1.0000
  Fe  Fe337     1.0  0.85235  0.59871  0.89001  1.0000
  H   H3879     1.0  0.57238  0.67062  0.53878  1.0000
  H   H3880     1.0  0.97036  0.75653  0.51045  1.0000
  C   C4824     1.0  0.84832  0.65611  0.92878  1.0000
  H   H3881     1.0  0.82433  0.59112  0.79311  1.0000
  C   C4825     1.0  0.91049  0.76714  0.92534  1.0000
  H   H3882     1.0  0.76329  0.59521  0.87666  1.0000
  H   H3883     1.0  0.70692  0.70490  0.95343  1.0000
  H   H3884     1.0  0.60768  0.60232  0.73270  1.0000
  H   H3885     1.0  0.67656  0.59000  0.86158  1.0000
  H   H3886     1.0  0.92137  0.75500  0.93151  1.0000
  C   C4826     1.0  0.97893  0.72393  0.47918  1.0000
  C   C4827     1.0  0.74146  0.66881  0.97542  1.0000
  C   C4828     1.0  0.93273  0.65854  0.90319  1.0000
  C   C4829     1.0  0.92676  0.64003  0.90690  1.0000
  C   C4830     1.0  0.91746  0.63541  0.89356  1.0000
  C   C4831     1.0  0.91380  0.64937  0.87643  1.0000
  C   C4832     1.0  0.91960  0.66801  0.87278  1.0000
  C   C4833     1.0  0.92918  0.67253  0.88602  1.0000
  H   H3887     1.0  0.92962  0.62908  0.92005  1.0000
  C   C4834     1.0  0.59074  0.69963  0.90491  1.0000
  H   H3888     1.0  0.91667  0.67899  0.85968  1.0000
  H   H3889     1.0  0.93380  0.68678  0.88299  1.0000
  C   C4835     1.0  0.70174  0.63437  0.92026  1.0000
  H   H3890     1.0  0.59212  0.74242  0.75106  1.0000
  C   C4836     1.0  0.90474  0.59595  0.49595  1.0000
  P   P163      1.0  0.50744  0.72629  0.56467  1.0000
  C   C4837     1.0  0.53366  0.72201  0.93162  1.0000
  H   H3891     1.0  0.84426  0.64167  0.93072  1.0000
  C   C4838     1.0  0.93556  0.75628  0.96810  1.0000
  C   C4839     1.0  0.71444  0.59410  0.88262  1.0000
  H   H3892     1.0  0.54417  0.72442  0.91743  1.0000
  C   C4840     1.0  0.80924  0.59950  0.62615  1.0000
  H   H3893     1.0  0.91006  0.72267  0.90565  1.0000
  S   S665      1.0  0.98318  0.60108  0.68429  1.0000
  C   C4841     1.0  0.66590  0.69535  0.93385  1.0000
  C   C4842     1.0  0.67330  0.71324  0.92783  1.0000
  C   C4843     1.0  0.66729  0.72728  0.94024  1.0000
  C   C4844     1.0  0.70445  0.60854  0.86912  1.0000
  H   H3894     1.0  0.52116  0.64008  0.74222  1.0000
  H   H3895     1.0  0.67076  0.68431  0.92447  1.0000
  H   H3896     1.0  0.67299  0.74109  0.93567  1.0000
  C   C4845     1.0  0.58767  0.62683  0.74529  1.0000
  C   C4846     1.0  0.56887  0.71471  0.82459  1.0000
  C   C4847     1.0  0.55127  0.72295  0.83702  1.0000
  C   C4848     1.0  0.54721  0.74332  0.83755  1.0000
  C   C4849     1.0  0.56037  0.75562  0.82510  1.0000
  C   C4850     1.0  0.57781  0.74740  0.81237  1.0000
  C   C4851     1.0  0.58229  0.72684  0.81236  1.0000
  H   H3897     1.0  0.54101  0.71349  0.84659  1.0000
  H   H3898     1.0  0.53384  0.74947  0.84752  1.0000
  H   H3899     1.0  0.58801  0.75681  0.80279  1.0000
  H   H3900     1.0  0.59596  0.72046  0.80276  1.0000
  C   C4852     1.0  0.67821  0.72174  0.79510  1.0000
  C   C4853     1.0  0.68879  0.73589  0.78183  1.0000
  C   C4854     1.0  0.69291  0.75135  0.78846  1.0000
  C   C4855     1.0  0.68681  0.75275  0.80854  1.0000
  C   C4856     1.0  0.67684  0.73819  0.82216  1.0000
  C   C4857     1.0  0.67247  0.72266  0.81540  1.0000
  H   H3901     1.0  0.69353  0.73511  0.76621  1.0000
  H   H3902     1.0  0.70096  0.76224  0.77791  1.0000
  H   H3903     1.0  0.67225  0.73906  0.83776  1.0000
  H   H3904     1.0  0.66461  0.71153  0.82580  1.0000
  C   C4858     1.0  0.64083  0.62852  0.88655  1.0000
  C   C4859     1.0  0.64436  0.61056  0.90010  1.0000
  C   C4860     1.0  0.63517  0.60928  0.92025  1.0000
  C   C4861     1.0  0.62290  0.62613  0.92728  1.0000
  C   C4862     1.0  0.61973  0.64439  0.91393  1.0000
  C   C4863     1.0  0.62842  0.64554  0.89343  1.0000
  H   H3905     1.0  0.73991  0.71162  0.86288  1.0000
  H   H3906     1.0  0.52896  0.64696  0.88385  1.0000
  H   H3907     1.0  0.61050  0.65746  0.91942  1.0000
  H   H3908     1.0  0.62563  0.65952  0.88308  1.0000
  C   C4864     1.0  0.62003  0.62678  0.76287  1.0000
  C   C4865     1.0  0.60160  0.64026  0.76655  1.0000
  C   C4866     1.0  0.58569  0.64059  0.75740  1.0000
  H   H3909     1.0  0.59980  0.65069  0.77614  1.0000
  H   H3910     1.0  0.57174  0.65145  0.75979  1.0000
  C   C4867     1.0  0.62516  0.76453  0.76256  1.0000
  C   C4868     1.0  0.67063  0.78017  0.53412  1.0000
  Fe  Fe338     1.0  0.55540  0.74467  0.54390  1.0000
  C   C4869     1.0  0.56515  0.67643  0.62197  1.0000
  C   C4870     1.0  0.57870  0.66526  0.60848  1.0000
  C   C4871     1.0  0.58530  0.64454  0.61464  1.0000
  C   C4872     1.0  0.57885  0.63506  0.63443  1.0000
  C   C4873     1.0  0.56566  0.64639  0.64793  1.0000
  C   C4874     1.0  0.55869  0.66694  0.64168  1.0000
  H   H3911     1.0  0.58387  0.67252  0.59329  1.0000
  H   H3912     1.0  0.59560  0.63586  0.60416  1.0000
  H   H3913     1.0  0.56067  0.63930  0.66317  1.0000
  H   H3914     1.0  0.54824  0.67549  0.65220  1.0000
  C   C4875     1.0  0.63609  0.73489  0.51049  1.0000
  S   S666      1.0  0.50221  0.77863  0.86406  1.0000
  H   H3915     1.0  0.93263  0.65760  0.78324  1.0000
  C   C4876     1.0  0.56960  0.62548  0.83363  1.0000
  C   C4877     1.0  0.76502  0.76144  0.83480  1.0000
  C   C4878     1.0  0.61924  0.73754  0.50205  1.0000
  H   H3916     1.0  0.66833  0.73427  0.50460  1.0000
  C   C4879     1.0  0.69250  0.63549  0.95554  1.0000
  H   H3917     1.0  0.60450  0.73636  0.51156  1.0000
  H   H3918     1.0  0.60996  0.67455  0.74272  1.0000
  S   S667      1.0  0.54481  0.74869  0.57694  1.0000
  C   C4880     1.0  0.70736  0.63404  0.93797  1.0000
  C   C4881     1.0  0.54273  0.66393  0.70203  1.0000
  C   C4882     1.0  0.59255  0.75285  0.90633  1.0000
  C   C4883     1.0  0.53343  0.69027  0.57615  1.0000
  H   H3919     1.0  0.57317  0.72450  0.50985  1.0000
  C   C4884     1.0  0.51340  0.73547  0.50098  1.0000
  C   C4885     1.0  0.52285  0.61308  0.49442  1.0000
  H   H3920     1.0  0.99542  0.70116  0.71789  1.0000
  C   C4886     1.0  0.65208  0.69171  0.95203  1.0000
  C   C4887     1.0  0.55471  0.64332  0.94106  1.0000
  C   C4888     1.0  0.54367  0.65883  0.92904  1.0000
  H   H3921     1.0  0.57087  0.67688  0.79008  1.0000
  Fe  Fe339     1.0  0.89035  0.61475  0.86667  1.0000
  H   H3922     1.0  0.98996  0.66196  0.48173  1.0000
  C   C4889     1.0  0.52744  0.63214  0.49090  1.0000
  H   H3923     1.0  0.52985  0.70477  0.89432  1.0000
  S   S668      1.0  0.57992  0.76395  0.54143  1.0000
  C   C4890     1.0  0.65596  0.59115  0.97384  1.0000
  H   H3924     1.0  0.67667  0.63717  0.90621  1.0000
  H   H3925     1.0  0.74152  0.72786  0.88923  1.0000
  C   C4891     1.0  0.84575  0.67858  0.86913  1.0000
  C   C4892     1.0  0.83485  0.66321  0.87803  1.0000
  C   C4893     1.0  0.81384  0.66775  0.88515  1.0000
  C   C4894     1.0  0.80372  0.68770  0.88357  1.0000
  C   C4895     1.0  0.81458  0.70330  0.87500  1.0000
  C   C4896     1.0  0.83569  0.69857  0.86764  1.0000
  P   P164      1.0  0.80109  0.72898  0.87382  1.0000
  C   C4897     1.0  0.78548  0.73149  0.89824  1.0000
  C   C4898     1.0  0.81837  0.74633  0.86638  1.0000
  C   C4899     1.0  0.81973  0.75778  0.87953  1.0000
  C   C4900     1.0  0.50091  0.63176  0.77014  1.0000
  H   H3926     1.0  0.58007  0.61515  0.84216  1.0000
  C   C4901     1.0  0.98664  0.64736  0.88383  1.0000
  C   C4902     1.0  0.82982  0.74930  0.84678  1.0000
  C   C4903     1.0  0.76828  0.74687  0.90048  1.0000
  C   C4904     1.0  0.75664  0.74907  0.91938  1.0000
  C   C4905     1.0  0.76203  0.73593  0.93628  1.0000
  C   C4906     1.0  0.77915  0.72058  0.93428  1.0000
  C   C4907     1.0  0.79095  0.71846  0.91537  1.0000
  C   C4908     1.0  0.78584  0.73580  0.85506  1.0000
  C   C4909     1.0  0.78321  0.72137  0.84574  1.0000
  C   C4910     1.0  0.77152  0.72701  0.83114  1.0000
  C   C4911     1.0  0.51076  0.71642  0.51178  1.0000
  H   H3927     1.0  0.53875  0.75106  0.95222  1.0000
  C   C4912     1.0  0.77718  0.75597  0.84897  1.0000
  H   H3928     1.0  0.86209  0.67488  0.86361  1.0000
  H   H3929     1.0  0.84274  0.64774  0.87961  1.0000
  H   H3930     1.0  0.80550  0.65573  0.89204  1.0000
  H   H3931     1.0  0.78743  0.69097  0.88917  1.0000
  H   H3932     1.0  0.84454  0.71012  0.86088  1.0000
  H   H3933     1.0  0.50410  0.76611  0.94662  1.0000
  H   H3934     1.0  0.76793  0.60406  0.83432  1.0000
  H   H3935     1.0  0.56566  0.77096  0.92035  1.0000
  C   C4913     1.0  0.86375  0.58659  0.96850  1.0000
  H   H3936     1.0  0.82861  0.74098  0.83624  1.0000
  H   H3937     1.0  0.76373  0.75734  0.88777  1.0000
  H   H3938     1.0  0.74347  0.76114  0.92084  1.0000
  H   H3939     1.0  0.78348  0.71051  0.94740  1.0000
  H   H3940     1.0  0.80445  0.70679  0.91422  1.0000
  H   H3941     1.0  0.79014  0.70580  0.84953  1.0000
  H   H3942     1.0  0.76969  0.71588  0.82393  1.0000
  C   C4914     1.0  0.96853  0.71313  0.83141  1.0000
  C   C4915     1.0  0.89457  0.59779  0.94879  1.0000
  H   H3943     1.0  0.51719  0.68295  0.92925  1.0000
  H   H3944     1.0  0.74572  0.70781  0.92235  1.0000
  H   H3945     1.0  0.55714  0.70674  0.94817  1.0000
  S   S669      1.0  0.82242  0.61334  0.90687  1.0000
  C   C4916     1.0  0.55802  0.64273  0.84036  1.0000
  C   C4917     1.0  0.54503  0.65647  0.82903  1.0000
  C   C4918     1.0  0.54369  0.65314  0.81071  1.0000
  C   C4919     1.0  0.55516  0.63558  0.80422  1.0000
  H   H3946     1.0  0.55331  0.66267  0.58559  1.0000
  C   C4920     1.0  0.97019  0.60386  0.53193  1.0000
  H   H3947     1.0  0.55973  0.64593  0.85394  1.0000
  H   H3948     1.0  0.87941  0.68548  0.89640  1.0000
  C   C4921     1.0  0.54491  0.72467  0.53456  1.0000
  H   H3949     1.0  0.77934  0.62640  0.91620  1.0000
  C   C4922     1.0  0.66630  0.63936  0.93707  1.0000
  H   H3950     1.0  0.77960  0.76755  0.85530  1.0000
  H   H3951     1.0  0.57119  0.76277  0.50222  1.0000
  H   H3952     1.0  0.70314  0.62020  0.83845  1.0000
  C   C4923     1.0  0.58857  0.60404  0.88445  1.0000
  H   H3953     1.0  0.52222  0.69971  0.75799  1.0000
  S   S670      1.0  0.54318  0.77323  0.88263  1.0000
  H   H3954     1.0  0.97106  0.62679  0.87847  1.0000
  P   P165      1.0  0.74150  0.66918  0.86209  1.0000
  H   H3955     1.0  0.73758  0.62654  0.87207  1.0000
  Fe  Fe340     1.0  0.56995  0.60375  0.71657  1.0000
  C   C4924     1.0  0.54955  0.71161  0.74538  1.0000
  H   H3956     1.0  0.63630  0.60262  0.74766  1.0000
  S   S671      1.0  0.99442  0.78287  0.48202  1.0000
  C   C4925     1.0  0.98160  0.59577  0.49888  1.0000
  C   C4926     1.0  0.65529  0.73624  0.49809  1.0000
  C   C4927     1.0  0.54278  0.76933  0.52595  1.0000
  C   C4928     1.0  0.95164  0.66875  0.81814  1.0000
  H   H3957     1.0  0.57738  0.60873  0.81007  1.0000
  C   C4929     1.0  0.53169  0.67468  0.89033  1.0000
  C   C4930     1.0  0.88250  0.72275  0.89635  1.0000
  Fe  Fe341     1.0  0.60175  0.64762  0.97091  1.0000
  H   H3958     1.0  0.74739  0.65424  0.90271  1.0000
  C   C4931     1.0  0.51543  0.64235  0.75741  1.0000
  C   C4932     1.0  0.96219  0.66509  0.77819  1.0000
  H   H3959     1.0  0.57841  0.72112  0.73647  1.0000
  H   H3960     1.0  0.53551  0.64157  0.57534  1.0000
  C   C4933     1.0  0.56953  0.60496  0.89741  1.0000
  H   H3961     1.0  0.50483  0.67535  0.96548  1.0000
  H   H3962     1.0  0.51420  0.76986  0.54961  1.0000
  S   S672      1.0  0.56695  0.62725  0.73476  1.0000
  H   H3963     1.0  0.86943  0.73910  0.95103  1.0000
  H   H3964     1.0  0.69158  0.73043  0.54354  1.0000
  C   C4934     1.0  0.54030  0.66955  0.57882  1.0000
  C   C4935     1.0  0.76191  0.67657  0.82204  1.0000
  H   H3965     1.0  0.53869  0.64947  0.70421  1.0000
  C   C4936     1.0  0.56479  0.68630  0.77755  1.0000
  C   C4937     1.0  0.74394  0.68160  0.88061  1.0000
  H   H3966     1.0  0.61155  0.62061  0.86666  1.0000
  C   C4938     1.0  0.76390  0.68702  0.80233  1.0000
  C   C4939     1.0  0.75348  0.62732  0.86946  1.0000
  H   H3967     1.0  0.96242  0.70376  0.84517  1.0000
  C   C4940     1.0  0.50644  0.72277  0.60539  1.0000
  P   P166      1.0  0.52889  0.67157  0.79456  1.0000
  H   H3968     1.0  0.82798  0.59815  0.64662  1.0000
  C   C4941     1.0  0.74592  0.68361  0.83699  1.0000
  C   C4942     1.0  0.71538  0.66641  0.86627  1.0000
  C   C4943     1.0  0.64646  0.70553  0.96463  1.0000
  C   C4944     1.0  0.51263  0.72839  0.93269  1.0000
  C   C4945     1.0  0.85280  0.75740  0.91975  1.0000
  Fe  Fe342     1.0  0.57852  0.59590  0.67478  1.0000
  H   H3969     1.0  0.99043  0.67301  0.77736  1.0000
  C   C4946     1.0  0.74986  0.70443  0.79732  1.0000
  C   C4947     1.0  0.97073  0.74631  0.81175  1.0000
  C   C4948     1.0  0.96183  0.62870  0.50344  1.0000
  C   C4949     1.0  0.57440  0.69161  0.87622  1.0000
  H   H3970     1.0  0.79676  0.60571  0.95217  1.0000
  H   H3971     1.0  0.50727  0.72072  0.63595  1.0000
  C   C4950     1.0  0.50163  0.73531  0.58777  1.0000
  C   C4951     1.0  0.59668  0.62137  0.87653  1.0000
  H   H3972     1.0  0.54577  0.70879  0.53713  1.0000
  C   C4952     1.0  0.97172  0.61498  0.49102  1.0000
  C   C4953     1.0  0.58764  0.70509  0.87066  1.0000
  H   H3973     1.0  0.62193  0.73535  0.89576  1.0000
  C   C4954     1.0  0.56128  0.68945  0.49289  1.0000
  H   H3974     1.0  0.80507  0.60195  0.82449  1.0000
  H   H3975     1.0  0.69757  0.59237  0.81446  1.0000
  C   C4955     1.0  0.62154  0.74144  0.48131  1.0000
  H   H3976     1.0  0.51715  0.71015  0.52472  1.0000
  C   C4956     1.0  0.82689  0.73701  0.93108  1.0000
  C   C4957     1.0  0.59595  0.70896  0.88496  1.0000
  H   H3977     1.0  0.70421  0.68078  0.89190  1.0000
  C   C4958     1.0  0.73381  0.71139  0.81203  1.0000
  H   H3978     1.0  0.63480  0.76168  0.57267  1.0000
  H   H3979     1.0  0.63018  0.72378  0.92893  1.0000
  H   H3980     1.0  0.71873  0.70635  0.84275  1.0000
  C   C4959     1.0  0.74568  0.70041  0.91065  1.0000
  H   H3981     1.0  0.81069  0.62888  0.86220  1.0000
  C   C4960     1.0  0.98920  0.71709  0.79794  1.0000
  C   C4961     1.0  0.58451  0.75436  0.94149  1.0000
  C   C4962     1.0  0.72918  0.62109  0.80123  1.0000
  C   C4963     1.0  0.71892  0.62343  0.78583  1.0000
  C   C4964     1.0  0.71159  0.64257  0.77580  1.0000
  C   C4965     1.0  0.71471  0.65946  0.78083  1.0000
  C   C4966     1.0  0.72554  0.65724  0.79560  1.0000
  C   C4967     1.0  0.73304  0.63811  0.80554  1.0000
  S   S673      1.0  0.86092  0.61491  0.85861  1.0000
  C   C4968     1.0  0.61113  0.74019  0.90852  1.0000
  C   C4969     1.0  0.51606  0.69930  0.56816  1.0000
  H   H3982     1.0  0.94632  0.75649  0.95402  1.0000
  C   C4970     1.0  0.80259  0.60015  0.91240  1.0000
  H   H3983     1.0  0.53678  0.66995  0.83435  1.0000
  C   C4971     1.0  0.60727  0.78025  0.83491  1.0000
  C   C4972     1.0  0.90857  0.63562  0.47945  1.0000
  H   H3984     1.0  0.71652  0.61066  0.78140  1.0000
  H   H3985     1.0  0.70317  0.64433  0.76433  1.0000
  H   H3986     1.0  0.70867  0.67428  0.77327  1.0000
  H   H3987     1.0  0.72794  0.67040  0.79939  1.0000
  H   H3988     1.0  0.74182  0.63649  0.81665  1.0000
  H   H3989     1.0  0.52274  0.71050  0.71204  1.0000
  C   C4973     1.0  0.97114  0.67110  0.80697  1.0000
  C   C4974     1.0  0.60595  0.61305  0.74194  1.0000
  H   H3990     1.0  0.65996  0.73034  0.56965  1.0000
  H   H3991     1.0  0.75303  0.73784  0.95091  1.0000
  C   C4975     1.0  0.60643  0.74476  0.75268  1.0000
  C   C4976     1.0  0.62436  0.73093  0.74804  1.0000
  C   C4977     1.0  0.64269  0.73385  0.75061  1.0000
  C   C4978     1.0  0.64310  0.75053  0.75786  1.0000
  H   H3992     1.0  0.96982  0.59957  0.54775  1.0000
  H   H3993     1.0  0.95359  0.74057  0.84181  1.0000
  C   C4979     1.0  0.91340  0.62667  0.49799  1.0000
  H   H3994     1.0  0.55439  0.63256  0.79018  1.0000
  C   C4980     1.0  0.81199  0.75412  0.93418  1.0000
  C   C4981     1.0  0.80792  0.59250  0.79707  1.0000
  C   C4982     1.0  0.52932  0.65036  0.97040  1.0000
  H   H3995     1.0  0.54838  0.69289  0.48582  1.0000
  C   C4983     1.0  0.62324  0.74697  0.82901  1.0000
  C   C4984     1.0  0.62761  0.75449  0.80853  1.0000
  H   H3996     1.0  0.79613  0.75303  0.93972  1.0000
  C   C4985     1.0  0.98373  0.73787  0.79599  1.0000
  H   H3997     1.0  0.93168  0.59519  0.56149  1.0000
  S   S674      1.0  0.61212  0.62321  0.95291  1.0000
  H   H3998     1.0  0.81925  0.59572  0.49994  1.0000
  C   C4986     1.0  0.90287  0.72450  0.89326  1.0000
  C   C4987     1.0  0.62213  0.61318  0.75053  1.0000
  C   C4988     1.0  0.74651  0.67028  0.89943  1.0000
  H   H3999     1.0  0.56915  0.63471  0.93467  1.0000
  H   H4000     1.0  0.64969  0.73398  0.96854  1.0000
  H   H4001     1.0  0.74895  0.67088  0.92894  1.0000
  H   H4002     1.0  0.60559  0.67956  0.52035  1.0000
  H   H4003     1.0  0.62404  0.71780  0.74277  1.0000
  H   H4004     1.0  0.65654  0.72287  0.74757  1.0000
  H   H4005     1.0  0.65733  0.75212  0.76042  1.0000
  C   C4989     1.0  0.50269  0.64614  0.79728  1.0000
  C   C4990     1.0  0.89662  0.69345  0.94213  1.0000
  C   C4991     1.0  0.97931  0.64841  0.85192  1.0000
  H   H4006     1.0  0.60936  0.75395  0.85799  1.0000
  H   H4007     1.0  0.62757  0.73110  0.83460  1.0000
  H   H4008     1.0  0.63531  0.74415  0.79866  1.0000
  H   H4009     1.0  0.58853  0.75750  0.89189  1.0000
  H   H4010     1.0  0.86969  0.65313  0.90110  1.0000
  C   C4992     1.0  0.52347  0.65502  0.76450  1.0000
  C   C4993     1.0  0.61594  0.73379  0.92726  1.0000
  C   C4994     1.0  0.51092  0.69004  0.80750  1.0000
  C   C4995     1.0  0.57662  0.69901  0.76362  1.0000
  C   C4996     1.0  0.58584  0.63964  0.88158  1.0000
  H   H4011     1.0  0.75769  0.77695  0.83090  1.0000
  H   H4012     1.0  0.59259  0.65276  0.87530  1.0000
  C   C4997     1.0  0.56678  0.64068  0.89477  1.0000
  C   C4998     1.0  0.52353  0.69525  0.88853  1.0000
  C   C4999     1.0  0.70027  0.67473  0.88106  1.0000
  H   H4013     1.0  0.60639  0.71919  0.88047  1.0000
  P   P167      1.0  0.55298  0.66391  0.90244  1.0000
  C   C5000     1.0  0.77601  0.59938  0.82053  1.0000
  H   H4014     1.0  0.59702  0.70274  0.91610  1.0000
  S   S675      1.0  0.59485  0.68129  0.96303  1.0000
  C   C5001     1.0  0.70948  0.65920  0.85225  1.0000
  H   H4015     1.0  0.54161  0.69925  0.58050  1.0000
  C   C5002     1.0  0.52304  0.66281  0.88274  1.0000
  H   H4016     1.0  0.79461  0.59922  0.60287  1.0000
  C   C5003     1.0  0.52725  0.70871  0.96725  1.0000
  C   C5004     1.0  0.71294  0.65510  0.97394  1.0000
  C   C5005     1.0  0.81749  0.77279  0.93017  1.0000
  C   C5006     1.0  0.78853  0.61014  0.86880  1.0000
  C   C5007     1.0  0.51347  0.66652  0.56431  1.0000
  H   H4017     1.0  0.95494  0.64374  0.49710  1.0000
  C   C5008     1.0  0.59621  0.69030  0.49226  1.0000
  C   C5009     1.0  0.60270  0.74073  0.94374  1.0000
  C   C5010     1.0  0.90528  0.61811  0.55702  1.0000
  C   C5011     1.0  0.88406  0.62246  0.55977  1.0000
  S   S676      1.0  0.98918  0.68697  0.92271  1.0000
  C   C5012     1.0  0.60680  0.76146  0.75992  1.0000
  C   C5013     1.0  0.73172  0.70099  0.83172  1.0000
  C   C5014     1.0  0.76792  0.60956  0.87193  1.0000
  C   C5015     1.0  0.97700  0.74977  0.49749  1.0000
  H   H4018     1.0  0.69810  0.76185  0.52039  1.0000
  C   C5016     1.0  0.68099  0.74436  0.54530  1.0000
  H   H4019     1.0  0.54170  0.63385  0.49334  1.0000
  C   C5017     1.0  0.64894  0.76201  0.56171  1.0000
  C   C5018     1.0  0.90548  0.73133  0.85755  1.0000
  H   H4020     1.0  0.91447  0.73455  0.84260  1.0000
  H   H4021     1.0  0.76879  0.58587  0.78018  1.0000
  H   H4022     1.0  0.92314  0.66122  0.81863  1.0000
  H   H4023     1.0  0.94710  0.67053  0.83350  1.0000
  C   C5019     1.0  0.53386  0.69822  0.70658  1.0000
  C   C5020     1.0  0.97475  0.58869  0.66984  1.0000
  C   C5021     1.0  0.99054  0.75899  0.48166  1.0000
  C   C5022     1.0  0.86251  0.66265  0.91196  1.0000
  H   H4024     1.0  0.91402  0.62971  0.54962  1.0000
  H   H4025     1.0  0.87635  0.63746  0.55442  1.0000
  H   H4026     1.0  0.85639  0.61107  0.57126  1.0000
  C   C5023     1.0  0.52663  0.76013  0.54191  1.0000
  H   H4027     1.0  0.65803  0.67045  0.86743  1.0000
  C   C5024     1.0  0.59332  0.68196  0.51259  1.0000
  C   C5025     1.0  0.87358  0.72583  0.87990  1.0000
  C   C5026     1.0  0.54522  0.68613  0.77548  1.0000
  H   H4028     1.0  0.53552  0.66211  0.75453  1.0000
  C   C5027     1.0  0.65417  0.72323  0.95883  1.0000
  C   C5028     1.0  0.84748  0.73848  0.92406  1.0000
  C   C5029     1.0  0.91148  0.60684  0.50623  1.0000
  C   C5030     1.0  0.50691  0.70376  0.87946  1.0000
  C   C5031     1.0  0.87606  0.60103  0.96239  1.0000
  H   H4029     1.0  0.96692  0.76242  0.81042  1.0000
  H   H4030     1.0  0.92987  0.73032  0.87164  1.0000
  H   H4031     1.0  0.57368  0.67897  0.92596  1.0000
  H   H4032     1.0  0.54409  0.62361  0.91292  1.0000
  C   C5032     1.0  0.87279  0.60748  0.56942  1.0000
  C   C5033     1.0  0.51686  0.65732  0.78445  1.0000
  H   H4033     1.0  0.77617  0.68144  0.79085  1.0000
  C   C5034     1.0  0.85058  0.59422  0.48452  1.0000
  H   H4034     1.0  0.98560  0.64072  0.89948  1.0000
  S   S677      1.0  0.68831  0.77642  0.90209  1.0000
  H   H4035     1.0  0.78540  0.66045  0.85830  1.0000
  Fe  Fe343     1.0  0.97631  0.71414  0.93651  1.0000
  H   H4036     1.0  0.85778  0.72485  0.88212  1.0000
  C   C5035     1.0  0.75968  0.64584  0.86415  1.0000
  S   S678      1.0  0.55512  0.78117  0.82557  1.0000
  C   C5036     1.0  0.50645  0.68723  0.56178  1.0000
  H   H4037     1.0  0.75122  0.71242  0.78202  1.0000
  C   C5037     1.0  0.50648  0.67140  0.87354  1.0000
  C   C5038     1.0  0.88269  0.58802  0.57648  1.0000
  C   C5039     1.0  0.93789  0.66372  0.80965  1.0000
  C   C5040     1.0  0.86782  0.68126  0.90926  1.0000
  H   H4038     1.0  0.79551  0.60694  0.63492  1.0000
  H   H4039     1.0  0.87831  0.73184  0.84789  1.0000
  C   C5041     1.0  0.91312  0.77362  0.90473  1.0000
  C   C5042     1.0  0.52753  0.73766  0.54642  1.0000
  C   C5043     1.0  0.57939  0.76017  0.92267  1.0000
  C   C5044     1.0  0.82647  0.58568  0.59669  1.0000
  H   H4040     1.0  0.77262  0.66281  0.82529  1.0000
  H   H4041     1.0  0.82222  0.72284  0.93415  1.0000
  C   C5045     1.0  0.98183  0.70457  0.81574  1.0000
  S   S679      1.0  0.54944  0.60711  0.69530  1.0000
  C   C5046     1.0  0.54451  0.77816  0.95715  1.0000
  H   H4042     1.0  0.89920  0.68301  0.93230  1.0000
  C   C5047     1.0  0.98037  0.59018  0.51953  1.0000
  C   C5048     1.0  0.76208  0.74696  0.82595  1.0000
  H   H4043     1.0  0.54357  0.72162  0.73307  1.0000
  C   C5049     1.0  0.65248  0.77986  0.54864  1.0000
  H   H4044     1.0  0.60713  0.73595  0.95798  1.0000
  H   H4045     1.0  0.68439  0.65545  0.84154  1.0000
  C   C5050     1.0  0.97838  0.63957  0.87200  1.0000
  C   C5051     1.0  0.71151  0.60928  0.84863  1.0000
  C   C5052     1.0  0.78246  0.61043  0.91688  1.0000
  C   C5053     1.0  0.88511  0.72986  0.86055  1.0000
  H   H4046     1.0  0.65034  0.64196  0.93670  1.0000
  H   H4047     1.0  0.51322  0.67751  0.71684  1.0000
  C   C5054     1.0  0.53755  0.69912  0.75946  1.0000
  H   H4048     1.0  0.59156  0.69924  0.76556  1.0000
  H   H4049     1.0  0.66804  0.68318  0.89250  1.0000
  C   C5055     1.0  0.53026  0.65765  0.57303  1.0000
  C   C5056     1.0  0.67966  0.67617  0.88146  1.0000
  H   H4050     1.0  0.60608  0.75842  0.64821  1.0000
  C   C5057     1.0  0.52564  0.67041  0.93799  1.0000
  H   H4051     1.0  0.65399  0.59740  0.89497  1.0000
  Fe  Fe344     1.0  0.51121  0.76787  0.89369  1.0000
  H   H4052     1.0  0.95372  0.63390  0.53346  1.0000
  C   C5058     1.0  0.56811  0.62188  0.81558  1.0000
  C   C5059     1.0  0.67398  0.66913  0.86729  1.0000
  C   C5060     1.0  0.57460  0.67696  0.52298  1.0000
  C   C5061     1.0  0.55858  0.68074  0.51314  1.0000
  H   H4053     1.0  0.63775  0.59517  0.93050  1.0000
  C   C5062     1.0  0.90771  0.68869  0.95714  1.0000
  H   H4054     1.0  0.75083  0.60803  0.92530  1.0000
  C   C5063     1.0  0.57743  0.68615  0.91048  1.0000
  H   H4055     1.0  0.81061  0.75637  0.89448  1.0000
  H   H4056     1.0  0.72079  0.65329  0.84047  1.0000
  C   C5064     1.0  0.55869  0.62318  0.90259  1.0000
  C   C5065     1.0  0.80118  0.59207  0.96243  1.0000
  C   C5066     1.0  0.84424  0.77426  0.85388  1.0000
  C   C5067     1.0  0.51830  0.70387  0.81384  1.0000
  H   H4057     1.0  0.51073  0.72972  0.82749  1.0000
  C   C5068     1.0  0.79766  0.58789  0.78467  1.0000
  C   C5069     1.0  0.89126  0.72022  0.96730  1.0000
  H   H4058     1.0  0.65405  0.60383  0.96176  1.0000
  C   C5070     1.0  0.61301  0.75983  0.84218  1.0000
  C   C5071     1.0  0.52845  0.67970  0.70922  1.0000
  C   C5072     1.0  0.62159  0.77498  0.80104  1.0000
  C   C5073     1.0  0.74739  0.67967  0.91437  1.0000
  C   C5074     1.0  0.74242  0.70241  0.87696  1.0000
  H   H4059     1.0  0.72280  0.72474  0.80814  1.0000
  C   C5075     1.0  0.49907  0.72499  0.95096  1.0000
  H   H4060     1.0  0.56816  0.68853  0.86505  1.0000
  H   H4061     1.0  0.59143  0.71246  0.85522  1.0000
  C   C5076     1.0  0.94323  0.66171  0.78973  1.0000
  C   C5077     1.0  0.91424  0.72881  0.87389  1.0000
  C   C5078     1.0  0.54098  0.71190  0.94894  1.0000
  H   H4062     1.0  0.53454  0.70300  0.81174  1.0000
  C   C5079     1.0  0.96322  0.73395  0.82947  1.0000
  C   C5080     1.0  0.83789  0.77440  0.92299  1.0000
  S   S680      1.0  0.98290  0.71315  0.96663  1.0000
  P   P168      1.0  0.62546  0.78448  0.77449  1.0000
  S   S681      1.0  0.59898  0.59460  0.69530  1.0000
  C   C5081     1.0  0.64307  0.68473  0.69881  1.0000
  C   C5082     1.0  0.63578  0.68005  0.71935  1.0000
  C   C5083     1.0  0.61535  0.67872  0.72686  1.0000
  C   C5084     1.0  0.60211  0.68195  0.71394  1.0000
  C   C5085     1.0  0.60929  0.68682  0.69328  1.0000
  C   C5086     1.0  0.62992  0.68798  0.68581  1.0000
  P   P169      1.0  0.59314  0.68931  0.67612  1.0000
  C   C5087     1.0  0.60561  0.67040  0.66133  1.0000
  C   C5088     1.0  0.56801  0.68516  0.68941  1.0000
  C   C5089     1.0  0.56244  0.66658  0.69222  1.0000
  C   C5090     1.0  0.74338  0.71173  0.89193  1.0000
  C   C5091     1.0  0.68464  0.76219  0.53227  1.0000
  H   H4063     1.0  0.51336  0.70719  0.60599  1.0000
  C   C5092     1.0  0.55358  0.70094  0.69678  1.0000
  C   C5093     1.0  0.60888  0.67504  0.64046  1.0000
  C   C5094     1.0  0.61902  0.66027  0.62930  1.0000
  C   C5095     1.0  0.62569  0.64074  0.63885  1.0000
  C   C5096     1.0  0.62272  0.63606  0.65957  1.0000
  C   C5097     1.0  0.61290  0.65085  0.67079  1.0000
  C   C5098     1.0  0.58961  0.71403  0.66063  1.0000
  C   C5099     1.0  0.60067  0.72839  0.66055  1.0000
  C   C5100     1.0  0.59746  0.74738  0.64837  1.0000
  C   C5101     1.0  0.58314  0.75219  0.63634  1.0000
  C   C5102     1.0  0.57187  0.73810  0.63661  1.0000
  C   C5103     1.0  0.57501  0.71916  0.64876  1.0000
  H   H4064     1.0  0.65902  0.68538  0.69296  1.0000
  H   H4065     1.0  0.64603  0.67695  0.72948  1.0000
  H   H4066     1.0  0.58654  0.67999  0.72016  1.0000
  H   H4067     1.0  0.63591  0.69097  0.66989  1.0000
  H   H4068     1.0  0.57311  0.65401  0.68693  1.0000
  C   C5104     1.0  0.78038  0.64630  0.86173  1.0000
  H   H4069     1.0  0.55754  0.71540  0.69477  1.0000
  H   H4070     1.0  0.60348  0.68989  0.63265  1.0000
  H   H4071     1.0  0.62110  0.66381  0.61324  1.0000
  H   H4072     1.0  0.63272  0.62910  0.63025  1.0000
  H   H4073     1.0  0.62773  0.62087  0.66697  1.0000
  H   H4074     1.0  0.61064  0.64689  0.68688  1.0000
  H   H4075     1.0  0.61167  0.72513  0.66984  1.0000
  C   C5105     1.0  0.83994  0.66792  0.94328  1.0000
  P   P170      1.0  0.86750  0.71669  0.92106  1.0000
  H   H4076     1.0  0.56082  0.74173  0.62721  1.0000
  H   H4077     1.0  0.56617  0.70837  0.64875  1.0000
  Fe  Fe345     1.0  0.95876  0.69065  0.91513  1.0000
  H   H4078     1.0  0.91332  0.62094  0.89647  1.0000
  C   C5106     1.0  0.88254  0.71155  0.93975  1.0000
  C   C5107     1.0  0.68117  0.63689  0.91986  1.0000
  C   C5108     1.0  0.56931  0.68195  0.89607  1.0000
  C   C5109     1.0  0.50490  0.74328  0.48401  1.0000
  C   C5110     1.0  0.66319  0.74429  0.56006  1.0000
  H   H4079     1.0  0.97331  0.64175  0.84297  1.0000
  H   H4080     1.0  0.89218  0.77175  0.95402  1.0000
  S   S682      1.0  0.96981  0.70301  0.47772  1.0000
  C   C5111     1.0  0.56912  0.71147  0.74740  1.0000
  H   H4081     1.0  0.85154  0.76541  0.82545  1.0000
  S   S683      1.0  0.98521  0.73603  0.90848  1.0000
  C   C5112     1.0  0.84553  0.68639  0.94081  1.0000
  C   C5113     1.0  0.68889  0.66061  0.85271  1.0000
  C   C5114     1.0  0.67191  0.63846  0.95489  1.0000
  H   H4082     1.0  0.91877  0.67480  0.95864  1.0000
  P   P171      1.0  0.98874  0.67777  0.81801  1.0000
  H   H4083     1.0  0.59261  0.77162  0.76374  1.0000
  H   H4084     1.0  0.91847  0.63517  0.50598  1.0000
  C   C5115     1.0  0.97146  0.73219  0.49637  1.0000
  S   S684      1.0  0.52620  0.75059  0.50842  1.0000
  C   C5116     1.0  0.76636  0.60008  0.92205  1.0000
  P   P172      1.0  0.73825  0.59670  0.81511  1.0000
  C   C5117     1.0  0.50423  0.61090  0.49167  1.0000
  H   H4085     1.0  0.50582  0.65733  0.55957  1.0000
  C   C5118     1.0  0.82960  0.60142  0.48660  1.0000
  H   H4086     1.0  0.50063  0.71964  0.87840  1.0000
  C   C5119     1.0  0.96112  0.62317  0.52388  1.0000
  H   H4087     1.0  0.71702  0.59788  0.96077  1.0000
  H   H4088     1.0  0.65155  0.58786  0.84325  1.0000
  C   C5120     1.0  0.76564  0.59424  0.80844  1.0000
  C   C5121     1.0  0.79704  0.59852  0.81485  1.0000
  H   H4089     1.0  0.78891  0.69421  0.48783  1.0000
  C   C5122     1.0  0.88000  0.72497  0.95243  1.0000
  C   C5123     1.0  0.51852  0.66613  0.95861  1.0000
  H   H4090     1.0  0.53360  0.59999  0.49955  1.0000
  C   C5124     1.0  0.53272  0.76663  0.95301  1.0000
  H   H4091     1.0  0.75248  0.75121  0.81510  1.0000
  H   H4092     1.0  0.61081  0.69413  0.48476  1.0000
  Fe  Fe346     1.0  0.71200  0.78390  0.87452  1.0000
  C   C5125     1.0  0.97598  0.67009  0.78667  1.0000
  Fe  Fe347     1.0  0.99625  0.70897  0.89434  1.0000
  C   C5126     1.0  0.58031  0.69385  0.48210  1.0000
  C   C5127     1.0  0.77655  0.58910  0.79015  1.0000
  C   C5128     1.0  0.89400  0.77677  0.93808  1.0000
  H   H4093     1.0  0.82951  0.66249  0.95667  1.0000
  H   H4094     1.0  0.96838  0.77860  0.93446  1.0000
  H   H4095     1.0  0.96629  0.66372  0.76268  1.0000
  H   H4096     1.0  0.70901  0.59349  0.89850  1.0000
  C   C5129     1.0  0.51351  0.64902  0.48443  1.0000
  C   C5130     1.0  0.95373  0.59004  0.67289  1.0000
  H   H4097     1.0  0.59716  0.58990  0.88064  1.0000
  C   C5131     1.0  0.98784  0.66563  0.84373  1.0000
  H   H4098     1.0  0.90402  0.60905  0.94382  1.0000
  H   H4099     1.0  0.99010  0.74744  0.78250  1.0000
  C   C5132     1.0  0.84276  0.76316  0.84059  1.0000
  H   H4100     1.0  0.83980  0.69482  0.95268  1.0000
  H   H4101     1.0  0.73980  0.70039  0.96358  1.0000
  H   H4102     1.0  0.51674  0.66391  0.48194  1.0000
  H   H4103     1.0  0.69100  0.61898  0.87455  1.0000
  H   H4104     1.0  0.93619  0.77072  0.48036  1.0000
  H   H4105     1.0  0.58077  0.76684  0.62678  1.0000
  C   C5133     1.0  0.83264  0.77166  0.87327  1.0000
  C   C5134     1.0  0.54733  0.63887  0.96159  1.0000
  C   C5135     1.0  0.99661  0.67301  0.85559  1.0000
  S   S685      1.0  0.90549  0.58576  0.85631  1.0000
  C   C5136     1.0  0.90502  0.70204  0.96974  1.0000
  H   H4106     1.0  0.87124  0.61480  0.96807  1.0000
  H   H4107     1.0  0.83216  0.58723  0.94621  1.0000
  C   C5137     1.0  0.50637  0.71556  0.96823  1.0000
  H   H4108     1.0  0.66009  0.64023  0.96802  1.0000
  H   H4109     1.0  0.78324  0.66224  0.48316  1.0000
  H   H4110     1.0  0.83347  0.78064  0.88339  1.0000
  C   C5138     1.0  0.72130  0.59557  0.97491  1.0000
  C   C5139     1.0  0.51307  0.77512  0.94987  1.0000
  P   P173      1.0  0.56977  0.76685  0.96155  1.0000
  C   C5140     1.0  0.65760  0.74026  0.47727  1.0000
  C   C5141     1.0  0.50484  0.71913  0.82269  1.0000
  C   C5142     1.0  0.70431  0.67406  0.96442  1.0000
  H   H4111     1.0  0.93821  0.72437  0.97328  1.0000
  H   H4112     1.0  0.97456  0.78186  0.89808  1.0000
  H   H4113     1.0  0.68997  0.67630  0.96006  1.0000
  H   H4114     1.0  0.79962  0.59634  0.87091  1.0000
  H   H4115     1.0  0.56328  0.59150  0.90366  1.0000
  H   H4116     1.0  0.92281  0.59192  0.75591  1.0000
  H   H4117     1.0  0.50085  0.59607  0.49480  1.0000
  H   H4118     1.0  0.55589  0.62675  0.97068  1.0000
  C   C5143     1.0  0.49915  0.70568  0.50618  1.0000
  H   H4119     1.0  0.85421  0.78507  0.84911  1.0000
  H   H4120     1.0  0.49989  0.66219  0.86767  1.0000
  H   H4121     1.0  0.55519  0.73335  0.47712  1.0000
  C   C5144     1.0  0.90034  0.60468  0.47704  1.0000
  H   H4122     1.0  0.99782  0.76442  0.70159  1.0000
  C   C5145     1.0  0.92683  0.77386  0.97568  1.0000
  H   H4123     1.0  0.99835  0.78453  0.66787  1.0000
  H   H4124     1.0  0.94738  0.87377  0.16365  1.0000
  C   C5146     1.0  0.83304  0.97869  0.29721  1.0000
  C   C5147     1.0  0.99364  0.88865  0.35748  1.0000
  H   H4125     1.0  0.97247  0.87240  0.24510  1.0000
  C   C5148     1.0  0.67738  0.96153  0.47138  1.0000
  C   C5149     1.0  0.57784  0.79406  0.97987  1.0000
  H   H4126     1.0  0.81519  0.92913  0.42320  1.0000
  H   H4127     1.0  0.61671  0.78516  0.37970  1.0000
  Fe  Fe348     1.0  0.78047  0.87337  0.45298  1.0000
  S   S686      1.0  0.76194  0.88947  0.43013  1.0000
  S   S687      1.0  0.80807  0.84944  0.44730  1.0000
  S   S688      1.0  0.76860  0.94550  0.42417  1.0000
  H   H4128     1.0  0.58611  0.81498  0.27274  1.0000
  H   H4129     1.0  0.82031  0.96482  0.46229  1.0000
  Fe  Fe349     1.0  0.56808  0.91688  0.24065  1.0000
  S   S689      1.0  0.58103  0.91947  0.20800  1.0000
  S   S690      1.0  0.56698  0.96861  0.20431  1.0000
  Fe  Fe350     1.0  0.59390  0.94472  0.21069  1.0000
  S   S691      1.0  0.62580  0.94891  0.19595  1.0000
  S   S692      1.0  0.58351  0.94025  0.24381  1.0000
  H   H4130     1.0  0.66271  0.92035  0.04450  1.0000
  H   H4131     1.0  0.65304  0.94988  0.06076  1.0000
  H   H4132     1.0  0.96717  0.80209  0.37087  1.0000
  Fe  Fe351     1.0  0.84261  0.95068  0.02392  1.0000
  S   S693      1.0  0.81446  0.97475  0.02373  1.0000
  S   S694      1.0  0.85595  0.93137  0.00044  1.0000
  Fe  Fe352     1.0  0.85035  0.95801  0.06206  1.0000
  H   H4133     1.0  0.58430  0.81460  0.99451  1.0000
  S   S695      1.0  0.87054  0.94554  0.08483  1.0000
  Fe  Fe353     1.0  0.80671  0.96262  0.05652  1.0000
  S   S696      1.0  0.77509  0.95900  0.07363  1.0000
  C   C5150     1.0  0.70692  0.80781  0.29369  1.0000
  H   H4134     1.0  0.58051  0.84784  0.28248  1.0000
  S   S697      1.0  0.83350  0.93704  0.05620  1.0000
  S   S698      1.0  0.86140  0.97010  0.02960  1.0000
  H   H4135     1.0  0.97732  0.96497  0.22530  1.0000
  H   H4136     1.0  0.54170  0.85636  0.33485  1.0000
  S   S699      1.0  0.63708  0.96226  0.10273  1.0000
  C   C5151     1.0  0.88465  0.85022  0.98088  1.0000
  C   C5152     1.0  0.99003  0.94382  0.27030  1.0000
  C   C5153     1.0  0.97715  0.80162  0.32143  1.0000
  S   S700      1.0  0.67092  0.78771  0.40728  1.0000
  C   C5154     1.0  0.51988  0.80317  0.37920  1.0000
  H   H4137     1.0  0.76768  0.94906  0.98438  1.0000
  C   C5155     1.0  0.97046  0.86831  0.27668  1.0000
  H   H4138     1.0  0.99733  0.82311  0.44750  1.0000
  S   S701      1.0  0.65896  0.79248  0.35476  1.0000
  C   C5156     1.0  0.57952  0.84717  0.26774  1.0000
  C   C5157     1.0  0.93012  0.86143  0.38067  1.0000
  C   C5158     1.0  0.58568  0.91570  0.15196  1.0000
  H   H4139     1.0  0.90414  0.84525  0.42236  1.0000
  C   C5159     1.0  0.89486  0.85442  0.43279  1.0000
  C   C5160     1.0  0.52301  0.80771  0.26350  1.0000
  H   H4140     1.0  0.56592  0.78945  0.99225  1.0000
  H   H4141     1.0  0.93892  0.81274  0.40401  1.0000
  H   H4142     1.0  0.77891  0.93710  0.04406  1.0000
  S   S702      1.0  0.91805  0.95685  0.17743  1.0000
  C   C5161     1.0  0.75570  0.96201  0.98188  1.0000
  H   H4143     1.0  0.68688  0.78522  0.44908  1.0000
  H   H4144     1.0  0.67815  0.94416  0.08674  1.0000
  C   C5162     1.0  0.71281  0.85113  0.44090  1.0000
  H   H4145     1.0  0.61535  0.96206  0.02441  1.0000
  H   H4146     1.0  0.96364  0.96811  0.10096  1.0000
  H   H4147     1.0  0.92237  0.93963  0.08103  1.0000
  H   H4148     1.0  0.54164  0.97361  0.07656  1.0000
  H   H4149     1.0  0.50603  0.97212  0.07876  1.0000
  Fe  Fe354     1.0  0.87719  0.91326  0.37124  1.0000
  S   S703      1.0  0.90748  0.92234  0.36373  1.0000
  S   S704      1.0  0.87764  0.88025  0.37790  1.0000
  C   C5163     1.0  0.94546  0.85616  0.46622  1.0000
  C   C5164     1.0  0.52461  0.78770  0.39509  1.0000
  C   C5165     1.0  0.97136  0.83561  0.32687  1.0000
  Fe  Fe355     1.0  0.89591  0.94505  0.33891  1.0000
  C   C5166     1.0  0.67830  0.88559  0.18602  1.0000
  H   H4150     1.0  0.87108  0.96236  0.26594  1.0000
  C   C5167     1.0  0.95425  0.85606  0.40170  1.0000
  S   S705      1.0  0.86670  0.93408  0.34480  1.0000
  S   S706      1.0  0.86273  0.93399  0.39272  1.0000
  S   S707      1.0  0.78105  0.90079  0.46329  1.0000
  H   H4151     1.0  0.93081  0.84618  0.33935  1.0000
  H   H4152     1.0  0.93386  0.84633  0.44570  1.0000
  C   C5168     1.0  0.98065  0.87087  0.25671  1.0000
  C   C5169     1.0  0.99338  0.96560  0.10632  1.0000
  C   C5170     1.0  0.66744  0.90473  0.17993  1.0000
  C   C5171     1.0  0.84905  0.90859  0.97717  1.0000
  S   S708      1.0  0.96908  0.91873  0.17538  1.0000
  C   C5172     1.0  0.93083  0.98126  0.04657  1.0000
  H   H4153     1.0  0.96190  0.93480  0.23316  1.0000
  P   P174      1.0  0.53657  0.82066  0.36707  1.0000
  C   C5173     1.0  0.50166  0.80533  0.37300  1.0000
  C   C5174     1.0  0.99561  0.96195  0.32189  1.0000
  H   H4154     1.0  0.80932  0.97142  0.10758  1.0000
  Fe  Fe356     1.0  0.95206  0.95075  0.17409  1.0000
  H   H4155     1.0  0.54091  0.83526  0.28340  1.0000
  C   C5175     1.0  0.83388  0.93368  0.46880  1.0000
  C   C5176     1.0  0.98277  0.83234  0.45236  1.0000
  C   C5177     1.0  0.70818  0.92591  0.08117  1.0000
  C   C5178     1.0  0.81803  0.96093  0.11766  1.0000
  H   H4156     1.0  0.90560  0.96584  0.05747  1.0000
  C   C5179     1.0  0.97698  0.87739  0.14590  1.0000
  C   C5180     1.0  0.95302  0.83570  0.40756  1.0000
  H   H4157     1.0  0.99404  0.84184  0.47347  1.0000
  C   C5181     1.0  0.59382  0.78618  0.36365  1.0000
  H   H4158     1.0  0.77573  0.79575  0.43298  1.0000
  C   C5182     1.0  0.51508  0.79357  0.27932  1.0000
  C   C5183     1.0  0.87334  0.85718  0.46518  1.0000
  C   C5184     1.0  0.98824  0.95327  0.30994  1.0000
  C   C5185     1.0  0.87850  0.96010  0.09753  1.0000
  H   H4159     1.0  0.65573  0.79227  0.27801  1.0000
  S   S709      1.0  0.72609  0.79709  0.41041  1.0000
  H   H4160     1.0  0.98025  0.93068  0.04676  1.0000
  C   C5186     1.0  0.89612  0.96105  0.12306  1.0000
  C   C5187     1.0  0.88779  0.95038  0.11370  1.0000
  H   H4161     1.0  0.70768  0.86599  0.18325  1.0000
  S   S710      1.0  0.58453  0.80450  0.23620  1.0000
  H   H4162     1.0  0.90324  0.95341  0.13546  1.0000
  H   H4163     1.0  0.88871  0.93446  0.11886  1.0000
  C   C5188     1.0  0.50288  0.95266  0.10764  1.0000
  H   H4164     1.0  0.99246  0.86037  0.08290  1.0000
  C   C5189     1.0  0.94276  0.86886  0.38840  1.0000
  H   H4165     1.0  0.69840  0.93691  0.98338  1.0000
  H   H4166     1.0  0.87275  0.86282  0.98462  1.0000
  H   H4167     1.0  0.67766  0.93012  0.47457  1.0000
  H   H4168     1.0  0.82391  0.96780  0.29829  1.0000
  C   C5190     1.0  0.71875  0.98102  0.06200  1.0000
  H   H4169     1.0  0.94117  0.96219  0.27083  1.0000
  C   C5191     1.0  0.91153  0.95687  0.28709  1.0000
  C   C5192     1.0  0.97557  0.82218  0.31388  1.0000
  C   C5193     1.0  0.96991  0.93721  0.24342  1.0000
  H   H4170     1.0  0.99103  0.83053  0.10738  1.0000
  H   H4171     1.0  0.96407  0.91069  0.26480  1.0000
  H   H4172     1.0  0.88051  0.95314  0.29902  1.0000
  C   C5194     1.0  0.81931  0.92250  0.99976  1.0000
  C   C5195     1.0  0.84030  0.92007  0.99206  1.0000
  H   H4173     1.0  0.63293  0.80196  0.32691  1.0000
  C   C5196     1.0  0.94716  0.84538  0.45148  1.0000
  H   H4174     1.0  0.56893  0.93865  0.07102  1.0000
  H   H4175     1.0  0.81239  0.93135  0.01117  1.0000
  H   H4176     1.0  0.83698  0.96851  0.32739  1.0000
  C   C5197     1.0  0.69303  0.93979  0.11093  1.0000
  H   H4177     1.0  0.75181  0.81996  0.41676  1.0000
  C   C5198     1.0  0.57468  0.86503  0.25446  1.0000
  H   H4178     1.0  0.73823  0.90777  0.08018  1.0000
  C   C5199     1.0  0.60657  0.96103  0.03954  1.0000
  H   H4179     1.0  0.72094  0.80064  0.29869  1.0000
  C   C5200     1.0  0.58261  0.82860  0.26225  1.0000
  C   C5201     1.0  0.96170  0.86646  0.15564  1.0000
  C   C5202     1.0  0.63883  0.78607  0.32883  1.0000
  Fe  Fe357     1.0  0.92233  0.98364  0.15310  1.0000
  H   H4180     1.0  0.99537  0.94754  0.15853  1.0000
  S   S711      1.0  0.53770  0.94210  0.18047  1.0000
  C   C5203     1.0  0.96237  0.85496  0.47409  1.0000
  C   C5204     1.0  0.58892  0.80567  0.38890  1.0000
  Fe  Fe358     1.0  0.55286  0.94293  0.20462  1.0000
  H   H4181     1.0  0.77811  0.98398  0.40880  1.0000
  C   C5205     1.0  0.54042  0.84431  0.32859  1.0000
  C   C5206     1.0  0.72671  0.91886  0.10758  1.0000
  C   C5207     1.0  0.51741  0.96154  0.17504  1.0000
  H   H4182     1.0  0.68967  0.81097  0.32313  1.0000
  C   C5208     1.0  0.71183  0.92584  0.97931  1.0000
  C   C5209     1.0  0.62858  0.95276  0.17010  1.0000
  C   C5210     1.0  0.62374  0.93903  0.16153  1.0000
  C   C5211     1.0  0.62718  0.94157  0.14076  1.0000
  C   C5212     1.0  0.63464  0.95824  0.12858  1.0000
  C   C5213     1.0  0.63938  0.97202  0.13715  1.0000
  C   C5214     1.0  0.63658  0.96914  0.15788  1.0000
  H   H4183     1.0  0.61766  0.92630  0.17091  1.0000
  H   H4184     1.0  0.62359  0.93091  0.13412  1.0000
  C   C5215     1.0  0.75170  0.93928  0.12840  1.0000
  C   C5216     1.0  0.92090  0.96606  0.05853  1.0000
  C   C5217     1.0  0.58102  0.82773  0.24327  1.0000
  C   C5218     1.0  0.57347  0.86429  0.23526  1.0000
  C   C5219     1.0  0.57667  0.84564  0.22968  1.0000
  H   H4185     1.0  0.56969  0.87801  0.22486  1.0000
  H   H4186     1.0  0.57550  0.84510  0.21489  1.0000
  C   C5220     1.0  0.82744  0.85874  0.42860  1.0000
  C   C5221     1.0  0.82452  0.87872  0.41858  1.0000
  C   C5222     1.0  0.84013  0.88568  0.40330  1.0000
  C   C5223     1.0  0.85832  0.87248  0.39767  1.0000
  C   C5224     1.0  0.86111  0.85251  0.40760  1.0000
  C   C5225     1.0  0.84587  0.84577  0.42331  1.0000
  H   H4187     1.0  0.81028  0.88881  0.42260  1.0000
  H   H4188     1.0  0.83792  0.90111  0.39561  1.0000
  H   H4189     1.0  0.87515  0.84230  0.40329  1.0000
  H   H4190     1.0  0.84818  0.83037  0.43109  1.0000
  H   H4191     1.0  0.93415  0.90519  0.09555  1.0000
  H   H4192     1.0  0.78255  0.94337  0.11683  1.0000
  C   C5226     1.0  0.92593  0.96199  0.26975  1.0000
  C   C5227     1.0  0.53639  0.81036  0.33144  1.0000
  C   C5228     1.0  0.95668  0.95282  0.33484  1.0000
  C   C5229     1.0  0.72024  0.81807  0.42204  1.0000
  C   C5230     1.0  0.70025  0.82671  0.43005  1.0000
  Fe  Fe359     1.0  0.55543  0.96218  0.23738  1.0000
  C   C5231     1.0  0.73273  0.84252  0.43284  1.0000
  C   C5232     1.0  0.73638  0.82621  0.42333  1.0000
  H   H4193     1.0  0.68766  0.82083  0.42886  1.0000
  H   H4194     1.0  0.74531  0.84852  0.43386  1.0000
  H   H4195     1.0  0.97551  0.88723  0.10179  1.0000
  C   C5233     1.0  0.59164  0.94925  0.04635  1.0000
  H   H4196     1.0  0.73273  0.91806  0.17619  1.0000
  C   C5234     1.0  0.74639  0.90916  0.98146  1.0000
  H   H4197     1.0  0.54368  0.86224  0.29888  1.0000
  C   C5235     1.0  0.77577  0.97942  0.15365  1.0000
  C   C5236     1.0  0.99575  0.86797  0.13609  1.0000
  H   H4198     1.0  0.97449  0.89313  0.14640  1.0000
  H   H4199     1.0  0.50541  0.89385  0.39563  1.0000
  C   C5237     1.0  0.69881  0.91503  0.16017  1.0000
  H   H4200     1.0  0.89795  0.88223  0.41216  1.0000
  C   C5238     1.0  0.70214  0.97504  0.13032  1.0000
  C   C5239     1.0  0.83656  0.92740  0.12739  1.0000
  C   C5240     1.0  0.84003  0.93294  0.14369  1.0000
  H   H4201     1.0  0.71984  0.80593  0.26299  1.0000
  H   H4202     1.0  0.82958  0.82157  0.40543  1.0000
  H   H4203     1.0  0.53456  0.79564  0.34004  1.0000
  C   C5241     1.0  0.89535  0.98158  0.11622  1.0000
  S   S712      1.0  0.53878  0.93841  0.23722  1.0000
  H   H4204     1.0  0.53689  0.80199  0.30402  1.0000
  C   C5242     1.0  0.98365  0.96584  0.34024  1.0000
  C   C5243     1.0  0.90084  0.95770  0.42502  1.0000
  H   H4205     1.0  0.98056  0.79124  0.31142  1.0000
  C   C5244     1.0  0.97850  0.95423  0.23902  1.0000
  C   C5245     1.0  0.52678  0.84369  0.37655  1.0000
  C   C5246     1.0  0.51843  0.97217  0.15545  1.0000
  H   H4206     1.0  0.94339  0.88464  0.38432  1.0000
  S   S713      1.0  0.89334  0.97516  0.22651  1.0000
  C   C5247     1.0  0.98008  0.89100  0.08574  1.0000
  C   C5248     1.0  0.73208  0.97211  0.43248  1.0000
  H   H4207     1.0  0.90856  0.86243  0.98503  1.0000
  C   C5249     1.0  0.56916  0.81430  0.38600  1.0000
  C   C5250     1.0  0.90086  0.96728  0.24959  1.0000
  H   H4208     1.0  0.84287  0.91245  0.12444  1.0000
  H   H4209     1.0  0.84883  0.92217  0.15361  1.0000
  S   S714      1.0  0.91910  0.94999  0.31009  1.0000
  C   C5251     1.0  0.53771  0.82558  0.34052  1.0000
  H   H4210     1.0  0.94151  0.94939  0.33984  1.0000
  H   H4211     1.0  0.58886  0.94104  0.03653  1.0000
  H   H4212     1.0  0.53252  0.97002  0.14462  1.0000
  S   S715      1.0  0.91119  0.95022  0.40183  1.0000
  C   C5252     1.0  0.68001  0.98220  0.16774  1.0000
  H   H4213     1.0  0.66884  0.93382  0.16179  1.0000
  C   C5253     1.0  0.69935  0.88097  0.17888  1.0000
  C   C5254     1.0  0.96872  0.82817  0.34745  1.0000
  C   C5255     1.0  0.73518  0.96974  0.07052  1.0000
  C   C5256     1.0  0.87865  0.88710  0.44035  1.0000
  C   C5257     1.0  0.61021  0.97149  0.05229  1.0000
  C   C5258     1.0  0.59884  0.97037  0.07181  1.0000
  C   C5259     1.0  0.58353  0.95890  0.07862  1.0000
  C   C5260     1.0  0.58026  0.94806  0.06586  1.0000
  P   P175      1.0  0.56933  0.95668  0.10402  1.0000
  C   C5261     1.0  0.58165  0.93481  0.11919  1.0000
  C   C5262     1.0  0.56782  0.97914  0.11301  1.0000
  S   S716      1.0  0.88306  0.96872  0.35748  1.0000
  H   H4214     1.0  0.95446  0.86753  0.28027  1.0000
  C   C5263     1.0  0.99630  0.86303  0.33895  1.0000
  H   H4215     1.0  0.86952  0.95625  0.42721  1.0000
  C   C5264     1.0  0.58244  0.98014  0.12307  1.0000
  C   C5265     1.0  0.59455  0.91891  0.11068  1.0000
  H   H4216     1.0  0.80827  0.96191  0.43304  1.0000
  C   C5266     1.0  0.59839  0.89990  0.14345  1.0000
  C   C5267     1.0  0.57758  0.93315  0.13988  1.0000
  C   C5268     1.0  0.54365  0.95419  0.10512  1.0000
  C   C5269     1.0  0.98840  0.95762  0.25241  1.0000
  C   C5270     1.0  0.64968  0.79829  0.26463  1.0000
  H   H4217     1.0  0.60196  0.97852  0.08150  1.0000
  H   H4218     1.0  0.79355  0.92721  0.14879  1.0000
  C   C5271     1.0  0.56193  0.80954  0.37126  1.0000
  C   C5272     1.0  0.77792  0.92857  0.14776  1.0000
  H   H4219     1.0  0.55967  0.82470  0.39522  1.0000
  H   H4220     1.0  0.54082  0.88722  0.37604  1.0000
  H   H4221     1.0  0.59472  0.96761  0.12540  1.0000
  C   C5273     1.0  0.97589  0.89906  0.35094  1.0000
  H   H4222     1.0  0.56789  0.94530  0.14670  1.0000
  H   H4223     1.0  0.53984  0.93510  0.13446  1.0000
  H   H4224     1.0  0.59473  0.80977  0.39987  1.0000
  H   H4225     1.0  0.78668  0.90022  0.05382  1.0000
  C   C5274     1.0  0.83863  0.91521  0.46274  1.0000
  H   H4226     1.0  0.71067  0.97261  0.11569  1.0000
  C   C5275     1.0  0.83165  0.91365  0.44635  1.0000
  H   H4227     1.0  0.55452  0.85543  0.36410  1.0000
  C   C5276     1.0  0.53759  0.81388  0.31095  1.0000
  C   C5277     1.0  0.79711  0.86504  0.31367  1.0000
  C   C5278     1.0  0.79641  0.88267  0.29930  1.0000
  C   C5279     1.0  0.78972  0.90120  0.30516  1.0000
  C   C5280     1.0  0.78374  0.90215  0.32538  1.0000
  C   C5281     1.0  0.78451  0.88451  0.33995  1.0000
  C   C5282     1.0  0.79117  0.86594  0.33390  1.0000
  P   P176      1.0  0.77673  0.88541  0.36617  1.0000
  C   C5283     1.0  0.79350  0.86542  0.37890  1.0000
  C   C5284     1.0  0.77884  0.90936  0.36993  1.0000
  C   C5285     1.0  0.76392  0.92642  0.36557  1.0000
  C   C5286     1.0  0.76551  0.94503  0.36821  1.0000
  C   C5287     1.0  0.78205  0.94680  0.37506  1.0000
  C   C5288     1.0  0.79694  0.92997  0.37942  1.0000
  C   C5289     1.0  0.79535  0.91129  0.37696  1.0000
  C   C5290     1.0  0.81454  0.86183  0.37089  1.0000
  C   C5291     1.0  0.82748  0.84594  0.38034  1.0000
  C   C5292     1.0  0.81950  0.83352  0.39779  1.0000
  C   C5293     1.0  0.79864  0.83718  0.40599  1.0000
  C   C5294     1.0  0.78567  0.85306  0.39659  1.0000
  C   C5295     1.0  0.75093  0.88114  0.37539  1.0000
  C   C5296     1.0  0.74471  0.86630  0.36946  1.0000
  C   C5297     1.0  0.72531  0.86184  0.37773  1.0000
  C   C5298     1.0  0.71194  0.87221  0.39191  1.0000
  C   C5299     1.0  0.71803  0.88687  0.39803  1.0000
  C   C5300     1.0  0.73747  0.89123  0.38995  1.0000
  H   H4228     1.0  0.80229  0.85066  0.30916  1.0000
  H   H4229     1.0  0.80107  0.88197  0.28364  1.0000
  H   H4230     1.0  0.77872  0.91668  0.32948  1.0000
  H   H4231     1.0  0.79187  0.85211  0.34482  1.0000
  H   H4232     1.0  0.75100  0.92531  0.36023  1.0000
  H   H4233     1.0  0.75382  0.95809  0.36525  1.0000
  H   H4234     1.0  0.78310  0.96111  0.37756  1.0000
  H   H4235     1.0  0.80950  0.93148  0.38511  1.0000
  H   H4236     1.0  0.80694  0.89851  0.38080  1.0000
  H   H4237     1.0  0.82098  0.87149  0.35752  1.0000
  H   H4238     1.0  0.51981  0.83880  0.24950  1.0000
  C   C5301     1.0  0.89130  0.87524  0.42706  1.0000
  H   H4239     1.0  0.79261  0.82816  0.42003  1.0000
  H   H4240     1.0  0.76962  0.85577  0.40333  1.0000
  H   H4241     1.0  0.75494  0.85771  0.35889  1.0000
  H   H4242     1.0  0.72081  0.84994  0.37358  1.0000
  H   H4243     1.0  0.69710  0.86841  0.39867  1.0000
  H   H4244     1.0  0.70793  0.89435  0.40962  1.0000
  H   H4245     1.0  0.74207  0.90208  0.39554  1.0000
  C   C5302     1.0  0.97631  0.91097  0.07567  1.0000
  H   H4246     1.0  0.70730  0.92418  0.06666  1.0000
  H   H4247     1.0  0.70403  0.97694  0.99162  1.0000
  C   C5303     1.0  0.53135  0.87611  0.37936  1.0000
  H   H4248     1.0  0.98647  0.82061  0.14615  1.0000
  H   H4249     1.0  0.81316  0.78802  0.42090  1.0000
  Fe  Fe360     1.0  0.89213  0.94504  0.38294  1.0000
  C   C5304     1.0  0.72875  0.92270  0.98795  1.0000
  C   C5305     1.0  0.83262  0.95252  0.14692  1.0000
  P   P177      1.0  0.72863  0.93776  0.00532  1.0000
  C   C5306     1.0  0.73521  0.96091  0.99026  1.0000
  C   C5307     1.0  0.70430  0.94178  0.02223  1.0000
  C   C5308     1.0  0.69890  0.95812  0.03185  1.0000
  C   C5309     1.0  0.68043  0.96108  0.04550  1.0000
  C   C5310     1.0  0.66724  0.94765  0.04988  1.0000
  C   C5311     1.0  0.67273  0.93102  0.04074  1.0000
  C   C5312     1.0  0.69129  0.92796  0.02708  1.0000
  C   C5313     1.0  0.87303  0.96601  0.45275  1.0000
  H   H4250     1.0  0.65048  0.78549  0.45127  1.0000
  C   C5314     1.0  0.95856  0.79657  0.43607  1.0000
  C   C5315     1.0  0.82531  0.94132  0.11456  1.0000
  C   C5316     1.0  0.63854  0.79245  0.23720  1.0000
  C   C5317     1.0  0.74654  0.92584  0.02122  1.0000
  C   C5318     1.0  0.75638  0.93743  0.02789  1.0000
  C   C5319     1.0  0.77084  0.92815  0.03953  1.0000
  C   C5320     1.0  0.77519  0.90733  0.04507  1.0000
  C   C5321     1.0  0.76479  0.89574  0.03925  1.0000
  C   C5322     1.0  0.75034  0.90496  0.02755  1.0000
  H   H4251     1.0  0.65106  0.90832  0.18521  1.0000
  C   C5323     1.0  0.67554  0.78917  0.46198  1.0000
  H   H4252     1.0  0.79110  0.91513  0.99897  1.0000
  H   H4253     1.0  0.67030  0.87431  0.19605  1.0000
  H   H4254     1.0  0.70908  0.96849  0.02898  1.0000
  H   H4255     1.0  0.67662  0.97358  0.05305  1.0000
  H   H4256     1.0  0.69555  0.91472  0.02057  1.0000
  H   H4257     1.0  0.90725  0.78578  0.00109  1.0000
  H   H4258     1.0  0.83535  0.95632  0.15977  1.0000
  H   H4259     1.0  0.57176  0.78891  0.44393  1.0000
  H   H4260     1.0  0.74725  0.94660  0.11439  1.0000
  C   C5324     1.0  0.98981  0.87572  0.07512  1.0000
  H   H4261     1.0  0.75308  0.95362  0.02401  1.0000
  H   H4262     1.0  0.98253  0.91579  0.28822  1.0000
  C   C5325     1.0  0.88605  0.84538  0.45187  1.0000
  H   H4263     1.0  0.76819  0.87958  0.04351  1.0000
  H   H4264     1.0  0.74246  0.89574  0.02315  1.0000
  C   C5326     1.0  0.88677  0.97038  0.46185  1.0000
  H   H4265     1.0  0.82282  0.93709  0.10178  1.0000
  C   C5327     1.0  0.51356  0.96368  0.09073  1.0000
  C   C5328     1.0  0.63284  0.81306  0.23083  1.0000
  C   C5329     1.0  0.63541  0.82635  0.24138  1.0000
  C   C5330     1.0  0.64409  0.81906  0.25824  1.0000
  C   C5331     1.0  0.68932  0.81372  0.30746  1.0000
  P   P178      1.0  0.64649  0.83581  0.27282  1.0000
  C   C5332     1.0  0.67026  0.82582  0.28104  1.0000
  C   C5333     1.0  0.64601  0.86077  0.25795  1.0000
  C   C5334     1.0  0.66397  0.86828  0.24910  1.0000
  C   C5335     1.0  0.66308  0.88751  0.23725  1.0000
  C   C5336     1.0  0.64433  0.89929  0.23412  1.0000
  C   C5337     1.0  0.62645  0.89192  0.24295  1.0000
  C   C5338     1.0  0.62726  0.87285  0.25492  1.0000
  C   C5339     1.0  0.67104  0.82264  0.30122  1.0000
  H   H4266     1.0  0.70377  0.97773  0.06836  1.0000
  H   H4267     1.0  0.66971  0.96607  0.45899  1.0000
  H   H4268     1.0  0.97604  0.96622  0.06126  1.0000
  C   C5340     1.0  0.68800  0.81967  0.26732  1.0000
  C   C5341     1.0  0.62523  0.83706  0.29375  1.0000
  C   C5342     1.0  0.61165  0.82386  0.29846  1.0000
  C   C5343     1.0  0.59554  0.82462  0.31501  1.0000
  C   C5344     1.0  0.59287  0.83859  0.32694  1.0000
  C   C5345     1.0  0.60607  0.85207  0.32214  1.0000
  C   C5346     1.0  0.62213  0.85141  0.30552  1.0000
  S   S717      1.0  0.95172  0.96826  0.19681  1.0000
  C   C5347     1.0  0.51144  0.87986  0.39039  1.0000
  H   H4269     1.0  0.62556  0.81868  0.21818  1.0000
  H   H4270     1.0  0.63011  0.84218  0.23653  1.0000
  C   C5348     1.0  0.88007  0.95962  0.43426  1.0000
  H   H4271     1.0  0.67862  0.85948  0.25133  1.0000
  H   H4272     1.0  0.67690  0.89333  0.23044  1.0000
  H   H4273     1.0  0.64355  0.91417  0.22491  1.0000
  H   H4274     1.0  0.61186  0.90096  0.24055  1.0000
  H   H4275     1.0  0.61319  0.86746  0.26164  1.0000
  H   H4276     1.0  0.65759  0.82646  0.31239  1.0000
  C   C5349     1.0  0.96862  0.94884  0.31652  1.0000
  C   C5350     1.0  0.65504  0.78940  0.46315  1.0000
  C   C5351     1.0  0.89172  0.95704  0.28571  1.0000
  H   H4277     1.0  0.68759  0.82145  0.25179  1.0000
  H   H4278     1.0  0.61330  0.81303  0.28936  1.0000
  H   H4279     1.0  0.58508  0.81445  0.31836  1.0000
  H   H4280     1.0  0.58054  0.83903  0.33984  1.0000
  H   H4281     1.0  0.60389  0.86305  0.33126  1.0000
  H   H4282     1.0  0.63228  0.86193  0.30192  1.0000
  C   C5352     1.0  0.90559  0.86929  0.33307  1.0000
  C   C5353     1.0  0.89915  0.88870  0.32317  1.0000
  C   C5354     1.0  0.91350  0.89995  0.31130  1.0000
  C   C5355     1.0  0.93431  0.89195  0.30955  1.0000
  C   C5356     1.0  0.94093  0.87245  0.31954  1.0000
  C   C5357     1.0  0.92636  0.86116  0.33129  1.0000
  P   P179      1.0  0.96788  0.86232  0.31761  1.0000
  C   C5358     1.0  0.81664  0.94893  0.44143  1.0000
  C   C5359     1.0  0.98091  0.86662  0.29179  1.0000
  C   C5360     1.0  0.90729  0.96872  0.45233  1.0000
  C   C5361     1.0  0.82328  0.95053  0.45792  1.0000
  C   C5362     1.0  0.94881  0.79255  0.45621  1.0000
  P   P180      1.0  0.96765  0.81969  0.42526  1.0000
  C   C5363     1.0  0.96509  0.84607  0.15544  1.0000
  H   H4283     1.0  0.73182  0.83414  0.47523  1.0000
  C   C5364     1.0  0.97831  0.87325  0.33247  1.0000
  C   C5365     1.0  0.96820  0.89143  0.33850  1.0000
  H   H4284     1.0  0.95495  0.96401  0.36105  1.0000
  H   H4285     1.0  0.89439  0.86074  0.34257  1.0000
  H   H4286     1.0  0.88303  0.89513  0.32499  1.0000
  H   H4287     1.0  0.90844  0.91505  0.30371  1.0000
  H   H4288     1.0  0.94515  0.90115  0.30066  1.0000
  H   H4289     1.0  0.76841  0.91493  0.17847  1.0000
  H   H4290     1.0  0.74711  0.96940  0.16432  1.0000
  H   H4291     1.0  0.96550  0.83822  0.35773  1.0000
  H   H4292     1.0  0.64513  0.98495  0.12788  1.0000
  Fe  Fe361     1.0  0.91794  0.97625  0.19840  1.0000
  S   S718      1.0  0.73134  0.91230  0.46533  1.0000
  H   H4293     1.0  0.99751  0.90361  0.02828  1.0000
  C   C5366     1.0  0.96587  0.83346  0.44435  1.0000
  H   H4294     1.0  0.95419  0.89964  0.33405  1.0000
  C   C5367     1.0  0.71997  0.97760  0.98587  1.0000
  H   H4295     1.0  0.91796  0.97216  0.45920  1.0000
  C   C5368     1.0  0.98279  0.91542  0.05489  1.0000
  C   C5369     1.0  0.51259  0.94222  0.12321  1.0000
  C   C5370     1.0  0.93057  0.95109  0.07196  1.0000
  C   C5371     1.0  0.95042  0.95108  0.07345  1.0000
  C   C5372     1.0  0.84055  0.97900  0.31360  1.0000
  P   P181      1.0  0.96379  0.93072  0.08941  1.0000
  C   C5373     1.0  0.94610  0.92108  0.11126  1.0000
  S   S719      1.0  0.82278  0.97367  0.36718  1.0000
  H   H4296     1.0  0.82807  0.86875  0.46852  1.0000
  H   H4297     1.0  0.93174  0.97147  0.23784  1.0000
  C   C5374     1.0  0.69657  0.84315  0.43950  1.0000
  S   S720      1.0  0.70789  0.87190  0.45263  1.0000
  C   C5375     1.0  0.94502  0.92531  0.12992  1.0000
  C   C5376     1.0  0.93162  0.91731  0.14674  1.0000
  C   C5377     1.0  0.91896  0.90537  0.14505  1.0000
  C   C5378     1.0  0.92003  0.90095  0.12658  1.0000
  C   C5379     1.0  0.93359  0.90870  0.10977  1.0000
  C   C5380     1.0  0.98273  0.93932  0.09694  1.0000
  C   C5381     1.0  0.97849  0.95856  0.10133  1.0000
  H   H4298     1.0  0.67101  0.98496  0.18212  1.0000
  C   C5382     1.0  0.58822  0.80829  0.98120  1.0000
  H   H4299     1.0  0.50425  0.93404  0.13656  1.0000
  C   C5383     1.0  0.76377  0.92159  0.16445  1.0000
  C   C5384     1.0  0.53904  0.85807  0.37256  1.0000
  H   H4300     1.0  0.72499  0.95924  0.43918  1.0000
  H   H4301     1.0  0.85711  0.96759  0.45993  1.0000
  H   H4302     1.0  0.99003  0.98047  0.10967  1.0000
  H   H4303     1.0  0.68013  0.94859  0.11937  1.0000
  C   C5385     1.0  0.99613  0.88024  0.05443  1.0000
  C   C5386     1.0  0.54146  0.84779  0.30810  1.0000
  H   H4304     1.0  0.95452  0.93464  0.13173  1.0000
  H   H4305     1.0  0.93109  0.92042  0.16112  1.0000
  Fe  Fe362     1.0  0.75993  0.91667  0.44263  1.0000
  H   H4306     1.0  0.90834  0.89954  0.15807  1.0000
  H   H4307     1.0  0.96783  0.91286  0.35586  1.0000
  H   H4308     1.0  0.78922  0.91488  0.29403  1.0000
  C   C5387     1.0  0.69185  0.93727  0.09234  1.0000
  C   C5388     1.0  0.72559  0.91664  0.08882  1.0000
  Fe  Fe363     1.0  0.73507  0.88344  0.45490  1.0000
  C   C5389     1.0  0.71067  0.93099  0.11848  1.0000
  C   C5390     1.0  0.53382  0.96448  0.08950  1.0000
  H   H4309     1.0  0.91874  0.83559  0.38051  1.0000
  C   C5391     1.0  0.60295  0.90156  0.12279  1.0000
  H   H4310     1.0  0.87602  0.90324  0.43568  1.0000
  C   C5392     1.0  0.74361  0.92320  0.16305  1.0000
  H   H4311     1.0  0.99106  0.83300  0.38467  1.0000
  H   H4312     1.0  0.68734  0.95052  0.17793  1.0000
  C   C5393     1.0  0.82206  0.96686  0.13355  1.0000
  H   H4313     1.0  0.91013  0.89180  0.12520  1.0000
  C   C5394     1.0  0.70627  0.81080  0.27361  1.0000
  Fe  Fe364     1.0  0.85468  0.95595  0.36561  1.0000
  H   H4314     1.0  0.72577  0.89163  0.16003  1.0000
  H   H4315     1.0  0.58197  0.91452  0.16795  1.0000
  H   H4316     1.0  0.98949  0.97236  0.34949  1.0000
  H   H4317     1.0  0.60470  0.88643  0.15290  1.0000
  C   C5395     1.0  0.49926  0.86552  0.39476  1.0000
  H   H4318     1.0  0.53639  0.80303  0.25249  1.0000
  C   C5396     1.0  0.80727  0.91333  0.99282  1.0000
  C   C5397     1.0  0.96975  0.80770  0.35495  1.0000
  H   H4319     1.0  0.96398  0.86209  0.40758  1.0000
  H   H4320     1.0  0.95327  0.83757  0.16316  1.0000
  H   H4321     1.0  0.84377  0.84361  0.37448  1.0000
  H   H4322     1.0  0.94630  0.80329  0.46565  1.0000
  C   C5398     1.0  0.51369  0.82787  0.26188  1.0000
  C   C5399     1.0  0.92065  0.96712  0.25104  1.0000
  C   C5400     1.0  0.70957  0.89558  0.16586  1.0000
  H   H4323     1.0  0.56901  0.79083  0.34924  1.0000
  H   H4324     1.0  0.96237  0.94234  0.30766  1.0000
  H   H4325     1.0  0.74017  0.91129  0.11340  1.0000
  C   C5401     1.0  0.88642  0.96222  0.26698  1.0000
  H   H4326     1.0  0.87607  0.92503  0.46745  1.0000
  C   C5402     1.0  0.96050  0.96617  0.06096  1.0000
  C   C5403     1.0  0.77180  0.93762  0.12980  1.0000
  C   C5404     1.0  0.98142  0.92668  0.27457  1.0000
  C   C5405     1.0  0.49923  0.96450  0.18916  1.0000
  C   C5406     1.0  0.86922  0.87809  0.45935  1.0000
  C   C5407     1.0  0.82067  0.93043  0.43578  1.0000
  S   S721      1.0  0.56980  0.88771  0.26291  1.0000
  H   H4327     1.0  0.61289  0.88935  0.11618  1.0000
  C   C5408     1.0  0.90486  0.85000  0.98105  1.0000
  P   P182      1.0  0.71168  0.93378  0.14280  1.0000
  C   C5409     1.0  0.69976  0.95888  0.14634  1.0000
  S   S722      1.0  0.54092  0.98467  0.25729  1.0000
  H   H4328     1.0  0.83463  0.89943  0.44178  1.0000
  C   C5410     1.0  0.92890  0.84117  0.38626  1.0000
  H   H4329     1.0  0.93026  0.96096  0.42715  1.0000
  C   C5411     1.0  0.87709  0.98078  0.09112  1.0000
  H   H4330     1.0  0.88881  0.82922  0.45623  1.0000
  C   C5412     1.0  0.91428  0.96230  0.43417  1.0000
  C   C5413     1.0  0.99265  0.90009  0.04433  1.0000
  C   C5414     1.0  0.94033  0.82829  0.39965  1.0000
  C   C5415     1.0  0.73761  0.93150  0.14483  1.0000
  C   C5416     1.0  0.75300  0.96937  0.42428  1.0000
  C   C5417     1.0  0.68905  0.96263  0.16521  1.0000
  C   C5418     1.0  0.67760  0.91928  0.16683  1.0000
  H   H4331     1.0  0.73253  0.95829  0.08365  1.0000
  H   H4332     1.0  0.68110  0.84976  0.44563  1.0000
  H   H4333     1.0  0.59811  0.91978  0.09477  1.0000
  C   C5419     1.0  0.53292  0.94286  0.12192  1.0000
  C   C5420     1.0  0.53996  0.83261  0.29931  1.0000
  H   H4334     1.0  0.92103  0.87148  0.37057  1.0000
  C   C5421     1.0  0.50116  0.98508  0.14968  1.0000
  C   C5422     1.0  0.75494  0.97319  0.06213  1.0000
  C   C5423     1.0  0.50683  0.84752  0.38789  1.0000
  C   C5424     1.0  0.95064  0.98131  0.04777  1.0000
  C   C5425     1.0  0.75450  0.98222  0.15880  1.0000
  C   C5426     1.0  0.98387  0.83655  0.14568  1.0000
  S   S723      1.0  0.82257  0.98217  0.06535  1.0000
  H   H4335     1.0  0.98874  0.80673  0.08799  1.0000
  H   H4336     1.0  0.97755  0.82745  0.29796  1.0000
  H   H4337     1.0  0.93101  0.86539  0.47160  1.0000
  H   H4338     1.0  0.78457  0.96436  0.15547  1.0000
  C   C5427     1.0  0.57430  0.79513  0.36038  1.0000
  C   C5428     1.0  0.97120  0.92356  0.26126  1.0000
  H   H4339     1.0  0.73330  0.96959  0.47119  1.0000
  H   H4340     1.0  0.62181  0.98055  0.04704  1.0000
  H   H4341     1.0  0.99476  0.97103  0.24854  1.0000
  C   C5429     1.0  0.96422  0.96118  0.34676  1.0000
  H   H4342     1.0  0.64018  0.97984  0.16447  1.0000
  C   C5430     1.0  0.98098  0.84302  0.46719  1.0000
  H   H4343     1.0  0.76005  0.90730  0.98699  1.0000
  S   S724      1.0  0.95651  0.97613  0.14811  1.0000
  C   C5431     1.0  0.99369  0.81248  0.41267  1.0000
  C   C5432     1.0  0.97408  0.79440  0.34196  1.0000
  H   H4344     1.0  0.85550  0.98501  0.13999  1.0000
  H   H4345     1.0  0.50332  0.87452  0.32426  1.0000
  C   C5433     1.0  0.60130  0.79171  0.37763  1.0000
  C   C5434     1.0  0.99555  0.91592  0.16629  1.0000
  H   H4346     1.0  0.53838  0.78594  0.40041  1.0000
  C   C5435     1.0  0.81605  0.90155  0.97822  1.0000
  H   H4347     1.0  0.77024  0.95723  0.46600  1.0000
  H   H4348     1.0  0.82527  0.96389  0.98047  1.0000
  H   H4349     1.0  0.50137  0.98023  0.25635  1.0000
  Fe  Fe365     1.0  0.60777  0.85682  0.62894  1.0000
  S   S725      1.0  0.59191  0.88791  0.61801  1.0000
  S   S726      1.0  0.62117  0.83445  0.60833  1.0000
  Fe  Fe366     1.0  0.60533  0.86631  0.66950  1.0000
  S   S727      1.0  0.58930  0.89815  0.66188  1.0000
  S   S728      1.0  0.61431  0.85240  0.69886  1.0000
  Fe  Fe367     1.0  0.57105  0.88495  0.64820  1.0000
  S   S729      1.0  0.53738  0.89360  0.64917  1.0000
  Fe  Fe368     1.0  0.61157  0.89829  0.63256  1.0000
  S   S730      1.0  0.62951  0.92272  0.61771  1.0000
  S   S731      1.0  0.58531  0.85286  0.65807  1.0000
  S   S732      1.0  0.62911  0.86744  0.64135  1.0000
  H   H4350     1.0  0.51767  0.88767  0.77892  1.0000
  H   H4351     1.0  0.98571  0.97349  0.61749  1.0000
  C   C5436     1.0  0.51102  0.93961  0.82314  1.0000
  H   H4352     1.0  0.54770  0.95758  0.58810  1.0000
  H   H4353     1.0  0.70082  0.81124  0.74410  1.0000
  C   C5437     1.0  0.71218  0.91467  0.96530  1.0000
  C   C5438     1.0  0.55518  0.85456  0.55816  1.0000
  H   H4354     1.0  0.74256  0.79464  0.52979  1.0000
  H   H4355     1.0  0.60737  0.85265  0.85312  1.0000
  H   H4356     1.0  0.91185  0.82142  0.93247  1.0000
  C   C5439     1.0  0.83494  0.96843  0.93007  1.0000
  C   C5440     1.0  0.89899  0.78966  0.89691  1.0000
  Fe  Fe369     1.0  0.68073  0.91666  0.71778  1.0000
  H   H4357     1.0  0.54106  0.85294  0.55539  1.0000
  S   S733      1.0  0.68513  0.88462  0.71493  1.0000
  S   S734      1.0  0.70764  0.93161  0.70737  1.0000
  C   C5441     1.0  0.65925  0.82475  0.52400  1.0000
  Fe  Fe370     1.0  0.83728  0.83141  0.93519  1.0000
  S   S735      1.0  0.80741  0.83726  0.95672  1.0000
  Fe  Fe371     1.0  0.82427  0.86703  0.90426  1.0000
  S   S736      1.0  0.79344  0.87538  0.92351  1.0000
  S   S737      1.0  0.83400  0.88401  0.87303  1.0000
  Fe  Fe372     1.0  0.81062  0.86946  0.94796  1.0000
  H   H4358     1.0  0.59624  0.85201  0.74025  1.0000
  Fe  Fe373     1.0  0.79318  0.84250  0.93028  1.0000
  S   S738      1.0  0.76411  0.83098  0.93416  1.0000
  S   S739      1.0  0.84156  0.86335  0.92824  1.0000
  S   S740      1.0  0.82288  0.83437  0.90933  1.0000
  C   C5442     1.0  0.59150  0.84285  0.55552  1.0000
  S   S741      1.0  0.54486  0.82064  0.90339  1.0000
  C   C5443     1.0  0.51213  0.84028  0.62361  1.0000
  C   C5444     1.0  0.75499  0.93552  0.66749  1.0000
  C   C5445     1.0  0.89137  0.91985  0.49148  1.0000
  H   H4359     1.0  0.63580  0.87066  0.83933  1.0000
  C   C5446     1.0  0.73924  0.90380  0.61369  1.0000
  H   H4360     1.0  0.57746  0.83727  0.62118  1.0000
  H   H4361     1.0  0.56716  0.89456  0.72846  1.0000
  S   S742      1.0  0.85506  0.95340  0.53767  1.0000
  S   S743      1.0  0.81296  0.92024  0.54968  1.0000
  S   S744      1.0  0.96812  0.95789  0.65850  1.0000
  H   H4362     1.0  0.64259  0.80251  0.82720  1.0000
  H   H4363     1.0  0.51306  0.82429  0.62573  1.0000
  H   H4364     1.0  0.59893  0.79005  0.84516  1.0000
  H   H4365     1.0  0.70426  0.86509  0.49797  1.0000
  H   H4366     1.0  0.87305  0.90471  0.87127  1.0000
  H   H4367     1.0  0.50957  0.89726  0.61658  1.0000
  C   C5447     1.0  0.50439  0.92336  0.65425  1.0000
  C   C5448     1.0  0.93959  0.79971  0.93643  1.0000
  C   C5449     1.0  0.68934  0.85375  0.83821  1.0000
  H   H4368     1.0  0.55497  0.92615  0.61255  1.0000
  C   C5450     1.0  0.82895  0.95678  0.63253  1.0000
  C   C5451     1.0  0.54501  0.94373  0.58601  1.0000
  H   H4369     1.0  0.86656  0.84997  0.47991  1.0000
  C   C5452     1.0  0.82436  0.96529  0.94996  1.0000
  C   C5453     1.0  0.92997  0.81521  0.90466  1.0000
  P   P183      1.0  0.93506  0.79714  0.96316  1.0000
  H   H4370     1.0  0.71006  0.86326  0.74571  1.0000
  C   C5454     1.0  0.67512  0.91964  0.80594  1.0000
  H   H4371     1.0  0.70660  0.82153  0.81362  1.0000
  H   H4372     1.0  0.61191  0.82519  0.96646  1.0000
  H   H4373     1.0  0.96106  0.86318  0.48561  1.0000
  C   C5455     1.0  0.65067  0.84084  0.51059  1.0000
  H   H4374     1.0  0.60532  0.83243  0.55090  1.0000
  H   H4375     1.0  0.63432  0.92053  0.78717  1.0000
  H   H4376     1.0  0.97111  0.80227  0.59827  1.0000
  H   H4377     1.0  0.56756  0.84383  0.91314  1.0000
  H   H4378     1.0  0.66651  0.86175  0.75341  1.0000
  C   C5456     1.0  0.75852  0.82039  0.91638  1.0000
  H   H4379     1.0  0.60237  0.78613  0.93325  1.0000
  C   C5457     1.0  0.85510  0.93455  0.86735  1.0000
  C   C5458     1.0  0.58090  0.93951  0.81710  1.0000
  C   C5459     1.0  0.50513  0.79528  0.95057  1.0000
  C   C5460     1.0  0.77175  0.81886  0.89798  1.0000
  C   C5461     1.0  0.72854  0.90158  0.60027  1.0000
  C   C5462     1.0  0.83700  0.89932  0.97028  1.0000
  C   C5463     1.0  0.75610  0.86894  0.61565  1.0000
  H   H4380     1.0  0.78594  0.82415  0.89436  1.0000
  C   C5464     1.0  0.79727  0.94734  0.85878  1.0000
  C   C5465     1.0  0.81123  0.93875  0.84357  1.0000
  C   C5466     1.0  0.82277  0.91940  0.84810  1.0000
  C   C5467     1.0  0.82042  0.90869  0.86779  1.0000
  C   C5468     1.0  0.80696  0.91764  0.88298  1.0000
  C   C5469     1.0  0.79525  0.93680  0.87845  1.0000
  H   H4381     1.0  0.81290  0.94684  0.82833  1.0000
  H   H4382     1.0  0.83334  0.91263  0.83633  1.0000
  H   H4383     1.0  0.80557  0.90986  0.89824  1.0000
  H   H4384     1.0  0.78456  0.94349  0.89022  1.0000
  H   H4385     1.0  0.72344  0.88170  0.58402  1.0000
  C   C5470     1.0  0.50216  0.87075  0.63676  1.0000
  C   C5471     1.0  0.67775  0.85096  0.85779  1.0000
  C   C5472     1.0  0.68181  0.94129  0.48016  1.0000
  H   H4386     1.0  0.95023  0.80512  0.87890  1.0000
  C   C5473     1.0  0.76484  0.90435  0.52567  1.0000
  H   H4387     1.0  0.91904  0.82500  0.89631  1.0000
  C   C5474     1.0  0.79293  0.92168  0.52006  1.0000
  C   C5475     1.0  0.79373  0.91566  0.54025  1.0000
  C   C5476     1.0  0.77996  0.90418  0.55307  1.0000
  C   C5477     1.0  0.76537  0.89889  0.54589  1.0000
  C   C5478     1.0  0.70938  0.85420  0.76059  1.0000
  C   C5479     1.0  0.58568  0.80391  0.89017  1.0000
  H   H4388     1.0  0.78086  0.89900  0.56857  1.0000
  H   H4389     1.0  0.75495  0.88987  0.55587  1.0000
  C   C5480     1.0  0.60198  0.95751  0.75306  1.0000
  H   H4390     1.0  0.72052  0.80031  0.91056  1.0000
  P   P184      1.0  0.67732  0.85918  0.81714  1.0000
  C   C5481     1.0  0.52281  0.91397  0.66000  1.0000
  H   H4391     1.0  0.65415  0.94335  0.79165  1.0000
  H   H4392     1.0  0.80103  0.85127  0.48979  1.0000
  C   C5482     1.0  0.65556  0.84701  0.82483  1.0000
  C   C5483     1.0  0.51611  0.93670  0.68298  1.0000
  C   C5484     1.0  0.52878  0.92068  0.67432  1.0000
  H   H4393     1.0  0.52066  0.94189  0.69405  1.0000
  H   H4394     1.0  0.54294  0.91337  0.67894  1.0000
  C   C5485     1.0  0.63369  0.86210  0.70287  1.0000
  C   C5486     1.0  0.63270  0.88276  0.69994  1.0000
  C   C5487     1.0  0.64815  0.88999  0.70406  1.0000
  C   C5488     1.0  0.66492  0.87654  0.71035  1.0000
  C   C5489     1.0  0.66584  0.85595  0.71313  1.0000
  C   C5490     1.0  0.65011  0.84877  0.70976  1.0000
  H   H4395     1.0  0.61989  0.89312  0.69480  1.0000
  H   H4396     1.0  0.64723  0.90591  0.70202  1.0000
  H   H4397     1.0  0.67871  0.84554  0.71804  1.0000
  H   H4398     1.0  0.65082  0.83286  0.71204  1.0000
  C   C5491     1.0  0.61418  0.94618  0.61138  1.0000
  C   C5492     1.0  0.59346  0.94790  0.61213  1.0000
  C   C5493     1.0  0.58136  0.96681  0.60714  1.0000
  C   C5494     1.0  0.67881  0.80222  0.77044  1.0000
  H   H4399     1.0  0.64976  0.79339  0.73426  1.0000
  C   C5495     1.0  0.62279  0.96336  0.60561  1.0000
  H   H4400     1.0  0.58677  0.93467  0.61669  1.0000
  H   H4401     1.0  0.56528  0.96817  0.60807  1.0000
  H   H4402     1.0  0.63022  0.87446  0.54126  1.0000
  H   H4403     1.0  0.63880  0.96207  0.60504  1.0000
  C   C5496     1.0  0.63722  0.85614  0.83586  1.0000
  H   H4404     1.0  0.68427  0.92963  0.80714  1.0000
  C   C5497     1.0  0.61166  0.80716  0.59186  1.0000
  C   C5498     1.0  0.60425  0.82154  0.60406  1.0000
  C   C5499     1.0  0.58334  0.82624  0.61175  1.0000
  H   H4405     1.0  0.55380  0.82087  0.61275  1.0000
  C   C5500     1.0  0.51386  0.93926  0.80297  1.0000
  H   H4406     1.0  0.62085  0.81069  0.93605  1.0000
  S   S745      1.0  0.85995  0.80493  0.94687  1.0000
  C   C5501     1.0  0.60679  0.80280  0.88804  1.0000
  C   C5502     1.0  0.54094  0.89136  0.75229  1.0000
  H   H4407     1.0  0.65483  0.79237  0.79397  1.0000
  H   H4408     1.0  0.80697  0.87112  0.54038  1.0000
  S   S746      1.0  0.74676  0.89629  0.51750  1.0000
  C   C5503     1.0  0.99027  0.80985  0.96119  1.0000
  C   C5504     1.0  0.50378  0.92750  0.79705  1.0000
  H   H4409     1.0  0.55670  0.92146  0.79111  1.0000
  H   H4410     1.0  0.52472  0.86387  0.88316  1.0000
  H   H4411     1.0  0.67097  0.88831  0.50088  1.0000
  H   H4412     1.0  0.55341  0.81870  0.78188  1.0000
  H   H4413     1.0  0.85287  0.95664  0.64657  1.0000
  H   H4414     1.0  0.54091  0.88302  0.80159  1.0000
  C   C5505     1.0  0.64692  0.84471  0.54982  1.0000
  C   C5506     1.0  0.74797  0.80400  0.88856  1.0000
  H   H4415     1.0  0.60735  0.92332  0.82879  1.0000
  S   S747      1.0  0.67417  0.92352  0.74827  1.0000
  H   H4416     1.0  0.65241  0.83975  0.49523  1.0000
  C   C5507     1.0  0.97104  0.81081  0.95768  1.0000
  H   H4417     1.0  0.54554  0.80804  0.95974  1.0000
  S   S748      1.0  0.65890  0.94330  0.70552  1.0000
  C   C5508     1.0  0.53740  0.90788  0.58111  1.0000
  C   C5509     1.0  0.56990  0.81709  0.60679  1.0000
  H   H4418     1.0  0.86924  0.90160  0.90758  1.0000
  C   C5510     1.0  0.61175  0.78787  0.81443  1.0000
  H   H4419     1.0  0.90876  0.95242  0.66104  1.0000
  C   C5511     1.0  0.98164  0.80333  0.60678  1.0000
  C   C5512     1.0  0.73323  0.96720  0.60271  1.0000
  H   H4420     1.0  0.67123  0.81990  0.81359  1.0000
  C   C5513     1.0  0.56895  0.82000  0.77445  1.0000
  C   C5514     1.0  0.57228  0.86596  0.83530  1.0000
  C   C5515     1.0  0.56762  0.88592  0.77792  1.0000
  C   C5516     1.0  0.82537  0.97718  0.65689  1.0000
  C   C5517     1.0  0.57146  0.81857  0.89950  1.0000
  H   H4421     1.0  0.57924  0.84189  0.79707  1.0000
  C   C5518     1.0  0.70733  0.83086  0.79890  1.0000
  C   C5519     1.0  0.76648  0.81068  0.88414  1.0000
  H   H4422     1.0  0.80295  0.96091  0.61959  1.0000
  C   C5520     1.0  0.56154  0.89181  0.74446  1.0000
  H   H4423     1.0  0.77673  0.80970  0.86989  1.0000
  C   C5521     1.0  0.62277  0.82690  0.84018  1.0000
  P   P185      1.0  0.73380  0.92743  0.62164  1.0000
  C   C5522     1.0  0.75019  0.92789  0.63755  1.0000
  C   C5523     1.0  0.73931  0.94716  0.60054  1.0000
  C   C5524     1.0  0.75196  0.94258  0.58265  1.0000
  C   C5525     1.0  0.91546  0.81779  0.97071  1.0000
  C   C5526     1.0  0.77142  0.92388  0.63072  1.0000
  C   C5527     1.0  0.78431  0.92518  0.64246  1.0000
  C   C5528     1.0  0.77610  0.93104  0.66082  1.0000
  C   C5529     1.0  0.70748  0.92998  0.63459  1.0000
  C   C5530     1.0  0.70177  0.91482  0.65069  1.0000
  C   C5531     1.0  0.68126  0.91495  0.65951  1.0000
  C   C5532     1.0  0.59830  0.79203  0.94681  1.0000
  C   C5533     1.0  0.65722  0.82769  0.82149  1.0000
  C   C5534     1.0  0.69232  0.94545  0.62770  1.0000
  H   H4424     1.0  0.71763  0.91403  0.59442  1.0000
  H   H4425     1.0  0.75780  0.92725  0.58093  1.0000
  C   C5535     1.0  0.57319  0.84170  0.55141  1.0000
  S   S749      1.0  0.78194  0.97110  0.85379  1.0000
  C   C5536     1.0  0.69242  0.93537  0.49560  1.0000
  H   H4426     1.0  0.78609  0.93238  0.66977  1.0000
  H   H4427     1.0  0.71318  0.90268  0.65625  1.0000
  H   H4428     1.0  0.67706  0.90306  0.67176  1.0000
  H   H4429     1.0  0.61776  0.79125  0.88125  1.0000
  C   C5537     1.0  0.64007  0.88512  0.75762  1.0000
  H   H4430     1.0  0.53062  0.89388  0.74234  1.0000
  C   C5538     1.0  0.71862  0.95524  0.81149  1.0000
  H   H4431     1.0  0.58153  0.79121  0.78964  1.0000
  C   C5539     1.0  0.74324  0.96534  0.82392  1.0000
  C   C5540     1.0  0.75487  0.94597  0.82514  1.0000
  C   C5541     1.0  0.74877  0.93119  0.81899  1.0000
  C   C5542     1.0  0.73007  0.93574  0.81298  1.0000
  P   P186      1.0  0.76495  0.90670  0.81957  1.0000
  C   C5543     1.0  0.79088  0.90954  0.80809  1.0000
  C   C5544     1.0  0.76249  0.89487  0.84550  1.0000
  C   C5545     1.0  0.77645  0.89590  0.85628  1.0000
  C   C5546     1.0  0.77526  0.88573  0.87598  1.0000
  C   C5547     1.0  0.75971  0.87500  0.88534  1.0000
  C   C5548     1.0  0.74514  0.87471  0.87501  1.0000
  C   C5549     1.0  0.74641  0.88472  0.85518  1.0000
  C   C5550     1.0  0.80723  0.89430  0.81287  1.0000
  C   C5551     1.0  0.82731  0.89675  0.80446  1.0000
  C   C5552     1.0  0.83119  0.91428  0.79099  1.0000
  C   C5553     1.0  0.81502  0.92922  0.78564  1.0000
  C   C5554     1.0  0.79493  0.92680  0.79400  1.0000
  C   C5555     1.0  0.75918  0.89096  0.80580  1.0000
  C   C5556     1.0  0.75233  0.89922  0.78800  1.0000
  C   C5557     1.0  0.74809  0.88696  0.77734  1.0000
  C   C5558     1.0  0.75139  0.86624  0.78395  1.0000
  C   C5559     1.0  0.75912  0.85776  0.80116  1.0000
  C   C5560     1.0  0.76304  0.87005  0.81203  1.0000
  H   H4432     1.0  0.70482  0.95900  0.80574  1.0000
  C   C5561     1.0  0.69409  0.96994  0.49363  1.0000
  H   H4433     1.0  0.68230  0.80523  0.72109  1.0000
  H   H4434     1.0  0.76888  0.94268  0.83052  1.0000
  H   H4435     1.0  0.72445  0.92451  0.80903  1.0000
  H   H4436     1.0  0.78841  0.90440  0.84951  1.0000
  H   H4437     1.0  0.78654  0.88611  0.88389  1.0000
  H   H4438     1.0  0.75894  0.86700  0.90061  1.0000
  H   H4439     1.0  0.73295  0.86662  0.88244  1.0000
  H   H4440     1.0  0.73499  0.88441  0.84735  1.0000
  H   H4441     1.0  0.80452  0.88069  0.82339  1.0000
  H   H4442     1.0  0.83985  0.88521  0.80870  1.0000
  H   H4443     1.0  0.84673  0.91635  0.78471  1.0000
  H   H4444     1.0  0.81807  0.94281  0.77517  1.0000
  H   H4445     1.0  0.78263  0.93852  0.78956  1.0000
  H   H4446     1.0  0.75030  0.91513  0.78224  1.0000
  H   H4447     1.0  0.74242  0.89363  0.76379  1.0000
  H   H4448     1.0  0.74820  0.85678  0.77557  1.0000
  H   H4449     1.0  0.76204  0.84166  0.80612  1.0000
  H   H4450     1.0  0.76932  0.86317  0.82515  1.0000
  H   H4451     1.0  0.58044  0.95310  0.82197  1.0000
  C   C5562     1.0  0.85039  0.93088  0.90834  1.0000
  H   H4452     1.0  0.66146  0.85201  0.86082  1.0000
  S   S750      1.0  0.75391  0.86549  0.47695  1.0000
  C   C5563     1.0  0.62100  0.84604  0.84363  1.0000
  C   C5564     1.0  0.74205  0.93395  0.65592  1.0000
  C   C5565     1.0  0.57715  0.80321  0.59412  1.0000
  C   C5566     1.0  0.58285  0.90474  0.80333  1.0000
  H   H4453     1.0  0.72574  0.93793  0.66118  1.0000
  P   P187      1.0  0.53195  0.88474  0.57861  1.0000
  H   H4454     1.0  0.62474  0.79325  0.48119  1.0000
  C   C5567     1.0  0.65256  0.89382  0.80108  1.0000
  H   H4455     1.0  0.57283  0.83025  0.54371  1.0000
  H   H4456     1.0  0.69413  0.89324  0.81876  1.0000
  C   C5568     1.0  0.57840  0.83245  0.90597  1.0000
  H   H4457     1.0  0.98197  0.81520  0.65038  1.0000
  C   C5569     1.0  0.84036  0.94828  0.89738  1.0000
  H   H4458     1.0  0.58038  0.79339  0.88482  1.0000
  C   C5570     1.0  0.59701  0.90542  0.81409  1.0000
  C   C5571     1.0  0.62006  0.94241  0.55903  1.0000
  C   C5572     1.0  0.60541  0.93035  0.56505  1.0000
  C   C5573     1.0  0.61119  0.90973  0.57124  1.0000
  C   C5574     1.0  0.63146  0.90119  0.57230  1.0000
  C   C5575     1.0  0.64626  0.91323  0.56651  1.0000
  C   C5576     1.0  0.64048  0.93383  0.55926  1.0000
  P   P188      1.0  0.67277  0.90194  0.56595  1.0000
  C   C5577     1.0  0.67480  0.88265  0.58799  1.0000
  C   C5578     1.0  0.68270  0.89042  0.54425  1.0000
  C   C5579     1.0  0.67164  0.89436  0.52917  1.0000
  C   C5580     1.0  0.67934  0.88509  0.51264  1.0000
  C   C5581     1.0  0.58985  0.98403  0.60187  1.0000
  H   H4459     1.0  0.69756  0.79273  0.47651  1.0000
  C   C5582     1.0  0.70148  0.87698  0.54254  1.0000
  C   C5583     1.0  0.67308  0.86312  0.58802  1.0000
  C   C5584     1.0  0.67482  0.84803  0.60486  1.0000
  C   C5585     1.0  0.67856  0.85223  0.62173  1.0000
  C   C5586     1.0  0.68013  0.87163  0.62192  1.0000
  C   C5587     1.0  0.67808  0.88682  0.60522  1.0000
  C   C5588     1.0  0.68683  0.92073  0.56565  1.0000
  C   C5589     1.0  0.67867  0.93462  0.57830  1.0000
  C   C5590     1.0  0.68925  0.94933  0.57792  1.0000
  C   C5591     1.0  0.70804  0.95042  0.56487  1.0000
  C   C5592     1.0  0.71644  0.93651  0.55243  1.0000
  C   C5593     1.0  0.70585  0.92177  0.55280  1.0000
  H   H4460     1.0  0.61555  0.95842  0.55435  1.0000
  H   H4461     1.0  0.58955  0.93699  0.56506  1.0000
  H   H4462     1.0  0.59984  0.90040  0.57566  1.0000
  H   H4463     1.0  0.63549  0.88525  0.57772  1.0000
  H   H4464     1.0  0.65165  0.94333  0.55394  1.0000
  H   H4465     1.0  0.65720  0.90472  0.52995  1.0000
  H   H4466     1.0  0.69702  0.82770  0.48252  1.0000
  C   C5594     1.0  0.65758  0.82692  0.54357  1.0000
  C   C5595     1.0  0.50887  0.86606  0.88239  1.0000
  H   H4467     1.0  0.71042  0.87387  0.55381  1.0000
  H   H4468     1.0  0.67010  0.85955  0.57516  1.0000
  H   H4469     1.0  0.67273  0.83318  0.60503  1.0000
  H   H4470     1.0  0.67943  0.84065  0.63493  1.0000
  H   H4471     1.0  0.68226  0.87509  0.63526  1.0000
  H   H4472     1.0  0.67873  0.90175  0.60614  1.0000
  H   H4473     1.0  0.66403  0.93414  0.58841  1.0000
  H   H4474     1.0  0.68261  0.96018  0.58747  1.0000
  C   C5596     1.0  0.95906  0.79679  0.96906  1.0000
  H   H4475     1.0  0.73114  0.93716  0.54238  1.0000
  H   H4476     1.0  0.71250  0.91138  0.54288  1.0000
  C   C5597     1.0  0.59171  0.85662  0.56670  1.0000
  H   H4477     1.0  0.51106  0.82280  0.95401  1.0000
  C   C5598     1.0  0.55539  0.86881  0.56898  1.0000
  C   C5599     1.0  0.57376  0.86940  0.57354  1.0000
  C   C5600     1.0  0.52027  0.87139  0.60239  1.0000
  H   H4478     1.0  0.69902  0.91694  0.95882  1.0000
  H   H4479     1.0  0.62783  0.80345  0.58588  1.0000
  H   H4480     1.0  0.87191  0.81203  0.90358  1.0000
  S   S751      1.0  0.84438  0.98137  0.76294  1.0000
  P   P189      1.0  0.67434  0.80241  0.51557  1.0000
  H   H4481     1.0  0.60557  0.85665  0.57107  1.0000
  H   H4482     1.0  0.57430  0.87919  0.58290  1.0000
  H   H4483     1.0  0.52792  0.84271  0.59316  1.0000
  H   H4484     1.0  0.62841  0.98038  0.71780  1.0000
  C   C5601     1.0  0.59611  0.92278  0.82085  1.0000
  C   C5602     1.0  0.69618  0.86166  0.77684  1.0000
  H   H4485     1.0  0.56354  0.85277  0.86639  1.0000
  C   C5603     1.0  0.61065  0.87542  0.78207  1.0000
  H   H4486     1.0  0.51560  0.90057  0.51186  1.0000
  H   H4487     1.0  0.81216  0.92805  0.92875  1.0000
  C   C5604     1.0  0.73484  0.80534  0.90701  1.0000
  C   C5605     1.0  0.60518  0.80554  0.76921  1.0000
  P   P190      1.0  0.82356  0.96741  0.91019  1.0000
  C   C5606     1.0  0.79925  0.95960  0.92041  1.0000
  C   C5607     1.0  0.96130  0.79092  0.90568  1.0000
  H   H4488     1.0  0.80404  0.92989  0.51000  1.0000
  C   C5608     1.0  0.66691  0.79861  0.49437  1.0000
  S   S752      1.0  0.87979  0.97800  0.48503  1.0000
  H   H4489     1.0  0.86788  0.87226  0.51253  1.0000
  C   C5609     1.0  0.69812  0.87191  0.51099  1.0000
  C   C5610     1.0  0.53720  0.94354  0.56975  1.0000
  H   H4490     1.0  0.89104  0.80583  0.96682  1.0000
  C   C5611     1.0  0.76158  0.94731  0.93548  1.0000
  C   C5612     1.0  0.77969  0.93327  0.93572  1.0000
  C   C5613     1.0  0.79844  0.93934  0.92832  1.0000
  H   H4491     1.0  0.68704  0.80451  0.78053  1.0000
  C   C5614     1.0  0.52066  0.85082  0.60512  1.0000
  C   C5615     1.0  0.73170  0.88323  0.59447  1.0000
  C   C5616     1.0  0.60914  0.82305  0.75547  1.0000
  H   H4492     1.0  0.72454  0.97089  0.61683  1.0000
  S   S753      1.0  0.84838  0.98059  0.58207  1.0000
  C   C5617     1.0  0.54921  0.92606  0.59971  1.0000
  C   C5618     1.0  0.54560  0.90821  0.59716  1.0000
  C   C5619     1.0  0.58293  0.78568  0.96274  1.0000
  C   C5620     1.0  0.80247  0.85978  0.51655  1.0000
  C   C5621     1.0  0.72953  0.90056  0.95958  1.0000
  H   H4493     1.0  0.63361  0.87106  0.50642  1.0000
  C   C5622     1.0  0.51497  0.89020  0.56162  1.0000
  S   S754      1.0  0.62465  0.96216  0.75637  1.0000
  H   H4494     1.0  0.95811  0.81116  0.63169  1.0000
  C   C5623     1.0  0.69864  0.94959  0.50220  1.0000
  C   C5624     1.0  0.78092  0.97371  0.92070  1.0000
  H   H4495     1.0  0.83848  0.94653  0.62311  1.0000
  H   H4496     1.0  0.74710  0.94247  0.94110  1.0000
  H   H4497     1.0  0.77930  0.91757  0.94147  1.0000
  H   H4498     1.0  0.87880  0.97516  0.64995  1.0000
  C   C5625     1.0  0.61060  0.98229  0.60107  1.0000
  H   H4499     1.0  0.84855  0.92900  0.92431  1.0000
  S   S755      1.0  0.55941  0.79376  0.58671  1.0000
  C   C5626     1.0  0.68726  0.84580  0.87399  1.0000
  C   C5627     1.0  0.70836  0.84353  0.87083  1.0000
  C   C5628     1.0  0.71999  0.84660  0.85147  1.0000
  C   C5629     1.0  0.71051  0.85189  0.83521  1.0000
  H   H4500     1.0  0.67827  0.84291  0.88901  1.0000
  H   H4501     1.0  0.71572  0.83900  0.88341  1.0000
  H   H4502     1.0  0.73642  0.84432  0.84914  1.0000
  H   H4503     1.0  0.71970  0.85416  0.82032  1.0000
  C   C5630     1.0  0.88678  0.89026  0.51677  1.0000
  C   C5631     1.0  0.89527  0.90741  0.50927  1.0000
  H   H4504     1.0  0.52965  0.96203  0.64839  1.0000
  C   C5632     1.0  0.65786  0.79563  0.74451  1.0000
  C   C5633     1.0  0.58497  0.80439  0.77888  1.0000
  C   C5634     1.0  0.72950  0.95955  0.75748  1.0000
  C   C5635     1.0  0.57485  0.88907  0.75718  1.0000
  H   H4505     1.0  0.80068  0.92196  0.63714  1.0000
  H   H4506     1.0  0.62443  0.82473  0.74773  1.0000
  H   H4507     1.0  0.68690  0.87647  0.77413  1.0000
  H   H4508     1.0  0.64075  0.79316  0.54958  1.0000
  H   H4509     1.0  0.60433  0.84269  0.90835  1.0000
  C   C5636     1.0  0.65106  0.86563  0.76163  1.0000
  C   C5637     1.0  0.51045  0.88137  0.61823  1.0000
  C   C5638     1.0  0.64691  0.91448  0.79476  1.0000
  C   C5639     1.0  0.65816  0.92740  0.79722  1.0000
  H   H4510     1.0  0.76673  0.85626  0.62165  1.0000
  H   H4511     1.0  0.96561  0.82228  0.94588  1.0000
  C   C5640     1.0  0.56711  0.85053  0.85118  1.0000
  H   H4512     1.0  0.85649  0.93565  0.85156  1.0000
  C   C5641     1.0  0.82675  0.88087  0.51264  1.0000
  H   H4513     1.0  0.64425  0.88396  0.79831  1.0000
  H   H4514     1.0  0.66859  0.97111  0.52919  1.0000
  H   H4515     1.0  0.89008  0.88043  0.53040  1.0000
  H   H4516     1.0  0.90500  0.91103  0.51714  1.0000
  C   C5642     1.0  0.56754  0.92151  0.79971  1.0000
  S   S756      1.0  0.79133  0.97973  0.79455  1.0000
  C   C5643     1.0  0.72046  0.82342  0.78261  1.0000
  H   H4517     1.0  0.64702  0.89634  0.74628  1.0000
  C   C5644     1.0  0.70916  0.86786  0.52593  1.0000
  H   H4518     1.0  0.75923  0.94448  0.76286  1.0000
  C   C5645     1.0  0.69493  0.84998  0.79614  1.0000
  C   C5646     1.0  0.64015  0.85868  0.51685  1.0000
  C   C5647     1.0  0.68068  0.89898  0.81247  1.0000
  H   H4519     1.0  0.74857  0.94047  0.68153  1.0000
  H   H4520     1.0  0.77799  0.91992  0.61623  1.0000
  H   H4521     1.0  0.84219  0.78884  0.92014  1.0000
  H   H4522     1.0  0.52706  0.92603  0.55474  1.0000
  C   C5648     1.0  0.92588  0.81296  0.92536  1.0000
  C   C5649     1.0  0.74010  0.81353  0.92083  1.0000
  C   C5650     1.0  0.62004  0.89008  0.76795  1.0000
  H   H4523     1.0  0.76068  0.88828  0.63259  1.0000
  C   C5651     1.0  0.58391  0.93962  0.74013  1.0000
  C   C5652     1.0  0.95748  0.78886  0.92635  1.0000
  S   S757      1.0  0.67853  0.96972  0.72621  1.0000
  C   C5653     1.0  0.89431  0.95456  0.67156  1.0000
  C   C5654     1.0  0.89282  0.94472  0.69139  1.0000
  C   C5655     1.0  0.87425  0.94763  0.70498  1.0000
  H   H4524     1.0  0.75472  0.81777  0.49868  1.0000
  H   H4525     1.0  0.85990  0.97121  0.97238  1.0000
  C   C5656     1.0  0.57722  0.86281  0.81563  1.0000
  H   H4526     1.0  0.55489  0.95180  0.80360  1.0000
  S   S758      1.0  0.52200  0.81762  0.85997  1.0000
  C   C5657     1.0  0.67176  0.94549  0.63654  1.0000
  C   C5658     1.0  0.59309  0.83875  0.75118  1.0000
  H   H4527     1.0  0.58422  0.92872  0.73153  1.0000
  C   C5659     1.0  0.86450  0.91709  0.87845  1.0000
  S   S759      1.0  0.63954  0.81683  0.89249  1.0000
  C   C5660     1.0  0.88011  0.79304  0.93030  1.0000
  C   C5661     1.0  0.56650  0.93877  0.80675  1.0000
  H   H4528     1.0  0.74817  0.85278  0.59739  1.0000
  H   H4529     1.0  0.65027  0.93006  0.65902  1.0000
  C   C5662     1.0  0.66922  0.88594  0.81036  1.0000
  C   C5663     1.0  0.54689  0.88538  0.78567  1.0000
  C   C5664     1.0  0.87730  0.96748  0.66533  1.0000
  C   C5665     1.0  0.83712  0.96271  0.64580  1.0000
  C   C5666     1.0  0.74560  0.86695  0.60203  1.0000
  C   C5667     1.0  0.75280  0.88724  0.62165  1.0000
  S   S760      1.0  0.51993  0.98311  0.71050  1.0000
  H   H4530     1.0  0.54892  0.89466  0.60796  1.0000
  C   C5668     1.0  0.81181  0.87039  0.52475  1.0000
  H   H4531     1.0  0.90612  0.93498  0.69623  1.0000
  H   H4532     1.0  0.87314  0.94017  0.72042  1.0000
  H   H4533     1.0  0.50607  0.92731  0.78134  1.0000
  H   H4534     1.0  0.65066  0.83611  0.77924  1.0000
  C   C5669     1.0  0.82380  0.86919  0.48425  1.0000
  C   C5670     1.0  0.72146  0.83508  0.76345  1.0000
  C   C5671     1.0  0.64206  0.85112  0.77606  1.0000
  H   H4535     1.0  0.69618  0.95737  0.61544  1.0000
  H   H4536     1.0  0.61171  0.90527  0.76464  1.0000
  C   C5672     1.0  0.53365  0.88800  0.77289  1.0000
  C   C5673     1.0  0.58326  0.96702  0.76302  1.0000
  S   S761      1.0  0.54257  0.94146  0.75097  1.0000
  C   C5674     1.0  0.77293  0.96491  0.49276  1.0000
  S   S762      1.0  0.82157  0.96985  0.50852  1.0000
  C   C5675     1.0  0.77862  0.91582  0.51270  1.0000
  Fe  Fe374     1.0  0.52988  0.80371  0.88971  1.0000
  H   H4537     1.0  0.51902  0.94855  0.82775  1.0000
  Fe  Fe375     1.0  0.69904  0.94127  0.73671  1.0000
  Fe  Fe376     1.0  0.85167  0.97590  0.50949  1.0000
  S   S763      1.0  0.68918  0.80153  0.85626  1.0000
  C   C5676     1.0  0.86224  0.91530  0.89892  1.0000
  H   H4538     1.0  0.56058  0.84911  0.75676  1.0000
  H   H4539     1.0  0.74837  0.97676  0.82821  1.0000
  H   H4540     1.0  0.73154  0.82930  0.75079  1.0000
  H   H4541     1.0  0.60715  0.80371  0.80902  1.0000
  H   H4542     1.0  0.61665  0.93655  0.73361  1.0000
  C   C5677     1.0  0.57300  0.83713  0.76046  1.0000
  S   S764      1.0  0.72373  0.93788  0.75355  1.0000
  C   C5678     1.0  0.85721  0.96056  0.69881  1.0000
  C   C5679     1.0  0.61357  0.81685  0.89460  1.0000
  C   C5680     1.0  0.56519  0.94912  0.75017  1.0000
  Fe  Fe377     1.0  0.53309  0.78664  0.85380  1.0000
  H   H4543     1.0  0.71600  0.96208  0.56437  1.0000
  H   H4544     1.0  0.70118  0.97890  0.75261  1.0000
  C   C5681     1.0  0.62194  0.85592  0.78627  1.0000
  C   C5682     1.0  0.80893  0.96497  0.63047  1.0000
  C   C5683     1.0  0.59925  0.83179  0.90326  1.0000
  H   H4545     1.0  0.61032  0.81899  0.84665  1.0000
  H   H4546     1.0  0.83274  0.89007  0.51911  1.0000
  C   C5684     1.0  0.88256  0.79945  0.90968  1.0000
  C   C5685     1.0  0.64972  0.79225  0.76508  1.0000
  H   H4547     1.0  0.70764  0.94463  0.51355  1.0000
  H   H4548     1.0  0.56966  0.81495  0.82518  1.0000
  C   C5686     1.0  0.66622  0.93018  0.65236  1.0000
  H   H4549     1.0  0.61543  0.84435  0.79734  1.0000
  C   C5687     1.0  0.70693  0.82001  0.49278  1.0000
  C   C5688     1.0  0.60228  0.94404  0.74131  1.0000
  C   C5689     1.0  0.80846  0.85920  0.49629  1.0000
  H   H4550     1.0  0.70780  0.78780  0.53732  1.0000
  C   C5690     1.0  0.56492  0.96296  0.76147  1.0000
  Fe  Fe378     1.0  0.83992  0.97910  0.55337  1.0000
  C   C5691     1.0  0.84296  0.95005  0.87674  1.0000
  C   C5692     1.0  0.64088  0.81770  0.82916  1.0000
  H   H4551     1.0  0.57243  0.88015  0.83856  1.0000
  C   C5693     1.0  0.57596  0.84442  0.81211  1.0000
  C   C5694     1.0  0.57070  0.82910  0.82800  1.0000
  Fe  Fe379     1.0  0.65400  0.95129  0.73566  1.0000
  H   H4552     1.0  0.72977  0.81468  0.93502  1.0000
  C   C5695     1.0  0.99652  0.96101  0.62318  1.0000
  H   H4553     1.0  0.56276  0.82005  0.85980  1.0000
  H   H4554     1.0  0.72985  0.89179  0.94880  1.0000
  C   C5696     1.0  0.66101  0.98503  0.55453  1.0000
  C   C5697     1.0  0.74663  0.89787  0.96762  1.0000
  P   P191      1.0  0.58453  0.88215  0.79476  1.0000
  H   H4555     1.0  0.78924  0.95972  0.49030  1.0000
  Fe  Fe380     1.0  0.82364  0.94966  0.53811  1.0000
  H   H4556     1.0  0.77107  0.97391  0.52014  1.0000
  C   C5698     1.0  0.56662  0.83204  0.84751  1.0000
  H   H4557     1.0  0.59066  0.88951  0.75056  1.0000
  H   H4558     1.0  0.49969  0.91823  0.64325  1.0000
  H   H4559     1.0  0.66455  0.81491  0.55402  1.0000
  H   H4560     1.0  0.60878  0.89249  0.81719  1.0000
  Fe  Fe381     1.0  0.51628  0.96482  0.74154  1.0000
  C   C5699     1.0  0.72532  0.97008  0.81674  1.0000
  C   C5700     1.0  0.74814  0.95828  0.76252  1.0000
  S   S765      1.0  0.80862  0.97342  0.55606  1.0000
  C   C5701     1.0  0.86887  0.89901  0.48953  1.0000
  C   C5702     1.0  0.85485  0.97204  0.92564  1.0000
  C   C5703     1.0  0.53334  0.92571  0.56730  1.0000
  H   H4561     1.0  0.77821  0.97988  0.72713  1.0000
  C   C5704     1.0  0.63832  0.86063  0.53643  1.0000
  C   C5705     1.0  0.59814  0.79795  0.58694  1.0000
  H   H4562     1.0  0.80246  0.97107  0.69692  1.0000
  C   C5706     1.0  0.76258  0.97279  0.50970  1.0000
  H   H4563     1.0  0.83526  0.96299  0.86785  1.0000
  C   C5707     1.0  0.75796  0.95784  0.56698  1.0000
  Fe  Fe382     1.0  0.75271  0.89466  0.48519  1.0000
  H   H4564     1.0  0.80945  0.96146  0.95397  1.0000
  C   C5708     1.0  0.99164  0.95042  0.64263  1.0000
  H   H4565     1.0  0.87907  0.97613  0.93736  1.0000
  H   H4566     1.0  0.58298  0.97728  0.77226  1.0000
  H   H4567     1.0  0.77840  0.92001  0.49703  1.0000
  H   H4568     1.0  0.63501  0.80135  0.50878  1.0000
  C   C5709     1.0  0.94759  0.80410  0.89483  1.0000
  S   S766      1.0  0.70076  0.97725  0.66893  1.0000
  C   C5710     1.0  0.87393  0.98036  0.79628  1.0000
  H   H4569     1.0  0.84391  0.89037  0.95897  1.0000
  H   H4570     1.0  0.72399  0.85804  0.52439  1.0000
  H   H4571     1.0  0.64527  0.84606  0.56511  1.0000
  H   H4572     1.0  0.83841  0.93515  0.48183  1.0000
  H   H4573     1.0  0.69680  0.91966  0.50182  1.0000
  C   C5711     1.0  0.67297  0.98095  0.53625  1.0000
  C   C5712     1.0  0.71559  0.97775  0.75646  1.0000
  H   H4574     1.0  0.86415  0.83439  0.97545  1.0000
  H   H4575     1.0  0.76829  0.95404  0.55350  1.0000
  C   C5713     1.0  0.55112  0.97894  0.64970  1.0000
  H   H4576     1.0  0.66006  0.95734  0.63110  1.0000
  H   H4577     1.0  0.55058  0.96992  0.76965  1.0000
  C   C5714     1.0  0.67626  0.80239  0.73700  1.0000
  H   H4578     1.0  0.56309  0.96589  0.65180  1.0000
  Fe  Fe383     1.0  0.68553  0.95905  0.69728  1.0000
  H   H4579     1.0  0.73391  0.98506  0.52642  1.0000
  C   C5715     1.0  0.76219  0.96753  0.92797  1.0000
  H   H4580     1.0  0.87912  0.97083  0.73245  1.0000
  H   H4581     1.0  0.79028  0.85241  0.52579  1.0000
  C   C5716     1.0  0.76088  0.97986  0.97007  1.0000
  C   C5717     1.0  0.68666  0.80583  0.74995  1.0000
  C   C5718     1.0  0.74123  0.97048  0.48215  1.0000
  H   H4582     1.0  0.84315  0.96284  0.70974  1.0000
  C   C5719     1.0  0.75130  0.97782  0.56902  1.0000
  C   C5720     1.0  0.87392  0.88586  0.50675  1.0000
  C   C5721     1.0  0.71298  0.79758  0.52350  1.0000
  H   H4583     1.0  0.54616  0.98246  0.82402  1.0000
  H   H4584     1.0  0.53390  0.95728  0.55917  1.0000
  H   H4585     1.0  0.60382  0.78730  0.57714  1.0000
  C   C5722     1.0  0.98794  0.81032  0.63626  1.0000
  H   H4586     1.0  0.76701  0.97367  0.77094  1.0000
  C   C5723     1.0  0.68151  0.79363  0.47756  1.0000
  H   H4587     1.0  0.72962  0.80849  0.78488  1.0000
  C   C5724     1.0  0.72662  0.82384  0.48866  1.0000
  H   H4588     1.0  0.86850  0.97638  0.61387  1.0000
  H   H4589     1.0  0.66117  0.98051  0.65938  1.0000
  C   C5725     1.0  0.70013  0.80647  0.51000  1.0000
  C   C5726     1.0  0.85292  0.97063  0.96052  1.0000
  C   C5727     1.0  0.83322  0.87994  0.49237  1.0000
  C   C5728     1.0  0.75263  0.97487  0.76709  1.0000
  C   C5729     1.0  0.97435  0.80829  0.62561  1.0000
  C   C5730     1.0  0.68351  0.97585  0.47806  1.0000
  H   H4590     1.0  0.80187  0.98268  0.87764  1.0000
  C   C5731     1.0  0.76225  0.96358  0.47907  1.0000
  H   H4591     1.0  0.86346  0.97397  0.91042  1.0000
  C   C5732     1.0  0.85865  0.97070  0.67893  1.0000
  H   H4592     1.0  0.64783  0.97817  0.56156  1.0000
  C   C5733     1.0  0.83329  0.96659  0.96507  1.0000
  C   C5734     1.0  0.50057  0.88173  0.86852  1.0000
  C   C5735     1.0  0.66045  0.79535  0.77803  1.0000
  C   C5736     1.0  0.73265  0.80157  0.51938  1.0000
  C   C5737     1.0  0.51693  0.80701  0.95416  1.0000
  C   C5738     1.0  0.86373  0.97328  0.94081  1.0000
  C   C5739     1.0  0.73059  0.97839  0.49917  1.0000
  C   C5740     1.0  0.73890  0.98250  0.58688  1.0000
  C   C5741     1.0  0.64638  0.79848  0.49557  1.0000
  C   C5742     1.0  0.73950  0.81462  0.50191  1.0000
  H   H4593     1.0  0.87473  0.96712  0.79059  1.0000
  H   H4594     1.0  0.53880  0.89346  0.53507  1.0000
  C   C5743     1.0  0.60879  0.80610  0.94829  1.0000
  H   H4595     1.0  0.76023  0.88713  0.96302  1.0000
  H   H4596     1.0  0.52384  0.94808  0.79182  1.0000
  C   C5744     1.0  0.52266  0.89383  0.54097  1.0000
  C   C5745     1.0  0.74144  0.97932  0.51307  1.0000
  Fe  Fe384     1.0  0.66539  0.79223  0.88291  1.0000
  H   H4597     1.0  0.86003  0.96811  0.82621  1.0000
  C   C5746     1.0  0.50956  0.89793  0.52778  1.0000
  C   C5747     1.0  0.80360  0.98378  0.70239  1.0000
  C   C5748     1.0  0.53222  0.97676  0.64786  1.0000
  H   H4598     1.0  0.86524  0.90679  0.97102  1.0000
  C   C5749     1.0  0.50308  0.85019  0.63950  1.0000
  H   H4599     1.0  0.61749  0.97594  0.68899  1.0000
  H   H4600     1.0  0.51029  0.89152  0.85861  1.0000
  H   H4601     1.0  0.74812  0.97842  0.92781  1.0000
  C   C5750     1.0  0.80511  0.98512  0.65495  1.0000
  C   C5751     1.0  0.86559  0.98094  0.81633  1.0000
  S   S767      1.0  0.80018  0.88990  0.97056  1.0000
  H   H4602     1.0  0.50342  0.84045  0.90557  1.0000
  C   C5752     1.0  0.79688  0.97886  0.64194  1.0000
  C   C5753     1.0  0.53657  0.79853  0.95741  1.0000
  C   C5754     1.0  0.89507  0.81803  0.97090  1.0000
  H   H4603     1.0  0.80598  0.78605  0.93271  1.0000
  S   S768      1.0  0.74167  0.79449  0.87044  1.0000
  C   C5755     1.0  0.64049  0.79389  0.48000  1.0000
  C   C5756     1.0  0.60375  0.81426  0.96543  1.0000
  H   H4604     1.0  0.77667  0.98059  0.96363  1.0000
  H   H4605     1.0  0.89828  0.93295  0.48550  1.0000
  C   C5757     1.0  0.87849  0.91550  0.48147  1.0000
  H   H4606     1.0  0.90099  0.79478  0.88097  1.0000
  H   H4607     1.0  0.54167  0.78539  0.52251  1.0000
  C   C5758     1.0  0.87977  0.83422  0.97581  1.0000
  C   C5759     1.0  0.99770  0.79486  0.97604  1.0000
  C   C5760     1.0  0.92025  0.83386  0.97597  1.0000
  P   P192      1.0  0.85252  0.89327  0.47635  1.0000
  H   H4608     1.0  0.93576  0.83405  0.97613  1.0000
