data_image0
_chemical_formula_structural       CSHFeSHPHSC2SC2H2C2H2CFeCHC2H2CSC6HPH4C2H3C7H4C2H2C6H3PHCHFeHCHFeH3C2HCHCHCHCSH2C2HC3HCHC2H5C3HCHCH2CH2CHC2HC2HCHC9HSH2CH2CSC2H2CH3FeHSHCH2SC3H2C6HCH2C6PC11HC6H7CH4S2H2C2SHC2HCH4C5H3C2HCHCPHSH2CH2C3HCPC2HCHC2HCHCHC2H2SCHCH3CFeC3H5CHC4H2C4SC3SHFeSHSFeCHCH2SC2SHSH2CHFeCHCHCH2CH2SHCH3CHC7PC9SHC7H13CH4CHC7SHC3SH3FeH2CHC10H8C6PC6HC11H2CH3C2HCHC2H7FeCH2PCHFeC3SHC2SC3SC3H2CH3CSC2SHCHC2SCFeSCHFeC2HC3H8SHC2HCHC3HCHCHCHC2HC2HC2HC3H5C3SC3SPH2CHCHCHCHC2H2C3H2CFe2C3PFeCSHC4H2CHC2H2C2HC2FeH6C2HSC5H6CHCHSCHPFeCSHC2PFeHSC2H2CH3S3C2HC6H4CHC3H4C6H3SFeS2FeSFe2S2HC6H4C2SHCHCHPH2CHC2SCH2C3HC5FeC2H2CH2CHCHC4SC6H9CHPCHC3HC5H4C3HC2HCHCHCH2CH2CSFeC2SFeH2CHC2H2CH3C2FeSFeS2FeSFeS3C2H4C2HC3FeCH3C6SH3S2C6H4C5H3C3HC2HCHCH2CHCHC2PC14HC4H7C4HC3H2CPCHSCH3C2HC3H3C2HCFeHCH5CH2CH3CHFeHCH2C4HC6HFeC5H4C2HPC2H2CH3C2HCH2CH2CH3CH2SC5HCSHCHCHCHCSFeCFeS2FeS2FeSFeS3FeSH2SC5H3C6H4C6H4C2H2SFeCHC2S2C2FeCHCH4FeHCH2C9H4FeH3CH3CHC9PC9H2C7H11CHCH6SHCHC6HCSH2C4H6C2PHC2H2PH3CH2C2H2C2H2C5HCH2CHC3HC2HC3HC3HC3HS3FeSC6H3SCHC6H3C2PC7HCH6C2HCH2PC4HCHC4H2CHCH3CHC2HCHCHCHCHC3H2CH2C4HC3H2C2HC5HPHCH2C2HC2HCH2CHC4FeHCH2FeHCHCHCH2CH2CSCH3CSPSC2HCH2CHCHC2H2SCHCH3CSH2CHC2HC2HCSC3HSC4SH2SCHCH2CHC4HSHC2SC4H3C2HCH3C3HCFeH4CFeH2C2HC3FeHCHCHCHC3H2PC2HC2H2CSH2C3HCFeC3HSFeSFeS3C6H3SH2C4H2CHC3H4C2PC18H15C3HSHC3FeHCSH2C4H2CH2FeH3C2HC2HC3HC2H4CFeSHCHCH2SHCSC5HCHC2H2CSCHC2HPCHC3H2C2FeH4CH2CHCHPH2C2HCHC2SC2HCSHC2H2CHCH2C3HSCHC2H3C2HC3H2C2HC2HCSCH2C2HC3H2C2HCH2FeCSHC4HFeHC5FeCFeH2FeCS2FeS2HSFeS2FeSFeSCSC3H2C7H4FeC6H4C4SH3CSC4HCH2CSH3CHCHC3H3C2HCHCHCH2C2HC4HPC10H3C2H7CHCH3CSH3C2H6SC2H3C6PC14H3CH6CHC2HCH3SHPCH4CHFePSFeS2FeSFeHS2C3FeSHSHC2SC2HC5H2C3H2C6H4C3HC3H3C2HC5HCHC3HC3P2HC6H2CHC2H6CH9CH2C4HC2SH2C2H4C3HC2H2CHPHC3HC2H2C3H2C2HC3HC2H2C4FeCH3CHSHC3HC2HCH2SHC2HCHC2SHCH5C2HCH2C2HFeS2FeS2FeCFeHS2C4HCSFeSCHCHCH2PHC6H7CHCHCHC5HCH2CH3SCHC2HCHC2HC2HCH2C4H2C2H2CHC2H5SPCSHCHCHC2FeCHC6HCHCSHCH2PCH3C2H3C3HCHCHCHCPCSC2HCH4C5H2CHC6H3C5H
_chemical_formula_sum              "C1200 S160 H960 Fe80 P40"
_cell_length_a       31.1973
_cell_length_b       62.2355
_cell_length_c       57.2529
_cell_angle_alpha    87.1317
_cell_angle_beta     87.0819
_cell_angle_gamma    122.392

_space_group_name_H-M_alt    "P 1"
_space_group_IT_number       1

loop_
  _space_group_symop_operation_xyz
  'x, y, z'

loop_
  _atom_site_type_symbol
  _atom_site_label
  _atom_site_symmetry_multiplicity
  _atom_site_fract_x
  _atom_site_fract_y
  _atom_site_fract_z
  _atom_site_occupancy
  C   C1        1.0  0.82183  0.17938  0.22298  1.0000
  S   S1        1.0  0.13820  0.12248  0.20775  1.0000
  H   H1        1.0  0.78324  0.97674  0.20655  1.0000
  Fe  Fe1       1.0  0.08592  0.08055  0.21957  1.0000
  S   S2        1.0  0.02184  0.05022  0.20027  1.0000
  H   H2        1.0  0.99040  0.12760  0.12195  1.0000
  P   P1        1.0  0.91621  0.21839  0.20161  1.0000
  H   H3        1.0  0.26279  0.03271  0.13689  1.0000
  S   S3        1.0  0.05341  0.99547  0.11634  1.0000
  C   C2        1.0  0.93521  0.27462  0.15357  1.0000
  C   C3        1.0  0.30806  0.99671  0.19586  1.0000
  S   S4        1.0  0.27437  0.13147  0.20294  1.0000
  C   C4        1.0  0.42946  0.20711  0.20284  1.0000
  C   C5        1.0  0.38521  0.20608  0.21125  1.0000
  H   H4        1.0  0.14257  0.00827  0.19220  1.0000
  H   H5        1.0  0.04257  0.09809  0.18519  1.0000
  C   C6        1.0  0.42479  0.18525  0.19456  1.0000
  C   C7        1.0  0.37704  0.16253  0.19488  1.0000
  H   H6        1.0  0.45854  0.18589  0.18780  1.0000
  H   H7        1.0  0.37446  0.14594  0.18826  1.0000
  C   C8        1.0  0.85070  0.20474  0.21283  1.0000
  Fe  Fe2       1.0  0.19895  0.11859  0.22302  1.0000
  C   C9        1.0  0.10796  0.20504  0.20364  1.0000
  H   H8        1.0  0.91286  0.27715  0.14113  1.0000
  C   C10       1.0  0.05724  0.10201  0.13070  1.0000
  C   C11       1.0  0.11098  0.18712  0.08914  1.0000
  H   H9        1.0  0.10914  0.17047  0.20651  1.0000
  H   H10       1.0  0.10650  0.20551  0.18482  1.0000
  C   C12       1.0  0.33286  0.16104  0.20377  1.0000
  S   S5        1.0  0.10220  0.24777  0.20044  1.0000
  C   C13       1.0  0.03205  0.03426  0.17809  1.0000
  C   C14       1.0  0.99022  0.01158  0.17135  1.0000
  C   C15       1.0  0.99638  0.99916  0.15280  1.0000
  C   C16       1.0  0.04445  0.00948  0.14072  1.0000
  C   C17       1.0  0.08637  0.03195  0.14771  1.0000
  C   C18       1.0  0.08023  0.04430  0.16632  1.0000
  H   H11       1.0  0.95272  0.00390  0.18020  1.0000
  P   P2        1.0  0.18366  0.98444  0.16286  1.0000
  H   H12       1.0  0.12364  0.04009  0.13840  1.0000
  H   H13       1.0  0.11245  0.06197  0.17113  1.0000
  H   H14       1.0  0.00724  0.22217  0.18121  1.0000
  H   H15       1.0  0.85977  0.14718  0.15082  1.0000
  C   C19       1.0  0.16216  0.98938  0.11694  1.0000
  C   C20       1.0  0.81864  0.98802  0.21443  1.0000
  H   H16       1.0  0.97324  0.12741  0.22871  1.0000
  H   H17       1.0  0.02118  0.97815  0.20642  1.0000
  H   H18       1.0  0.96208  0.03882  0.13801  1.0000
  C   C21       1.0  0.27268  0.00038  0.18531  1.0000
  C   C22       1.0  0.92496  0.19868  0.18237  1.0000
  C   C23       1.0  0.97467  0.20561  0.17497  1.0000
  C   C24       1.0  0.98294  0.19150  0.15922  1.0000
  C   C25       1.0  0.94154  0.17024  0.15074  1.0000
  C   C26       1.0  0.89185  0.16341  0.15772  1.0000
  C   C27       1.0  0.88351  0.17774  0.17328  1.0000
  H   H19       1.0  0.57725  0.28554  0.99004  1.0000
  H   H20       1.0  0.03661  0.16229  0.15878  1.0000
  H   H21       1.0  0.98677  0.00060  0.22662  1.0000
  H   H22       1.0  0.01609  0.03714  0.10583  1.0000
  C   C28       1.0  0.94267  0.24835  0.18393  1.0000
  C   C29       1.0  0.91368  0.25166  0.16785  1.0000
  H   H23       1.0  0.24153  0.08771  0.16909  1.0000
  H   H24       1.0  0.34141  0.01272  0.20226  1.0000
  C   C30       1.0  0.99411  0.26770  0.18453  1.0000
  C   C31       1.0  0.07277  0.15131  0.11917  1.0000
  C   C32       1.0  0.01916  0.15882  0.09519  1.0000
  C   C33       1.0  0.01140  0.07950  0.13963  1.0000
  C   C34       1.0  0.02637  0.14706  0.17217  1.0000
  C   C35       1.0  0.99658  0.05626  0.13056  1.0000
  H   H25       1.0  0.09514  0.07688  0.08877  1.0000
  H   H26       1.0  0.02168  0.19731  0.15358  1.0000
  H   H27       1.0  0.94801  0.15927  0.13857  1.0000
  P   P3        1.0  0.07817  0.13234  0.14229  1.0000
  H   H28       1.0  0.79034  0.29955  0.01426  1.0000
  C   C36       1.0  0.11620  0.17261  0.10689  1.0000
  H   H29       1.0  0.16853  0.05279  0.19489  1.0000
  Fe  Fe3       1.0  0.12881  0.28465  0.21748  1.0000
  H   H30       1.0  0.87476  0.23642  0.16608  1.0000
  C   C37       1.0  0.33682  0.18290  0.21200  1.0000
  H   H31       1.0  0.01822  0.26481  0.19548  1.0000
  Fe  Fe4       1.0  0.52157  0.27277  0.21691  1.0000
  H   H32       1.0  0.98164  0.15335  0.09045  1.0000
  H   H33       1.0  0.15414  0.17805  0.11080  1.0000
  H   H34       1.0  0.76489  0.22153  0.22569  1.0000
  C   C38       1.0  0.01549  0.29064  0.17033  1.0000
  C   C39       1.0  0.78070  0.20971  0.22477  1.0000
  H   H35       1.0  0.28976  0.05871  0.20457  1.0000
  C   C40       1.0  0.25647  0.06228  0.15122  1.0000
  H   H36       1.0  0.98704  0.07956  0.15368  1.0000
  C   C41       1.0  0.10811  0.22420  0.21575  1.0000
  H   H37       1.0  0.23905  0.13753  0.15679  1.0000
  C   C42       1.0  0.99071  0.12757  0.21179  1.0000
  H   H38       1.0  0.05863  0.19155  0.06953  1.0000
  C   C43       1.0  0.23870  0.20789  0.22782  1.0000
  S   S6        1.0  0.07696  0.29757  0.22915  1.0000
  H   H39       1.0  0.15219  0.00249  0.12301  1.0000
  H   H40       1.0  0.15143  0.11575  0.14533  1.0000
  C   C44       1.0  0.03002  0.11111  0.18717  1.0000
  C   C45       1.0  0.84851  0.01443  0.20839  1.0000
  H   H41       1.0  0.90149  0.29160  0.20151  1.0000
  C   C46       1.0  0.22939  0.97975  0.17684  1.0000
  C   C47       1.0  0.18895  0.04837  0.18218  1.0000
  C   C48       1.0  0.06252  0.18029  0.08334  1.0000
  H   H42       1.0  0.27953  0.01937  0.18378  1.0000
  C   C49       1.0  0.83019  0.22002  0.21435  1.0000
  H   H43       1.0  0.99191  0.16017  0.19647  1.0000
  C   C50       1.0  0.17429  0.02302  0.18060  1.0000
  C   C51       1.0  0.08647  0.10102  0.11177  1.0000
  H   H44       1.0  0.28067  0.18105  0.16972  1.0000
  H   H45       1.0  0.28831  0.07755  0.13985  1.0000
  H   H46       1.0  0.91819  0.04987  0.21336  1.0000
  H   H47       1.0  0.26081  0.23859  0.20115  1.0000
  H   H48       1.0  0.12128  0.11823  0.10420  1.0000
  C   C52       1.0  0.00112  0.14597  0.19356  1.0000
  C   C53       1.0  0.16944  0.13525  0.14980  1.0000
  C   C54       1.0  0.26670  0.23339  0.21848  1.0000
  H   H49       1.0  0.08953  0.97481  0.22285  1.0000
  C   C55       1.0  0.07167  0.07772  0.10286  1.0000
  H   H50       1.0  0.14661  0.18213  0.15902  1.0000
  C   C56       1.0  0.98604  0.29414  0.15489  1.0000
  H   H51       1.0  0.30278  0.18206  0.21855  1.0000
  H   H52       1.0  0.21110  0.19312  0.21776  1.0000
  C   C57       1.0  0.24188  0.03689  0.14958  1.0000
  H   H53       1.0  0.14462  0.20364  0.07982  1.0000
  H   H54       1.0  0.85248  0.23998  0.20789  1.0000
  C   C58       1.0  0.04057  0.12941  0.16875  1.0000
  H   H55       1.0  0.84491  0.17265  0.17781  1.0000
  C   C59       1.0  0.02424  0.14431  0.11299  1.0000
  C   C60       1.0  0.23007  0.06803  0.16757  1.0000
  H   H56       1.0  0.96376  0.98203  0.14738  1.0000
  C   C61       1.0  0.26860  0.05599  0.22120  1.0000
  C   C62       1.0  0.15401  0.98276  0.09389  1.0000
  H   H57       1.0  0.23432  0.20332  0.17083  1.0000
  C   C63       1.0  0.89453  0.02947  0.21827  1.0000
  H   H58       1.0  0.38841  0.22310  0.21710  1.0000
  C   C64       1.0  0.20061  0.01705  0.16429  1.0000
  C   C65       1.0  0.00497  0.11008  0.20854  1.0000
  C   C66       1.0  0.02694  0.05531  0.11237  1.0000
  C   C67       1.0  0.10949  0.18523  0.21586  1.0000
  C   C68       1.0  0.21915  0.14743  0.15653  1.0000
  C   C69       1.0  0.24258  0.17198  0.16399  1.0000
  C   C70       1.0  0.21636  0.18444  0.16469  1.0000
  C   C71       1.0  0.16673  0.17239  0.15790  1.0000
  C   C72       1.0  0.14309  0.14783  0.15006  1.0000
  H   H59       1.0  0.22134  0.01523  0.22102  1.0000
  S   S7        1.0  0.49194  0.23462  0.20209  1.0000
  H   H60       1.0  0.96078  0.19159  0.22385  1.0000
  H   H61       1.0  0.83612  0.02323  0.19595  1.0000
  C   C73       1.0  0.03529  0.98595  0.22280  1.0000
  H   H62       1.0  0.83782  0.16763  0.22306  1.0000
  H   H63       1.0  0.30657  0.09644  0.22481  1.0000
  C   C74       1.0  0.91159  0.29282  0.21942  1.0000
  S   S8        1.0  0.60705  0.29926  0.21512  1.0000
  C   C75       1.0  0.30070  0.97245  0.19801  1.0000
  C   C76       1.0  0.18113  0.97856  0.13209  1.0000
  H   H64       1.0  0.13742  0.99050  0.08276  1.0000
  H   H65       1.0  0.32460  0.27207  0.22430  1.0000
  C   C77       1.0  0.95014  0.22305  0.22738  1.0000
  H   H66       1.0  0.08844  0.97963  0.15363  1.0000
  H   H67       1.0  0.99818  0.09622  0.22283  1.0000
  H   H68       1.0  0.83400  0.96987  0.08467  1.0000
  Fe  Fe5       1.0  0.12961  0.08611  0.26704  1.0000
  H   H69       1.0  0.73067  0.29633  0.25364  1.0000
  S   S9        1.0  0.12985  0.06581  0.30093  1.0000
  H   H70       1.0  0.11072  0.20273  0.27121  1.0000
  C   C78       1.0  0.24990  0.07400  0.25367  1.0000
  H   H71       1.0  0.02545  0.98607  0.35215  1.0000
  H   H72       1.0  0.25623  0.09054  0.26216  1.0000
  S   S10       1.0  0.16950  0.29419  0.25031  1.0000
  C   C79       1.0  0.11039  0.20341  0.25230  1.0000
  C   C80       1.0  0.73144  0.23782  0.27975  1.0000
  C   C81       1.0  0.49492  0.28862  0.31141  1.0000
  H   H73       1.0  0.47536  0.21587  0.29103  1.0000
  H   H74       1.0  0.43814  0.22046  0.32847  1.0000
  C   C82       1.0  0.07127  0.03949  0.31414  1.0000
  C   C83       1.0  0.07135  0.02143  0.32982  1.0000
  C   C84       1.0  0.02519  0.99974  0.33985  1.0000
  C   C85       1.0  0.97870  0.99622  0.33458  1.0000
  C   C86       1.0  0.97865  0.01444  0.31912  1.0000
  C   C87       1.0  0.02474  0.03589  0.30879  1.0000
  H   H75       1.0  0.10721  0.02413  0.33408  1.0000
  C   C88       1.0  0.91073  0.01814  0.23421  1.0000
  H   H76       1.0  0.94279  0.01195  0.31518  1.0000
  H   H77       1.0  0.02421  0.04978  0.29693  1.0000
  C   C89       1.0  0.20474  0.13664  0.32027  1.0000
  C   C90       1.0  0.15460  0.13000  0.31879  1.0000
  C   C91       1.0  0.14507  0.14833  0.31027  1.0000
  C   C92       1.0  0.18562  0.17324  0.30301  1.0000
  C   C93       1.0  0.23625  0.18010  0.30429  1.0000
  C   C94       1.0  0.24546  0.16157  0.31312  1.0000
  P   P4        1.0  0.28857  0.21200  0.29351  1.0000
  C   C95       1.0  0.28015  0.22022  0.26401  1.0000
  C   C96       1.0  0.29410  0.23584  0.31221  1.0000
  C   C97       1.0  0.34037  0.25968  0.31132  1.0000
  C   C98       1.0  0.34486  0.27862  0.32504  1.0000
  C   C99       1.0  0.30328  0.27390  0.33993  1.0000
  C   C100      1.0  0.25727  0.25018  0.34117  1.0000
  C   C101      1.0  0.25263  0.23121  0.32739  1.0000
  C   C102      1.0  0.30928  0.24568  0.25413  1.0000
  C   C103      1.0  0.83489  0.97648  0.23031  1.0000
  C   C104      1.0  0.84077  0.20158  0.28404  1.0000
  C   C105      1.0  0.24547  0.20132  0.25043  1.0000
  H   H78       1.0  0.13357  0.97911  0.36262  1.0000
  C   C106      1.0  0.34765  0.21310  0.29280  1.0000
  C   C107      1.0  0.36819  0.20979  0.27198  1.0000
  C   C108      1.0  0.41414  0.21083  0.27138  1.0000
  C   C109      1.0  0.43950  0.21482  0.29169  1.0000
  C   C110      1.0  0.41866  0.21755  0.31268  1.0000
  C   C111      1.0  0.37286  0.21668  0.31327  1.0000
  H   H79       1.0  0.08986  0.01748  0.27964  1.0000
  H   H80       1.0  0.12324  0.11045  0.32361  1.0000
  H   H81       1.0  0.10624  0.14301  0.30839  1.0000
  H   H82       1.0  0.17741  0.18688  0.29554  1.0000
  H   H83       1.0  0.28385  0.16595  0.31394  1.0000
  H   H84       1.0  0.37281  0.26389  0.29959  1.0000
  H   H85       1.0  0.80171  0.29667  0.30902  1.0000
  C   C112      1.0  0.07398  0.00809  0.26411  1.0000
  H   H86       1.0  0.22487  0.24655  0.35259  1.0000
  H   H87       1.0  0.21651  0.21314  0.32855  1.0000
  H   H88       1.0  0.33754  0.26057  0.26368  1.0000
  H   H89       1.0  0.30656  0.28872  0.35030  1.0000
  S   S11       1.0  0.06392  0.08754  0.25514  1.0000
  S   S12       1.0  0.18659  0.12817  0.25883  1.0000
  H   H90       1.0  0.52612  0.26499  0.31274  1.0000
  H   H91       1.0  0.34871  0.20642  0.25622  1.0000
  C   C113      1.0  0.68594  0.23505  0.27367  1.0000
  C   C114      1.0  0.53192  0.28329  0.31613  1.0000
  S   S13       1.0  0.92013  0.97008  0.34785  1.0000
  H   H92       1.0  0.35706  0.21877  0.32965  1.0000
  C   C115      1.0  0.09627  0.97639  0.30751  1.0000
  C   C116      1.0  0.77721  0.28292  0.26636  1.0000
  H   H93       1.0  0.75010  0.14945  0.24102  1.0000
  C   C117      1.0  0.93762  0.29482  0.26560  1.0000
  H   H94       1.0  0.46007  0.27438  0.30446  1.0000
  H   H95       1.0  0.18931  0.04735  0.27930  1.0000
  H   H96       1.0  0.65055  0.25428  0.26003  1.0000
  H   H97       1.0  0.94598  0.25522  0.23641  1.0000
  C   C118      1.0  0.21190  0.04945  0.26332  1.0000
  C   C119      1.0  0.20193  0.02793  0.25199  1.0000
  C   C120      1.0  0.85342  0.28339  0.31136  1.0000
  C   C121      1.0  0.18406  0.00024  0.33142  1.0000
  C   C122      1.0  0.88923  0.28311  0.32510  1.0000
  H   H98       1.0  0.22320  0.18148  0.25719  1.0000
  H   H99       1.0  0.23605  0.99172  0.25209  1.0000
  H   H100      1.0  0.89556  0.98331  0.25188  1.0000
  C   C123      1.0  0.84553  0.22477  0.27750  1.0000
  C   C124      1.0  0.68594  0.25619  0.26425  1.0000
  H   H101      1.0  0.85589  0.19376  0.27207  1.0000
  C   C125      1.0  0.79841  0.19900  0.32165  1.0000
  H   H102      1.0  0.92899  0.29511  0.35626  1.0000
  C   C126      1.0  0.95796  0.24240  0.24151  1.0000
  P   P5        1.0  0.83618  0.26613  0.28532  1.0000
  H   H103      1.0  0.90758  0.27318  0.32004  1.0000
  S   S14       1.0  0.51162  0.27626  0.25516  1.0000
  H   H104      1.0  0.21187  0.12213  0.32629  1.0000
  H   H105      1.0  0.22498  0.01760  0.29760  1.0000
  C   C127      1.0  0.99946  0.22982  0.26857  1.0000
  H   H106      1.0  0.98952  0.26111  0.27264  1.0000
  H   H107      1.0  0.01994  0.23299  0.28409  1.0000
  C   C128      1.0  0.20125  0.97335  0.25115  1.0000
  C   C129      1.0  0.18778  0.00500  0.30701  1.0000
  C   C130      1.0  0.81724  0.18870  0.30611  1.0000
  H   H108      1.0  0.81389  0.17081  0.31124  1.0000
  C   C131      1.0  0.14375  0.99320  0.29492  1.0000
  P   P6        1.0  0.14873  0.99673  0.26328  1.0000
  C   C132      1.0  0.98234  0.24570  0.26208  1.0000
  C   C133      1.0  0.88601  0.28257  0.26139  1.0000
  H   H109      1.0  0.78032  0.18905  0.33881  1.0000
  C   C134      1.0  0.73150  0.28005  0.26056  1.0000
  H   H110      1.0  0.02099  0.02020  0.26334  1.0000
  C   C135      1.0  0.82745  0.23544  0.29311  1.0000
  C   C136      1.0  0.09340  0.99510  0.25300  1.0000
  H   H111      1.0  0.78912  0.23016  0.32753  1.0000
  C   C137      1.0  0.03512  0.00973  0.25484  1.0000
  H   H112      1.0  0.83393  0.27154  0.23417  1.0000
  C   C138      1.0  0.77743  0.26186  0.27634  1.0000
  H   H113      1.0  0.65038  0.21660  0.27659  1.0000
  C   C139      1.0  0.80351  0.22230  0.31521  1.0000
  C   C140      1.0  0.90122  0.29534  0.34580  1.0000
  H   H114      1.0  0.43035  0.20878  0.25506  1.0000
  H   H115      1.0  0.94669  0.02982  0.24170  1.0000
  S   S15       1.0  0.10542  0.15828  0.25703  1.0000
  C   C141      1.0  0.10963  0.18411  0.24032  1.0000
  H   H116      1.0  0.00498  0.19810  0.25970  1.0000
  C   C142      1.0  0.07397  0.98414  0.23216  1.0000
  H   H117      1.0  0.71337  0.17627  0.24228  1.0000
  H   H118      1.0  0.73020  0.22122  0.28734  1.0000
  H   H119      1.0  0.86378  0.23439  0.26037  1.0000
  C   C143      1.0  0.99117  0.21025  0.25478  1.0000
  Fe  Fe6       1.0  0.12171  0.12915  0.24438  1.0000
  C   C144      1.0  0.82979  0.29612  0.31883  1.0000
  C   C145      1.0  0.13658  0.98321  0.34378  1.0000
  C   C146      1.0  0.15347  0.97036  0.25515  1.0000
  H   H120      1.0  0.60631  0.29785  0.32788  1.0000
  H   H121      1.0  0.94901  0.29559  0.28321  1.0000
  H   H122      1.0  0.11014  0.23803  0.24961  1.0000
  H   H123      1.0  0.33849  0.29817  0.27856  1.0000
  H   H124      1.0  0.21803  0.00944  0.34071  1.0000
  C   C147      1.0  0.01582  0.99868  0.23417  1.0000
  H   H125      1.0  0.38030  0.29715  0.32365  1.0000
  C   C148      1.0  0.11028  0.22352  0.24007  1.0000
  C   C149      1.0  0.09281  0.97119  0.33179  1.0000
  C   C150      1.0  0.88151  0.99174  0.23996  1.0000
  C   C151      1.0  0.30234  0.25226  0.23156  1.0000
  H   H126      1.0  0.81210  0.30170  0.26371  1.0000
  H   H127      1.0  0.10176  0.98732  0.44808  1.0000
  C   C152      1.0  0.87333  0.28146  0.23808  1.0000
  C   C153      1.0  0.23012  0.03139  0.23068  1.0000
  C   C154      1.0  0.27819  0.07730  0.23259  1.0000
  C   C155      1.0  0.96642  0.20677  0.23429  1.0000
  S   S16       1.0  0.14748  0.07612  0.23235  1.0000
  C   C156      1.0  0.57734  0.30191  0.32452  1.0000
  C   C157      1.0  0.77234  0.16911  0.23339  1.0000
  C   C158      1.0  0.75170  0.18423  0.23419  1.0000
  S   S17       1.0  0.64751  0.30285  0.27814  1.0000
  H   H128      1.0  0.51648  0.25831  0.70684  1.0000
  Fe  Fe7       1.0  0.70222  0.23024  0.70836  1.0000
  S   S18       1.0  0.72088  0.25453  0.67406  1.0000
  H   H129      1.0  0.70363  0.09811  0.56882  1.0000
  S   S19       1.0  0.63414  0.19037  0.70801  1.0000
  Fe  Fe8       1.0  0.74733  0.00903  0.69882  1.0000
  C   C159      1.0  0.48146  0.01335  0.71928  1.0000
  H   H130      1.0  0.07363  0.04837  0.67847  1.0000
  C   C160      1.0  0.75984  0.17974  0.68268  1.0000
  H   H131      1.0  0.46849  0.07928  0.70421  1.0000
  H   H132      1.0  0.56287  0.10512  0.70049  1.0000
  S   S20       1.0  0.70005  0.02654  0.70055  1.0000
  C   C161      1.0  0.09097  0.04177  0.69037  1.0000
  C   C162      1.0  0.77857  0.28291  0.66342  1.0000
  S   S21       1.0  0.65753  0.13908  0.72106  1.0000
  H   H133      1.0  0.92533  0.03428  0.66466  1.0000
  S   S22       1.0  0.30266  0.98211  0.72076  1.0000
  H   H134      1.0  0.77311  0.14083  0.55075  1.0000
  H   H135      1.0  0.69824  0.14535  0.67154  1.0000
  C   C163      1.0  0.94467  0.01085  0.64626  1.0000
  H   H136      1.0  0.95516  0.02228  0.62962  1.0000
  Fe  Fe9       1.0  0.37526  0.02067  0.71859  1.0000
  C   C164      1.0  0.54217  0.11129  0.69041  1.0000
  H   H137      1.0  0.84172  0.00424  0.62598  1.0000
  C   C165      1.0  0.75398  0.12591  0.61869  1.0000
  H   H138      1.0  0.18276  0.00080  0.68075  1.0000
  C   C166      1.0  0.91355  0.00256  0.68734  1.0000
  H   H139      1.0  0.95782  0.98322  0.63246  1.0000
  H   H140      1.0  0.73654  0.00390  0.62288  1.0000
  C   C167      1.0  0.16098  0.98800  0.66794  1.0000
  H   H141      1.0  0.58784  0.25473  0.68038  1.0000
  H   H142      1.0  0.82662  0.27701  0.68493  1.0000
  S   S23       1.0  0.80046  0.01463  0.66714  1.0000
  H   H143      1.0  0.83064  0.17395  0.57598  1.0000
  C   C168      1.0  0.79340  0.14998  0.60830  1.0000
  H   H144      1.0  0.10284  0.99668  0.67040  1.0000
  H   H145      1.0  0.81906  0.16470  0.61892  1.0000
  H   H146      1.0  0.73506  0.18578  0.68917  1.0000
  C   C169      1.0  0.60498  0.05579  0.67488  1.0000
  H   H147      1.0  0.59077  0.03737  0.68425  1.0000
  C   C170      1.0  0.82538  0.28924  0.67125  1.0000
  C   C171      1.0  0.51103  0.17336  0.58124  1.0000
  C   C172      1.0  0.48725  0.14846  0.57459  1.0000
  C   C173      1.0  0.49002  0.12995  0.58802  1.0000
  C   C174      1.0  0.51646  0.13630  0.60814  1.0000
  C   C175      1.0  0.53998  0.16122  0.61515  1.0000
  C   C176      1.0  0.53741  0.17977  0.60138  1.0000
  P   P7        1.0  0.57470  0.16925  0.64104  1.0000
  C   C177      1.0  0.54174  0.14163  0.66221  1.0000
  C   C178      1.0  0.63860  0.17693  0.63319  1.0000
  C   C179      1.0  0.67978  0.19585  0.64416  1.0000
  C   C180      1.0  0.72940  0.20240  0.63770  1.0000
  C   C181      1.0  0.73822  0.18944  0.62081  1.0000
  C   C182      1.0  0.69731  0.17001  0.61025  1.0000
  C   C183      1.0  0.64765  0.16380  0.61635  1.0000
  C   C184      1.0  0.48824  0.12733  0.66522  1.0000
  C   C185      1.0  0.46204  0.10491  0.68030  1.0000
  S   S24       1.0  0.45711  0.03300  0.72133  1.0000
  H   H148      1.0  0.90035  0.00834  0.70207  1.0000
  C   C186      1.0  0.56867  0.13375  0.67527  1.0000
  C   C187      1.0  0.57653  0.19607  0.65310  1.0000
  C   C188      1.0  0.61010  0.22092  0.64226  1.0000
  C   C189      1.0  0.61332  0.24190  0.65185  1.0000
  C   C190      1.0  0.58345  0.23833  0.67243  1.0000
  C   C191      1.0  0.54947  0.21370  0.68318  1.0000
  C   C192      1.0  0.54592  0.19261  0.67362  1.0000
  H   H149      1.0  0.50909  0.18777  0.57077  1.0000
  H   H150      1.0  0.46678  0.14355  0.55899  1.0000
  H   H151      1.0  0.47165  0.11064  0.58285  1.0000
  H   H152      1.0  0.51841  0.12171  0.61826  1.0000
  H   H153      1.0  0.55542  0.19916  0.60610  1.0000
  H   H154      1.0  0.67379  0.20574  0.65766  1.0000
  H   H155      1.0  0.76089  0.21755  0.64597  1.0000
  H   H156      1.0  0.77675  0.19448  0.61600  1.0000
  H   H157      1.0  0.70414  0.15987  0.59723  1.0000
  H   H158      1.0  0.61656  0.14881  0.60792  1.0000
  H   H159      1.0  0.46673  0.13354  0.65598  1.0000
  H   H160      1.0  0.42083  0.09418  0.68289  1.0000
  H   H161      1.0  0.02326  0.02119  0.71434  1.0000
  C   C193      1.0  0.72170  0.10724  0.60425  1.0000
  H   H162      1.0  0.60995  0.14484  0.67395  1.0000
  H   H163      1.0  0.63515  0.22425  0.62683  1.0000
  H   H164      1.0  0.64101  0.26107  0.64400  1.0000
  H   H165      1.0  0.52703  0.21099  0.69942  1.0000
  C   C194      1.0  0.82354  0.98732  0.63824  1.0000
  H   H166      1.0  0.52049  0.17391  0.68285  1.0000
  C   C195      1.0  0.77021  0.14829  0.66424  1.0000
  C   C196      1.0  0.80010  0.15534  0.58389  1.0000
  C   C197      1.0  0.55131  0.00737  0.72518  1.0000
  C   C198      1.0  0.76770  0.13669  0.56967  1.0000
  C   C199      1.0  0.11579  0.98578  0.66188  1.0000
  C   C200      1.0  0.94565  0.98869  0.64779  1.0000
  C   C201      1.0  0.67647  0.09701  0.65784  1.0000
  S   S25       1.0  0.35286  0.03707  0.68940  1.0000
  H   H167      1.0  0.82782  0.21239  0.69321  1.0000
  C   C202      1.0  0.65748  0.07309  0.67016  1.0000
  C   C203      1.0  0.57091  0.06231  0.66780  1.0000
  C   C204      1.0  0.73893  0.15665  0.67244  1.0000
  S   S26       1.0  0.23732  0.97817  0.66294  1.0000
  H   H168      1.0  0.69137  0.08842  0.61183  1.0000
  H   H169      1.0  0.41940  0.98404  0.70225  1.0000
  H   H170      1.0  0.53026  0.04911  0.67224  1.0000
  Fe  Fe10      1.0  0.27698  0.99969  0.69402  1.0000
  H   H171      1.0  0.23738  0.02070  0.61639  1.0000
  H   H172      1.0  0.68280  0.06760  0.67632  1.0000
  C   C205      1.0  0.48896  0.09672  0.69262  1.0000
  H   H173      1.0  0.32056  0.04129  0.63332  1.0000
  C   C206      1.0  0.58935  0.08586  0.65515  1.0000
  C   C207      1.0  0.64188  0.10308  0.65002  1.0000
  C   C208      1.0  0.77682  0.10343  0.65914  1.0000
  C   C209      1.0  0.79061  0.10442  0.68222  1.0000
  C   C210      1.0  0.81413  0.09178  0.68962  1.0000
  C   C211      1.0  0.82315  0.07764  0.67423  1.0000
  C   C212      1.0  0.80883  0.07619  0.65135  1.0000
  C   C213      1.0  0.78584  0.08908  0.64375  1.0000
  C   C214      1.0  0.84360  0.18650  0.67693  1.0000
  C   C215      1.0  0.82284  0.16345  0.66657  1.0000
  H   H174      1.0  0.56283  0.09081  0.64954  1.0000
  H   H175      1.0  0.65555  0.12115  0.64005  1.0000
  H   H176      1.0  0.78241  0.11458  0.69470  1.0000
  H   H177      1.0  0.82424  0.09244  0.70753  1.0000
  H   H178      1.0  0.84021  0.06731  0.68020  1.0000
  H   H179      1.0  0.81481  0.06462  0.63972  1.0000
  H   H180      1.0  0.88407  0.19797  0.67890  1.0000
  H   H181      1.0  0.84789  0.15743  0.66042  1.0000
  C   C216      1.0  0.28428  0.14598  0.65764  1.0000
  C   C217      1.0  0.26913  0.15272  0.67792  1.0000
  C   C218      1.0  0.22594  0.13421  0.69235  1.0000
  C   C219      1.0  0.19809  0.10889  0.68666  1.0000
  C   C220      1.0  0.21357  0.10188  0.66651  1.0000
  C   C221      1.0  0.25650  0.12070  0.65187  1.0000
  P   P8        1.0  0.17902  0.06909  0.65931  1.0000
  C   C222      1.0  0.22462  0.06103  0.65002  1.0000
  C   C223      1.0  0.14150  0.04854  0.68543  1.0000
  C   C224      1.0  0.16306  0.04002  0.70149  1.0000
  C   C225      1.0  0.45591  0.99040  0.70875  1.0000
  C   C226      1.0  0.92831  0.01769  0.66602  1.0000
  C   C227      1.0  0.91508  0.98032  0.68919  1.0000
  H   H182      1.0  0.74126  0.29410  0.63953  1.0000
  C   C228      1.0  0.21284  0.04261  0.63404  1.0000
  C   C229      1.0  0.24756  0.03570  0.62794  1.0000
  C   C230      1.0  0.29442  0.04726  0.63753  1.0000
  C   C231      1.0  0.30681  0.06594  0.65307  1.0000
  C   C232      1.0  0.27195  0.07261  0.65949  1.0000
  C   C233      1.0  0.13795  0.06465  0.63633  1.0000
  C   C234      1.0  0.14502  0.08564  0.62223  1.0000
  C   C235      1.0  0.11373  0.08181  0.60414  1.0000
  C   C236      1.0  0.07546  0.05705  0.59990  1.0000
  C   C237      1.0  0.06816  0.03612  0.61388  1.0000
  C   C238      1.0  0.09882  0.03991  0.63216  1.0000
  H   H183      1.0  0.31788  0.16032  0.64651  1.0000
  H   H184      1.0  0.29099  0.17226  0.68251  1.0000
  C   C239      1.0  0.93056  0.97336  0.66900  1.0000
  H   H185      1.0  0.16500  0.09487  0.69818  1.0000
  H   H186      1.0  0.26891  0.11572  0.63618  1.0000
  H   H187      1.0  0.20220  0.04531  0.69838  1.0000
  C   C240      1.0  0.80070  0.98733  0.66004  1.0000
  C   C241      1.0  0.70793  0.98434  0.62938  1.0000
  H   H188      1.0  0.67771  0.99504  0.65793  1.0000
  C   C242      1.0  0.38361  0.11431  0.72367  1.0000
  H   H189      1.0  0.17643  0.03287  0.62678  1.0000
  C   C243      1.0  0.81205  0.19466  0.68497  1.0000
  C   C244      1.0  0.77734  0.29885  0.64560  1.0000
  H   H190      1.0  0.34289  0.07486  0.66071  1.0000
  H   H191      1.0  0.28171  0.08644  0.67227  1.0000
  H   H192      1.0  0.17458  0.10496  0.62503  1.0000
  H   H193      1.0  0.11937  0.09805  0.59327  1.0000
  H   H194      1.0  0.05157  0.05404  0.58573  1.0000
  H   H195      1.0  0.03898  0.01684  0.61049  1.0000
  H   H196      1.0  0.09233  0.02343  0.64284  1.0000
  Fe  Fe11      1.0  0.32010  0.04857  0.71829  1.0000
  C   C245      1.0  0.17897  0.97457  0.65664  1.0000
  H   H197      1.0  0.99957  0.97475  0.69366  1.0000
  H   H198      1.0  0.77446  0.08740  0.62608  1.0000
  P   P9        1.0  0.74423  0.11886  0.65023  1.0000
  C   C246      1.0  0.72856  0.11265  0.57985  1.0000
  H   H199      1.0  0.62751  0.08783  0.71480  1.0000
  Fe  Fe12      1.0  0.63766  0.98873  0.71875  1.0000
  C   C247      1.0  0.52664  0.98483  0.71401  1.0000
  C   C248      1.0  0.47863  0.97619  0.70604  1.0000
  C   C249      1.0  0.67504  0.97934  0.64926  1.0000
  S   S27       1.0  0.24216  0.01231  0.72095  1.0000
  H   H200      1.0  0.21431  0.13946  0.70810  1.0000
  C   C250      1.0  0.06232  0.02646  0.71088  1.0000
  C   C251      1.0  0.66240  0.09642  0.72340  1.0000
  S   S28       1.0  0.68246  0.97061  0.71372  1.0000
  C   C252      1.0  0.54703  0.26999  0.71754  1.0000
  C   C253      1.0  0.38596  0.13743  0.72245  1.0000
  C   C254      1.0  0.08382  0.01776  0.72661  1.0000
  S   S29       1.0  0.32787  0.08680  0.71567  1.0000
  C   C255      1.0  0.52897  0.02170  0.72762  1.0000
  C   C256      1.0  0.58141  0.29601  0.71060  1.0000
  C   C257      1.0  0.13406  0.02447  0.72186  1.0000
  H   H201      1.0  0.09099  0.97864  0.58204  1.0000
  H   H202      1.0  0.66481  0.06230  0.72489  1.0000
  C   C258      1.0  0.08740  0.96967  0.64489  1.0000
  H   H203      1.0  0.03705  0.97643  0.55055  1.0000
  H   H204      1.0  0.35400  0.13806  0.71687  1.0000
  H   H205      1.0  0.42979  0.17734  0.72829  1.0000
  C   C259      1.0  0.42902  0.15973  0.72882  1.0000
  S   S30       1.0  0.74589  0.21727  0.72849  1.0000
  C   C260      1.0  0.68567  0.12182  0.72900  1.0000
  C   C261      1.0  0.68344  0.08190  0.72914  1.0000
  S   S31       1.0  0.34736  0.03482  0.74721  1.0000
  H   H206      1.0  0.09668  0.02928  0.88695  1.0000
  C   C262      1.0  0.98562  0.98650  0.80563  1.0000
  H   H207      1.0  0.18964  0.02506  0.86931  1.0000
  C   C263      1.0  0.15633  0.00576  0.87078  1.0000
  C   C264      1.0  0.73059  0.13273  0.74020  1.0000
  S   S32       1.0  0.63953  0.18223  0.76429  1.0000
  C   C265      1.0  0.07317  0.97426  0.85926  1.0000
  Fe  Fe13      1.0  0.70804  0.22287  0.76035  1.0000
  S   S33       1.0  0.74789  0.24002  0.79289  1.0000
  C   C266      1.0  0.42997  0.98331  0.77230  1.0000
  H   H208      1.0  0.82014  0.97133  0.73335  1.0000
  Fe  Fe14      1.0  0.60380  0.19712  0.74093  1.0000
  C   C267      1.0  0.62604  0.29989  0.74511  1.0000
  C   C268      1.0  0.89581  0.98032  0.73980  1.0000
  H   H209      1.0  0.06218  0.99588  0.79912  1.0000
  C   C269      1.0  0.89330  0.01176  0.77263  1.0000
  C   C270      1.0  0.75443  0.17629  0.80004  1.0000
  C   C271      1.0  0.93672  0.01076  0.76880  1.0000
  H   H210      1.0  0.62964  0.14608  0.82034  1.0000
  H   H211      1.0  0.97227  0.97461  0.79116  1.0000
  H   H212      1.0  0.46428  0.00085  0.77597  1.0000
  H   H213      1.0  0.12722  0.06663  0.90978  1.0000
  H   H214      1.0  0.78786  0.19547  0.79630  1.0000
  H   H215      1.0  0.50123  0.13601  0.74259  1.0000
  H   H216      1.0  0.77712  0.28414  0.76008  1.0000
  H   H217      1.0  0.97166  0.99427  0.75004  1.0000
  S   S34       1.0  0.52283  0.18789  0.74500  1.0000
  H   H218      1.0  0.06152  0.00560  0.74238  1.0000
  C   C272      1.0  0.38405  0.98213  0.77187  1.0000
  C   C273      1.0  0.72779  0.09261  0.74080  1.0000
  H   H219      1.0  0.62571  0.07344  0.77371  1.0000
  C   C274      1.0  0.77794  0.27310  0.79619  1.0000
  H   H220      1.0  0.64436  0.04008  0.76947  1.0000
  C   C275      1.0  0.54448  0.09409  0.88902  1.0000
  C   C276      1.0  0.75669  0.15505  0.79539  1.0000
  C   C277      1.0  0.19539  0.02500  0.81020  1.0000
  H   H221      1.0  0.16531  0.98372  0.75916  1.0000
  C   C278      1.0  0.62946  0.05891  0.83154  1.0000
  H   H222      1.0  0.65473  0.01880  0.80452  1.0000
  C   C279      1.0  0.85272  0.98189  0.74339  1.0000
  H   H223      1.0  0.64515  0.03080  0.84425  1.0000
  C   C280      1.0  0.62396  0.07113  0.81169  1.0000
  H   H224      1.0  0.71547  0.11426  0.79562  1.0000
  C   C281      1.0  0.51243  0.08584  0.87086  1.0000
  C   C282      1.0  0.93787  0.99494  0.75260  1.0000
  H   H225      1.0  0.54897  0.03953  0.73568  1.0000
  C   C283      1.0  0.59585  0.10256  0.88451  1.0000
  C   C284      1.0  0.49873  0.08189  0.75835  1.0000
  H   H226      1.0  0.79206  0.15772  0.78801  1.0000
  C   C285      1.0  0.56596  0.09056  0.79262  1.0000
  C   C286      1.0  0.85156  0.99744  0.75983  1.0000
  H   H227      1.0  0.62546  0.06384  0.84898  1.0000
  C   C287      1.0  0.11579  0.99942  0.85702  1.0000
  C   C288      1.0  0.79310  0.28200  0.81828  1.0000
  C   C289      1.0  0.58306  0.09409  0.84359  1.0000
  H   H228      1.0  0.25701  0.02703  0.78918  1.0000
  H   H229      1.0  0.96933  0.02215  0.77854  1.0000
  H   H230      1.0  0.18809  0.07975  0.82541  1.0000
  H   H231      1.0  0.19700  0.01340  0.82440  1.0000
  H   H232      1.0  0.21790  0.11664  0.84850  1.0000
  C   C290      1.0  0.63975  0.04512  0.78685  1.0000
  C   C291      1.0  0.52064  0.06652  0.79247  1.0000
  C   C292      1.0  0.55277  0.25883  0.73795  1.0000
  S   S35       1.0  0.65981  0.99829  0.75529  1.0000
  C   C293      1.0  0.75143  0.11813  0.74616  1.0000
  C   C294      1.0  0.66681  0.12689  0.80876  1.0000
  C   C295      1.0  0.62924  0.06410  0.78933  1.0000
  S   S36       1.0  0.23474  0.97451  0.78261  1.0000
  P   P10       1.0  0.60958  0.09544  0.81432  1.0000
  H   H233      1.0  0.65527  0.10970  0.85856  1.0000
  H   H234      1.0  0.59690  0.26503  0.76745  1.0000
  C   C296      1.0  0.57805  0.10991  0.77494  1.0000
  H   H235      1.0  0.89183  0.02361  0.78549  1.0000
  C   C297      1.0  0.71302  0.13039  0.79971  1.0000
  H   H236      1.0  0.78598  0.12662  0.75500  1.0000
  C   C298      1.0  0.66502  0.14830  0.81360  1.0000
  H   H237      1.0  0.18777  0.11039  0.89069  1.0000
  C   C299      1.0  0.54445  0.10554  0.75791  1.0000
  H   H238      1.0  0.47277  0.07965  0.87426  1.0000
  C   C300      1.0  0.53161  0.08593  0.84820  1.0000
  C   C301      1.0  0.64041  0.04004  0.82896  1.0000
  H   H239      1.0  0.50624  0.08007  0.83440  1.0000
  H   H240      1.0  0.78524  0.26849  0.83306  1.0000
  C   C302      1.0  0.48698  0.06231  0.77548  1.0000
  C   C303      1.0  0.95118  0.98845  0.82044  1.0000
  C   C304      1.0  0.22953  0.03264  0.79015  1.0000
  H   H241      1.0  0.51157  0.05101  0.80537  1.0000
  H   H242      1.0  0.47288  0.07846  0.74509  1.0000
  C   C305      1.0  0.96779  0.00253  0.83991  1.0000
  Fe  Fe15      1.0  0.72524  0.03541  0.73676  1.0000
  Fe  Fe16      1.0  0.67428  0.17769  0.73099  1.0000
  C   C306      1.0  0.03669  0.99859  0.81024  1.0000
  C   C307      1.0  0.05372  0.01251  0.82993  1.0000
  C   C308      1.0  0.01877  0.01438  0.84478  1.0000
  P   P11       1.0  0.11737  0.02391  0.83794  1.0000
  Fe  Fe17      1.0  0.27287  0.99739  0.74748  1.0000
  C   C309      1.0  0.15973  0.03221  0.81159  1.0000
  S   S37       1.0  0.75422  0.07464  0.74934  1.0000
  H   H243      1.0  0.45223  0.04378  0.77516  1.0000
  C   C310      1.0  0.22812  0.04729  0.77128  1.0000
  C   C311      1.0  0.19209  0.05409  0.77229  1.0000
  C   C312      1.0  0.15782  0.04648  0.79230  1.0000
  C   C313      1.0  0.14022  0.06939  0.89131  1.0000
  H   H244      1.0  0.52963  0.09419  0.90651  1.0000
  H   H245      1.0  0.58828  0.01416  0.73139  1.0000
  C   C314      1.0  0.70867  0.17286  0.80928  1.0000
  H   H246      1.0  0.70683  0.18932  0.81277  1.0000
  C   C315      1.0  0.13950  0.05159  0.85432  1.0000
  C   C316      1.0  0.12296  0.04826  0.87829  1.0000
  H   H247      1.0  0.81798  0.99827  0.76274  1.0000
  H   H248      1.0  0.74917  0.15239  0.74426  1.0000
  C   C317      1.0  0.19119  0.09753  0.85679  1.0000
  C   C318      1.0  0.17396  0.07644  0.84369  1.0000
  H   H249      1.0  0.94047  0.00340  0.85166  1.0000
  C   C319      1.0  0.76535  0.97213  0.80678  1.0000
  C   C320      1.0  0.61514  0.10268  0.86188  1.0000
  Fe  Fe18      1.0  0.71030  0.98303  0.74894  1.0000
  H   H250      1.0  0.03013  0.02431  0.86045  1.0000
  H   H251      1.0  0.52711  0.23850  0.74297  1.0000
  H   H252      1.0  0.62092  0.10931  0.89849  1.0000
  H   H253      1.0  0.25503  0.05340  0.75588  1.0000
  H   H254      1.0  0.19119  0.06546  0.75759  1.0000
  H   H255      1.0  0.13039  0.05208  0.79292  1.0000
  C   C321      1.0  0.17430  0.09402  0.88057  1.0000
  C   C322      1.0  0.64564  0.03319  0.80661  1.0000
  H   H256      1.0  0.61385  0.12817  0.77371  1.0000
  S   S38       1.0  0.66892  0.23814  0.73993  1.0000
  C   C323      1.0  0.78833  0.29072  0.77718  1.0000
  C   C324      1.0  0.59212  0.27381  0.75178  1.0000
  C   C325      1.0  0.46928  0.13642  0.73680  1.0000
  C   C326      1.0  0.47099  0.15943  0.73593  1.0000
  C   C327      1.0  0.79182  0.97204  0.82597  1.0000
  H   H257      1.0  0.38248  0.99865  0.77534  1.0000
  H   H258      1.0  0.80702  0.98771  0.83699  1.0000
  H   H259      1.0  0.91135  0.97858  0.81711  1.0000
  H   H260      1.0  0.76016  0.98777  0.80308  1.0000
  H   H261      1.0  0.15063  0.01762  0.73401  1.0000
  H   H262      1.0  0.55464  0.12041  0.74404  1.0000
  C   C328      1.0  0.15383  0.98725  0.88674  1.0000
  H   H263      1.0  0.81848  0.29487  0.97451  1.0000
  C   C329      1.0  0.14612  0.97241  0.77557  1.0000
  H   H264      1.0  0.18505  0.99225  0.89741  1.0000
  S   S39       1.0  0.77796  0.02098  0.73361  1.0000
  C   C330      1.0  0.42524  0.11376  0.73106  1.0000
  H   H265      1.0  0.42344  0.09593  0.73236  1.0000
  P   P12       1.0  0.16933  0.47872  0.20263  1.0000
  Fe  Fe19      1.0  0.59372  0.33050  0.20594  1.0000
  C   C331      1.0  0.97393  0.40889  0.18468  1.0000
  S   S40       1.0  0.64660  0.36440  0.17928  1.0000
  H   H266      1.0  0.82305  0.31971  0.14917  1.0000
  C   C332      1.0  0.77334  0.34174  0.98220  1.0000
  C   C333      1.0  0.22246  0.41184  0.21782  1.0000
  P   P13       1.0  0.75137  0.36310  0.98588  1.0000
  Fe  Fe20      1.0  0.13558  0.33621  0.21143  1.0000
  H   H267      1.0  0.17914  0.43873  0.18290  1.0000
  S   S41       1.0  0.10424  0.36031  0.19932  1.0000
  C   C334      1.0  0.32358  0.49453  0.22435  1.0000
  C   C335      1.0  0.22157  0.53118  0.19000  1.0000
  H   H268      1.0  0.03255  0.43808  0.15957  1.0000
  H   H269      1.0  0.05102  0.47330  0.18366  1.0000
  C   C336      1.0  0.83449  0.38959  0.20061  1.0000
  H   H270      1.0  0.15348  0.41171  0.22103  1.0000
  H   H271      1.0  0.91559  0.51465  0.18485  1.0000
  H   H272      1.0  0.95848  0.50851  0.22654  1.0000
  S   S42       1.0  0.93385  0.38407  0.07308  1.0000
  S   S43       1.0  0.81781  0.36076  0.11740  1.0000
  S   S44       1.0  0.04605  0.38181  0.09961  1.0000
  C   C337      1.0  0.95330  0.42078  0.99292  1.0000
  C   C338      1.0  0.93534  0.39478  0.99297  1.0000
  H   H273      1.0  0.93283  0.38416  0.00908  1.0000
  C   C339      1.0  0.08893  0.36598  0.17130  1.0000
  C   C340      1.0  0.06306  0.37870  0.16958  1.0000
  C   C341      1.0  0.04937  0.38349  0.14779  1.0000
  C   C342      1.0  0.06203  0.37587  0.12740  1.0000
  C   C343      1.0  0.08859  0.36346  0.12906  1.0000
  C   C344      1.0  0.10200  0.35850  0.15091  1.0000
  H   H274      1.0  0.05342  0.38486  0.18518  1.0000
  H   H275      1.0  0.02967  0.39337  0.14669  1.0000
  H   H276      1.0  0.09897  0.35771  0.11332  1.0000
  H   H277      1.0  0.12278  0.34912  0.15192  1.0000
  C   C345      1.0  0.74612  0.37122  0.21448  1.0000
  H   H278      1.0  0.88931  0.44921  0.12647  1.0000
  C   C346      1.0  0.88186  0.45271  0.14409  1.0000
  C   C347      1.0  0.90776  0.45044  0.16225  1.0000
  C   C348      1.0  0.65314  0.31920  0.98814  1.0000
  H   H279      1.0  0.14058  0.42540  0.01044  1.0000
  H   H280      1.0  0.96493  0.39417  0.17309  1.0000
  H   H281      1.0  0.13495  0.43853  0.11320  1.0000
  H   H282      1.0  0.28980  0.41072  0.22057  1.0000
  C   C349      1.0  0.77225  0.36296  0.13499  1.0000
  C   C350      1.0  0.77355  0.38574  0.13585  1.0000
  C   C351      1.0  0.73446  0.38597  0.14916  1.0000
  C   C352      1.0  0.69455  0.36359  0.16207  1.0000
  C   C353      1.0  0.69376  0.34098  0.16127  1.0000
  C   C354      1.0  0.73218  0.34065  0.14771  1.0000
  H   H283      1.0  0.73533  0.40355  0.14961  1.0000
  H   H284      1.0  0.66291  0.32354  0.17067  1.0000
  H   H285      1.0  0.73053  0.32289  0.14693  1.0000
  S   S45       1.0  0.02613  0.57325  0.15880  1.0000
  Fe  Fe21      1.0  0.99192  0.44587  0.10609  1.0000
  S   S46       1.0  0.96055  0.40681  0.12451  1.0000
  S   S47       1.0  0.03548  0.47809  0.12968  1.0000
  Fe  Fe22      1.0  0.96599  0.42428  0.05770  1.0000
  S   S48       1.0  0.97219  0.43748  0.01868  1.0000
  Fe  Fe23      1.0  0.89593  0.39335  0.10192  1.0000
  Fe  Fe24      1.0  0.00085  0.40059  0.09487  1.0000
  S   S49       1.0  0.92362  0.43282  0.08541  1.0000
  S   S50       1.0  0.03645  0.44035  0.07739  1.0000
  H   H286      1.0  0.80397  0.40297  0.12592  1.0000
  C   C355      1.0  0.02713  0.54612  0.15149  1.0000
  C   C356      1.0  0.99520  0.53051  0.13497  1.0000
  C   C357      1.0  0.99666  0.50940  0.12817  1.0000
  C   C358      1.0  0.03029  0.50380  0.13780  1.0000
  C   C359      1.0  0.06198  0.51936  0.15437  1.0000
  C   C360      1.0  0.06026  0.54029  0.16127  1.0000
  H   H287      1.0  0.96962  0.53494  0.12721  1.0000
  H   H288      1.0  0.97244  0.49776  0.11522  1.0000
  H   H289      1.0  0.08880  0.51553  0.16159  1.0000
  H   H290      1.0  0.08559  0.55236  0.17363  1.0000
  C   C361      1.0  0.78979  0.38957  0.20025  1.0000
  C   C362      1.0  0.11826  0.45630  0.22449  1.0000
  S   S51       1.0  0.11148  0.58631  0.21196  1.0000
  H   H291      1.0  0.16483  0.42169  0.14415  1.0000
  C   C363      1.0  0.01232  0.43395  0.17679  1.0000
  H   H292      1.0  0.10932  0.53757  0.21157  1.0000
  C   C364      1.0  0.95879  0.42338  0.22077  1.0000
  H   H293      1.0  0.75681  0.43070  0.19935  1.0000
  P   P14       1.0  0.89350  0.37138  0.21610  1.0000
  H   H294      1.0  0.81881  0.34172  0.18238  1.0000
  H   H295      1.0  0.93539  0.44527  0.15857  1.0000
  C   C365      1.0  0.85051  0.33920  0.18026  1.0000
  H   H296      1.0  0.86514  0.39825  0.04903  1.0000
  C   C366      1.0  0.22928  0.48432  0.21120  1.0000
  C   C367      1.0  0.14257  0.44660  0.13001  1.0000
  S   S52       1.0  0.18392  0.32233  0.19653  1.0000
  C   C368      1.0  0.08678  0.42514  0.98822  1.0000
  H   H297      1.0  0.00541  0.46394  0.22335  1.0000
  H   H298      1.0  0.96664  0.33321  0.16755  1.0000
  C   C369      1.0  0.14088  0.53585  0.20573  1.0000
  C   C370      1.0  0.26774  0.48866  0.19410  1.0000
  C   C371      1.0  0.85265  0.32656  0.16118  1.0000
  H   H299      1.0  0.76109  0.32888  0.01927  1.0000
  C   C372      1.0  0.86372  0.50109  0.21670  1.0000
  C   C373      1.0  0.88284  0.55076  0.21383  1.0000
  C   C374      1.0  0.13542  0.51202  0.20794  1.0000
  C   C375      1.0  0.14279  0.47603  0.15628  1.0000
  C   C376      1.0  0.94662  0.40335  0.20672  1.0000
  Fe  Fe25      1.0  0.06484  0.59528  0.18989  1.0000
  C   C377      1.0  0.13474  0.46618  0.13435  1.0000
  C   C378      1.0  0.15925  0.43707  0.14750  1.0000
  H   H300      1.0  0.25301  0.52974  0.18347  1.0000
  H   H301      1.0  0.09246  0.42334  0.20466  1.0000
  C   C379      1.0  0.89028  0.34978  0.19513  1.0000
  H   H302      1.0  0.40498  0.36096  0.20869  1.0000
  H   H303      1.0  0.89696  0.31550  0.14124  1.0000
  C   C380      1.0  0.82699  0.39103  0.04411  1.0000
  H   H304      1.0  0.91933  0.45343  0.19871  1.0000
  C   C381      1.0  0.13358  0.42858  0.99262  1.0000
  H   H305      1.0  0.19062  0.57580  0.19364  1.0000
  C   C382      1.0  0.17592  0.50950  0.20033  1.0000
  C   C383      1.0  0.18655  0.55734  0.19560  1.0000
  C   C384      1.0  0.90518  0.54377  0.19658  1.0000
  C   C385      1.0  0.93361  0.33433  0.17146  1.0000
  S   S53       1.0  0.01607  0.59418  0.22074  1.0000
  C   C386      1.0  0.89625  0.51919  0.19809  1.0000
  C   C387      1.0  0.86356  0.46228  0.18974  1.0000
  C   C388      1.0  0.83844  0.46504  0.17125  1.0000
  C   C389      1.0  0.84724  0.46003  0.14857  1.0000
  C   C390      1.0  0.89868  0.45519  0.18499  1.0000
  C   C391      1.0  0.39007  0.34695  0.22376  1.0000
  H   H306      1.0  0.26213  0.48863  0.17559  1.0000
  H   H307      1.0  0.00296  0.31180  0.14359  1.0000
  H   H308      1.0  0.71079  0.37659  0.06676  1.0000
  H   H309      1.0  0.86715  0.40307  0.18865  1.0000
  H   H310      1.0  0.34361  0.49649  0.18741  1.0000
  H   H311      1.0  0.78854  0.40326  0.18838  1.0000
  H   H312      1.0  0.81227  0.47121  0.17435  1.0000
  H   H313      1.0  0.82769  0.46209  0.13436  1.0000
  H   H314      1.0  0.93041  0.55764  0.18223  1.0000
  C   C392      1.0  0.22683  0.55499  0.18771  1.0000
  H   H315      1.0  0.12157  0.47347  0.12076  1.0000
  P   P15       1.0  0.85288  0.46941  0.21890  1.0000
  C   C393      1.0  0.15902  0.46634  0.17408  1.0000
  H   H316      1.0  0.13573  0.49097  0.15919  1.0000
  C   C394      1.0  0.99696  0.44852  0.21269  1.0000
  C   C395      1.0  0.76638  0.37464  0.01459  1.0000
  C   C396      1.0  0.81554  0.38413  0.02136  1.0000
  H   H317      1.0  0.84487  0.38581  0.00909  1.0000
  C   C397      1.0  0.78922  0.38823  0.06049  1.0000
  C   C398      1.0  0.74010  0.37893  0.05393  1.0000
  C   C399      1.0  0.72861  0.37217  0.03104  1.0000
  C   C400      1.0  0.02310  0.45382  0.19053  1.0000
  C   C401      1.0  0.93177  0.34708  0.19055  1.0000
  H   H318      1.0  0.96452  0.35639  0.20058  1.0000
  H   H319      1.0  0.21705  0.40567  0.20023  1.0000
  H   H320      1.0  0.26201  0.57167  0.17964  1.0000
  H   H321      1.0  0.69011  0.36457  0.02653  1.0000
  C   C402      1.0  0.16704  0.44671  0.16949  1.0000
  C   C403      1.0  0.31439  0.49342  0.20070  1.0000
  C   C404      1.0  0.89431  0.32425  0.15668  1.0000
  H   H322      1.0  0.79791  0.39299  0.07834  1.0000
  C   C405      1.0  0.08727  0.43034  0.22073  1.0000
  C   C406      1.0  0.26344  0.41473  0.22929  1.0000
  H   H323      1.0  0.09940  0.49571  0.21544  1.0000
  C   C407      1.0  0.83619  0.37174  0.21580  1.0000
  H   H324      1.0  0.05757  0.41950  0.00257  1.0000
  C   C408      1.0  0.18667  0.41539  0.22954  1.0000
  H   H325      1.0  0.99272  0.31493  0.20942  1.0000
  C   C409      1.0  0.78953  0.31032  0.99902  1.0000
  H   H326      1.0  0.71112  0.37081  0.21393  1.0000
  H   H327      1.0  0.89100  0.57006  0.21284  1.0000
  C   C410      1.0  0.77330  0.32716  0.00179  1.0000
  H   H328      1.0  0.45487  0.34288  0.22213  1.0000
  H   H329      1.0  0.67186  0.39855  0.21799  1.0000
  C   C411      1.0  0.74992  0.42987  0.21814  1.0000
  S   S54       1.0  0.50874  0.30363  0.20459  1.0000
  Fe  Fe26      1.0  0.16195  0.62907  0.21293  1.0000
  C   C412      1.0  0.68338  0.34595  0.98408  1.0000
  C   C413      1.0  0.74697  0.35275  0.22887  1.0000
  S   S55       1.0  0.30975  0.35386  0.22656  1.0000
  Fe  Fe27      1.0  0.07327  0.63613  0.22155  1.0000
  H   H330      1.0  0.67006  0.30833  0.99227  1.0000
  H   H331      1.0  0.05523  0.30554  0.17109  1.0000
  C   C414      1.0  0.96284  0.30575  0.22383  1.0000
  H   H332      1.0  0.83925  0.41709  0.98347  1.0000
  C   C415      1.0  0.70128  0.41144  0.22869  1.0000
  C   C416      1.0  0.60040  0.30618  0.98693  1.0000
  H   H333      1.0  0.35997  0.49848  0.22938  1.0000
  H   H334      1.0  0.53669  0.30965  0.98077  1.0000
  C   C417      1.0  0.57754  0.31976  0.98172  1.0000
  H   H335      1.0  0.17234  0.41302  0.34000  1.0000
  H   H336      1.0  0.92036  0.35308  0.31114  1.0000
  H   H337      1.0  0.28730  0.31491  0.26420  1.0000
  C   C418      1.0  0.57749  0.40929  0.25733  1.0000
  C   C419      1.0  0.89789  0.46928  0.23753  1.0000
  Fe  Fe28      1.0  0.99925  0.44786  0.35056  1.0000
  S   S56       1.0  0.96748  0.42379  0.32088  1.0000
  Fe  Fe29      1.0  0.93887  0.40186  0.38722  1.0000
  S   S57       1.0  0.90341  0.37416  0.35908  1.0000
  S   S58       1.0  0.91947  0.38450  0.42568  1.0000
  Fe  Fe30      1.0  0.98222  0.39636  0.33997  1.0000
  S   S59       1.0  0.02773  0.38859  0.31346  1.0000
  Fe  Fe31      1.0  0.89178  0.40380  0.34201  1.0000
  S   S60       1.0  0.82663  0.39969  0.32196  1.0000
  S   S61       1.0  0.01834  0.42163  0.36886  1.0000
  S   S62       1.0  0.92241  0.43027  0.37097  1.0000
  C   C420      1.0  0.92505  0.39768  0.45331  1.0000
  C   C421      1.0  0.95011  0.42401  0.45522  1.0000
  H   H338      1.0  0.62176  0.44255  0.27594  1.0000
  H   H339      1.0  0.37536  0.33686  0.37833  1.0000
  H   H340      1.0  0.96582  0.43712  0.43950  1.0000
  H   H341      1.0  0.28517  0.48554  0.30444  1.0000
  C   C422      1.0  0.06027  0.32645  0.30002  1.0000
  C   C423      1.0  0.39319  0.47815  0.29202  1.0000
  H   H342      1.0  0.82379  0.31821  0.34516  1.0000
  C   C424      1.0  0.03841  0.36395  0.30903  1.0000
  C   C425      1.0  0.06541  0.36576  0.28792  1.0000
  C   C426      1.0  0.07641  0.34720  0.28346  1.0000
  Fe  Fe32      1.0  0.12204  0.31042  0.26026  1.0000
  C   C427      1.0  0.40358  0.47343  0.31449  1.0000
  H   H343      1.0  0.07816  0.38170  0.27490  1.0000
  H   H344      1.0  0.09751  0.34906  0.26715  1.0000
  H   H345      1.0  0.18811  0.59681  0.24919  1.0000
  C   C428      1.0  0.69760  0.32994  0.29001  1.0000
  C   C429      1.0  0.72897  0.32687  0.30479  1.0000
  C   C430      1.0  0.76887  0.34797  0.31469  1.0000
  C   C431      1.0  0.77798  0.37240  0.30969  1.0000
  C   C432      1.0  0.74697  0.37545  0.29470  1.0000
  C   C433      1.0  0.70677  0.35436  0.28503  1.0000
  S   S63       1.0  0.43686  0.30786  0.26311  1.0000
  H   H346      1.0  0.79217  0.34532  0.32636  1.0000
  H   H347      1.0  0.75420  0.39429  0.29057  1.0000
  H   H348      1.0  0.68309  0.35703  0.27362  1.0000
  S   S64       1.0  0.01724  0.55597  0.27183  1.0000
  S   S65       1.0  0.06393  0.48873  0.33983  1.0000
  C   C434      1.0  0.03199  0.53765  0.29024  1.0000
  C   C435      1.0  0.08056  0.54152  0.28927  1.0000
  C   C436      1.0  0.09015  0.52642  0.30455  1.0000
  C   C437      1.0  0.05084  0.50688  0.32029  1.0000
  C   C438      1.0  0.00200  0.50254  0.32072  1.0000
  C   C439      1.0  0.99283  0.51808  0.30595  1.0000
  H   H349      1.0  0.11052  0.55597  0.27674  1.0000
  H   H350      1.0  0.12799  0.52979  0.30409  1.0000
  H   H351      1.0  0.97148  0.48751  0.33276  1.0000
  H   H352      1.0  0.95498  0.51474  0.30655  1.0000
  C   C440      1.0  0.20352  0.37994  0.30461  1.0000
  C   C441      1.0  0.17750  0.35642  0.31814  1.0000
  C   C442      1.0  0.14920  0.35324  0.33917  1.0000
  C   C443      1.0  0.14736  0.37371  0.34685  1.0000
  C   C444      1.0  0.17391  0.39739  0.33353  1.0000
  H   H353      1.0  0.28298  0.42967  0.33811  1.0000
  H   H354      1.0  0.37169  0.45234  0.34845  1.0000
  H   H355      1.0  0.22461  0.38175  0.28826  1.0000
  C   C445      1.0  0.40045  0.31936  0.25138  1.0000
  C   C446      1.0  0.19212  0.42224  0.25259  1.0000
  C   C447      1.0  0.84200  0.30836  0.33954  1.0000
  H   H356      1.0  0.95201  0.33836  0.27954  1.0000
  C   C448      1.0  0.21187  0.45061  0.30192  1.0000
  C   C449      1.0  0.55006  0.33189  0.32234  1.0000
  H   H357      1.0  0.74569  0.40982  0.33313  1.0000
  C   C450      1.0  0.34291  0.46532  0.28601  1.0000
  H   H358      1.0  0.00143  0.34187  0.34204  1.0000
  C   C451      1.0  0.31336  0.44303  0.32501  1.0000
  H   H359      1.0  0.83467  0.53869  0.24619  1.0000
  H   H360      1.0  0.58083  0.42012  0.24116  1.0000
  C   C452      1.0  0.96637  0.47011  0.26804  1.0000
  H   H361      1.0  0.15504  0.49066  0.31969  1.0000
  C   C453      1.0  0.11053  0.62746  0.31129  1.0000
  H   H362      1.0  0.28149  0.61871  0.25052  1.0000
  C   C454      1.0  0.95574  0.43346  0.47758  1.0000
  C   C455      1.0  0.36367  0.45593  0.33099  1.0000
  P   P16       1.0  0.56022  0.36286  0.32660  1.0000
  C   C456      1.0  0.50320  0.35605  0.34354  1.0000
  C   C457      1.0  0.61665  0.38156  0.34177  1.0000
  C   C458      1.0  0.66465  0.38993  0.33033  1.0000
  C   C459      1.0  0.70551  0.41019  0.36466  1.0000
  C   C460      1.0  0.65801  0.40241  0.37601  1.0000
  C   C461      1.0  0.61365  0.38819  0.36462  1.0000
  C   C462      1.0  0.47385  0.36533  0.33535  1.0000
  C   C463      1.0  0.42793  0.35841  0.34790  1.0000
  C   C464      1.0  0.41100  0.34222  0.36867  1.0000
  C   C465      1.0  0.72850  0.42591  0.26673  1.0000
  C   C466      1.0  0.48565  0.33958  0.36429  1.0000
  C   C467      1.0  0.56878  0.38094  0.29910  1.0000
  C   C468      1.0  0.59598  0.40778  0.29778  1.0000
  C   C469      1.0  0.60054  0.42187  0.27692  1.0000
  H   H363      1.0  0.40523  0.36543  0.34134  1.0000
  C   C470      1.0  0.55011  0.38265  0.25858  1.0000
  C   C471      1.0  0.54590  0.36856  0.27933  1.0000
  C   C472      1.0  0.17104  0.47966  0.31448  1.0000
  C   C473      1.0  0.08026  0.55031  0.37222  1.0000
  H   H364      1.0  0.09768  0.44498  0.31355  1.0000
  H   H365      1.0  0.17823  0.58358  0.32976  1.0000
  H   H366      1.0  0.05357  0.43033  0.43301  1.0000
  H   H367      1.0  0.66771  0.38491  0.31274  1.0000
  H   H368      1.0  0.65563  0.40729  0.39374  1.0000
  H   H369      1.0  0.57740  0.38247  0.37375  1.0000
  H   H370      1.0  0.48565  0.37751  0.31909  1.0000
  C   C474      1.0  0.02476  0.60599  0.29873  1.0000
  C   C475      1.0  0.25848  0.61946  0.26490  1.0000
  C   C476      1.0  0.20171  0.40061  0.31211  1.0000
  C   C477      1.0  0.06216  0.42879  0.45091  1.0000
  H   H371      1.0  0.61332  0.41784  0.31289  1.0000
  C   C478      1.0  0.98096  0.49161  0.25275  1.0000
  C   C479      1.0  0.88438  0.44727  0.25210  1.0000
  C   C480      1.0  0.06328  0.60494  0.30910  1.0000
  H   H372      1.0  0.52468  0.34804  0.27972  1.0000
  H   H373      1.0  0.12764  0.33469  0.34914  1.0000
  C   C481      1.0  0.14725  0.57967  0.34232  1.0000
  P   P17       1.0  0.23739  0.43126  0.29498  1.0000
  C   C482      1.0  0.90500  0.38105  0.47410  1.0000
  H   H374      1.0  0.01552  0.31660  0.25026  1.0000
  S   S66       1.0  0.58722  0.33827  0.24367  1.0000
  C   C483      1.0  0.93103  0.34707  0.27521  1.0000
  H   H375      1.0  0.16309  0.42423  0.26132  1.0000
  H   H376      1.0  0.17790  0.34035  0.31191  1.0000
  H   H377      1.0  0.62253  0.34008  0.33373  1.0000
  C   C484      1.0  0.85116  0.53308  0.23258  1.0000
  C   C485      1.0  0.02164  0.34313  0.32561  1.0000
  H   H378      1.0  0.02003  0.30841  0.33400  1.0000
  C   C486      1.0  0.91363  0.35565  0.29314  1.0000
  C   C487      1.0  0.88938  0.36839  0.28780  1.0000
  C   C488      1.0  0.06494  0.56757  0.37429  1.0000
  H   H379      1.0  0.98902  0.58844  0.29651  1.0000
  H   H380      1.0  0.93733  0.34390  0.23845  1.0000
  H   H381      1.0  0.71248  0.33802  0.23914  1.0000
  C   C489      1.0  0.77723  0.44426  0.25628  1.0000
  C   C490      1.0  0.89933  0.36377  0.24626  1.0000
  H   H382      1.0  0.13328  0.41960  0.30186  1.0000
  C   C491      1.0  0.92333  0.35073  0.25186  1.0000
  Fe  Fe33      1.0  0.50309  0.30873  0.24303  1.0000
  H   H383      1.0  0.29344  0.49218  0.25968  1.0000
  C   C492      1.0  0.17636  0.60923  0.28204  1.0000
  H   H384      1.0  0.84748  0.42973  0.25189  1.0000
  H   H385      1.0  0.07728  0.60369  0.36158  1.0000
  H   H386      1.0  0.72037  0.42437  0.28555  1.0000
  H   H387      1.0  0.80633  0.45659  0.26735  1.0000
  H   H388      1.0  0.73985  0.42088  0.37358  1.0000
  C   C493      1.0  0.15896  0.43957  0.30438  1.0000
  H   H389      1.0  0.01834  0.50883  0.25295  1.0000
  H   H390      1.0  0.53203  0.37277  0.24345  1.0000
  C   C494      1.0  0.78871  0.44620  0.23190  1.0000
  H   H391      1.0  0.42417  0.49172  0.27924  1.0000
  H   H392      1.0  0.99225  0.47077  0.28036  1.0000
  H   H393      1.0  0.90654  0.43133  0.27974  1.0000
  C   C495      1.0  0.88244  0.37257  0.26453  1.0000
  H   H394      1.0  0.01262  0.38784  0.45504  1.0000
  Fe  Fe34      1.0  0.59609  0.30538  0.25261  1.0000
  H   H395      1.0  0.33559  0.46923  0.26857  1.0000
  C   C496      1.0  0.43985  0.33281  0.37685  1.0000
  H   H396      1.0  0.86438  0.38303  0.26095  1.0000
  H   H397      1.0  0.11280  0.46936  0.45206  1.0000
  C   C497      1.0  0.12158  0.55645  0.35638  1.0000
  C   C498      1.0  0.13868  0.45394  0.31087  1.0000
  C   C499      1.0  0.70882  0.40401  0.34180  1.0000
  C   C500      1.0  0.35293  0.31158  0.26309  1.0000
  H   H398      1.0  0.47452  0.31644  0.31090  1.0000
  C   C501      1.0  0.58665  0.32615  0.32749  1.0000
  C   C502      1.0  0.50369  0.31270  0.31472  1.0000
  C   C503      1.0  0.10967  0.46448  0.24570  1.0000
  C   C504      1.0  0.07003  0.44716  0.26243  1.0000
  C   C505      1.0  0.03970  0.42139  0.25851  1.0000
  C   C506      1.0  0.91811  0.44793  0.26769  1.0000
  H   H399      1.0  0.79209  0.33874  0.24107  1.0000
  Fe  Fe35      1.0  0.06604  0.58763  0.24286  1.0000
  C   C507      1.0  0.26858  0.42115  0.25249  1.0000
  C   C508      1.0  0.24424  0.47648  0.30580  1.0000
  C   C509      1.0  0.13167  0.59700  0.34403  1.0000
  C   C510      1.0  0.94678  0.49133  0.23771  1.0000
  C   C511      1.0  0.22383  0.49096  0.31186  1.0000
  H   H400      1.0  0.87708  0.37560  0.30170  1.0000
  H   H401      1.0  0.13331  0.48428  0.24933  1.0000
  H   H402      1.0  0.06294  0.45362  0.27857  1.0000
  H   H403      1.0  0.00921  0.40794  0.27156  1.0000
  C   C512      1.0  0.20587  0.60729  0.26406  1.0000
  C   C513      1.0  0.23350  0.42546  0.26424  1.0000
  H   H404      1.0  0.88535  0.36066  0.47293  1.0000
  P   P18       1.0  0.16064  0.62571  0.32408  1.0000
  C   C514      1.0  0.30262  0.44747  0.30240  1.0000
  C   C515      1.0  0.03233  0.32431  0.32104  1.0000
  H   H405      1.0  0.12465  0.37111  0.36296  1.0000
  H   H406      1.0  0.24881  0.51085  0.31499  1.0000
  C   C516      1.0  0.32366  0.32100  0.25494  1.0000
  H   H407      1.0  0.03253  0.56263  0.38643  1.0000
  H   H408      1.0  0.13266  0.54277  0.35452  1.0000
  H   H409      1.0  0.44255  0.48336  0.31914  1.0000
  C   C517      1.0  0.34244  0.33907  0.23543  1.0000
  C   C518      1.0  0.19941  0.62377  0.30078  1.0000
  H   H410      1.0  0.05966  0.53195  0.38258  1.0000
  C   C519      1.0  0.09050  0.59083  0.36026  1.0000
  H   H411      1.0  0.29896  0.42179  0.26142  1.0000
  H   H412      1.0  0.05637  0.58636  0.31467  1.0000
  C   C520      1.0  0.03900  0.40477  0.46338  1.0000
  H   H413      1.0  0.81747  0.49518  0.24887  1.0000
  H   H414      1.0  0.21064  0.48281  0.24852  1.0000
  C   C521      1.0  0.03323  0.62943  0.29007  1.0000
  H   H415      1.0  0.72209  0.30803  0.30876  1.0000
  H   H416      1.0  0.13557  0.59952  0.28121  1.0000
  H   H417      1.0  0.42655  0.32009  0.39286  1.0000
  C   C522      1.0  0.28152  0.63317  0.28398  1.0000
  H   H418      1.0  0.93823  0.41970  0.23773  1.0000
  H   H419      1.0  0.50722  0.33178  0.37059  1.0000
  S   S67       1.0  0.17974  0.34953  0.24316  1.0000
  C   C523      1.0  0.23899  0.48561  0.23494  1.0000
  C   C524      1.0  0.04874  0.41295  0.23781  1.0000
  C   C525      1.0  0.69085  0.40919  0.25299  1.0000
  C   C526      1.0  0.97574  0.30673  0.24690  1.0000
  C   C527      1.0  0.25205  0.63506  0.30202  1.0000
  H   H420      1.0  0.65366  0.39436  0.26114  1.0000
  C   C528      1.0  0.09520  0.45074  0.46172  1.0000
  S   S68       1.0  0.12056  0.62967  0.24582  1.0000
  H   H421      1.0  0.97574  0.45385  0.47878  1.0000
  C   C529      1.0  0.84154  0.50834  0.23403  1.0000
  H   H422      1.0  0.88766  0.31785  0.36888  1.0000
  C   C530      1.0  0.87789  0.30811  0.35295  1.0000
  H   H423      1.0  0.02556  0.39292  0.23488  1.0000
  C   C531      1.0  0.28605  0.49084  0.24142  1.0000
  H   H424      1.0  0.00410  0.63012  0.28114  1.0000
  C   C532      1.0  0.41853  0.33680  0.23141  1.0000
  S   S69       1.0  0.07569  0.30345  0.29492  1.0000
  Fe  Fe36      1.0  0.22307  0.33232  0.22997  1.0000
  C   C533      1.0  0.79193  0.35308  0.22971  1.0000
  Fe  Fe37      1.0  0.93242  0.41884  0.56625  1.0000
  S   S70       1.0  0.93035  0.44753  0.58851  1.0000
  S   S71       1.0  0.94566  0.43017  0.52615  1.0000
  Fe  Fe38      1.0  0.92205  0.38527  0.61032  1.0000
  S   S72       1.0  0.91839  0.41134  0.63451  1.0000
  S   S73       1.0  0.92676  0.35374  0.62942  1.0000
  Fe  Fe39      1.0  0.86593  0.41330  0.61053  1.0000
  S   S74       1.0  0.79253  0.40630  0.62921  1.0000
  Fe  Fe40      1.0  0.98292  0.44310  0.61108  1.0000
  S   S75       1.0  0.04738  0.47502  0.62912  1.0000
  S   S76       1.0  0.86462  0.38458  0.58737  1.0000
  S   S77       1.0  0.99002  0.41720  0.58764  1.0000
  Fe  Fe41      1.0  0.26344  0.48139  0.70577  1.0000
  S   S78       1.0  0.20525  0.45796  0.68021  1.0000
  H   H425      1.0  0.82068  0.49241  0.61936  1.0000
  H   H426      1.0  0.07979  0.38085  0.65870  1.0000
  S   S79       1.0  0.75695  0.49410  0.65648  1.0000
  C   C534      1.0  0.49585  0.54123  0.72299  1.0000
  C   C535      1.0  0.87982  0.44163  0.71661  1.0000
  C   C536      1.0  0.59718  0.60568  0.69672  1.0000
  C   C537      1.0  0.96988  0.40664  0.68249  1.0000
  C   C538      1.0  0.72726  0.34650  0.70345  1.0000
  H   H427      1.0  0.83459  0.38558  0.66696  1.0000
  H   H428      1.0  0.82105  0.33312  0.62184  1.0000
  H   H429      1.0  0.99336  0.41591  0.66609  1.0000
  C   C539      1.0  0.78337  0.43105  0.63634  1.0000
  C   C540      1.0  0.80938  0.45495  0.62336  1.0000
  C   C541      1.0  0.80071  0.47405  0.62959  1.0000
  C   C542      1.0  0.76687  0.46964  0.64911  1.0000
  C   C543      1.0  0.74128  0.44581  0.66219  1.0000
  C   C544      1.0  0.74919  0.42660  0.65570  1.0000
  H   H430      1.0  0.83584  0.45865  0.60842  1.0000
  H   H431      1.0  0.71495  0.44205  0.67716  1.0000
  H   H432      1.0  0.72927  0.40834  0.66597  1.0000
  H   H433      1.0  0.85070  0.35168  0.67774  1.0000
  C   C545      1.0  0.09053  0.46999  0.64368  1.0000
  C   C546      1.0  0.12543  0.48869  0.65742  1.0000
  C   C547      1.0  0.16079  0.48538  0.66886  1.0000
  C   C548      1.0  0.16163  0.46333  0.66654  1.0000
  C   C549      1.0  0.12698  0.44478  0.65264  1.0000
  C   C550      1.0  0.09146  0.44798  0.64138  1.0000
  H   H434      1.0  0.12511  0.50583  0.65921  1.0000
  H   H435      1.0  0.18737  0.49984  0.67943  1.0000
  H   H436      1.0  0.12790  0.42789  0.65043  1.0000
  H   H437      1.0  0.06517  0.43356  0.63067  1.0000
  C   C551      1.0  0.93593  0.41683  0.49840  1.0000
  C   C552      1.0  0.90994  0.39048  0.49643  1.0000
  H   H438      1.0  0.13005  0.46591  0.49327  1.0000
  H   H439      1.0  0.89366  0.37735  0.51211  1.0000
  S   S80       1.0  0.34724  0.49858  0.69646  1.0000
  Fe  Fe42      1.0  0.72664  0.49356  0.69361  1.0000
  C   C553      1.0  0.19597  0.44447  0.52837  1.0000
  H   H440      1.0  0.65316  0.35951  0.63055  1.0000
  C   C554      1.0  0.86942  0.32693  0.64281  1.0000
  C   C555      1.0  0.95569  0.38184  0.68997  1.0000
  S   S81       1.0  0.77714  0.52524  0.71561  1.0000
  S   S82       1.0  0.65949  0.49718  0.70195  1.0000
  C   C556      1.0  0.03794  0.39380  0.54462  1.0000
  C   C557      1.0  0.95445  0.35175  0.57143  1.0000
  Fe  Fe43      1.0  0.34594  0.47543  0.72816  1.0000
  C   C558      1.0  0.67439  0.61163  0.67785  1.0000
  H   H441      1.0  0.60480  0.62722  0.55107  1.0000
  C   C559      1.0  0.79126  0.63022  0.70748  1.0000
  H   H442      1.0  0.62973  0.58434  0.70747  1.0000
  H   H443      1.0  0.90799  0.35778  0.54886  1.0000
  H   H444      1.0  0.91853  0.35156  0.71802  1.0000
  H   H445      1.0  0.09857  0.49891  0.58139  1.0000
  Fe  Fe44      1.0  0.70779  0.52589  0.72665  1.0000
  H   H446      1.0  0.70343  0.60710  0.67719  1.0000
  C   C560      1.0  0.78093  0.32911  0.70037  1.0000
  H   H447      1.0  0.18803  0.38047  0.52358  1.0000
  H   H448      1.0  0.86555  0.45519  0.66032  1.0000
  C   C561      1.0  0.64788  0.35518  0.69038  1.0000
  C   C562      1.0  0.62521  0.36912  0.69470  1.0000
  C   C563      1.0  0.61263  0.37944  0.67600  1.0000
  C   C564      1.0  0.62236  0.37583  0.65290  1.0000
  C   C565      1.0  0.64396  0.36156  0.64849  1.0000
  C   C566      1.0  0.65628  0.35107  0.66714  1.0000
  C   C567      1.0  0.04822  0.40266  0.48677  1.0000
  C   C568      1.0  0.87600  0.43985  0.69239  1.0000
  C   C569      1.0  0.07995  0.42469  0.49804  1.0000
  H   H449      1.0  0.05378  0.48795  0.54504  1.0000
  H   H450      1.0  0.57700  0.30407  0.69441  1.0000
  H   H451      1.0  0.56590  0.59631  0.71044  1.0000
  H   H452      1.0  0.19891  0.46255  0.52929  1.0000
  Fe  Fe45      1.0  0.35812  0.52728  0.72202  1.0000
  H   H453      1.0  0.59681  0.39094  0.67940  1.0000
  H   H454      1.0  0.61447  0.38468  0.63839  1.0000
  H   H455      1.0  0.53740  0.63509  0.64031  1.0000
  C   C570      1.0  0.61299  0.63373  0.56846  1.0000
  H   H456      1.0  0.46629  0.54517  0.72597  1.0000
  H   H457      1.0  0.05224  0.45565  0.52152  1.0000
  H   H458      1.0  0.78720  0.59439  0.70613  1.0000
  C   C571      1.0  0.76939  0.60381  0.71326  1.0000
  H   H459      1.0  0.84737  0.48456  0.67981  1.0000
  C   C572      1.0  0.09934  0.48524  0.57064  1.0000
  C   C573      1.0  0.46023  0.59149  0.72721  1.0000
  C   C574      1.0  0.07435  0.47916  0.55014  1.0000
  C   C575      1.0  0.41920  0.45040  0.67164  1.0000
  C   C576      1.0  0.43463  0.43349  0.67677  1.0000
  C   C577      1.0  0.48599  0.44290  0.67907  1.0000
  C   C578      1.0  0.52198  0.46921  0.67621  1.0000
  C   C579      1.0  0.50701  0.48630  0.67038  1.0000
  C   C580      1.0  0.45516  0.47672  0.66859  1.0000
  P   P19       1.0  0.55223  0.52037  0.66861  1.0000
  C   C581      1.0  0.54283  0.52977  0.69681  1.0000
  C   C582      1.0  0.61653  0.52840  0.66109  1.0000
  C   C583      1.0  0.65810  0.54864  0.67081  1.0000
  C   C584      1.0  0.70747  0.55423  0.66537  1.0000
  C   C585      1.0  0.71583  0.53984  0.65000  1.0000
  C   C586      1.0  0.67497  0.52022  0.63963  1.0000
  C   C587      1.0  0.62559  0.51474  0.64486  1.0000
  C   C588      1.0  0.57061  0.52999  0.71541  1.0000
  C   C589      1.0  0.01656  0.35159  0.72188  1.0000
  H   H460      1.0  0.27191  0.42062  0.52568  1.0000
  H   H461      1.0  0.84970  0.48645  0.72285  1.0000
  C   C590      1.0  0.50434  0.53477  0.70097  1.0000
  C   C591      1.0  0.53918  0.53599  0.64519  1.0000
  C   C592      1.0  0.54940  0.56070  0.64693  1.0000
  C   C593      1.0  0.53788  0.57252  0.62914  1.0000
  C   C594      1.0  0.51743  0.56004  0.60914  1.0000
  C   C595      1.0  0.50864  0.53575  0.60693  1.0000
  C   C596      1.0  0.51960  0.52376  0.62486  1.0000
  H   H462      1.0  0.37903  0.44318  0.67111  1.0000
  H   H463      1.0  0.40649  0.41319  0.68002  1.0000
  H   H464      1.0  0.49768  0.42991  0.68422  1.0000
  H   H465      1.0  0.56099  0.47609  0.67940  1.0000
  H   H466      1.0  0.44219  0.48957  0.66555  1.0000
  H   H467      1.0  0.65256  0.55973  0.68308  1.0000
  H   H468      1.0  0.73906  0.56922  0.67365  1.0000
  H   H469      1.0  0.75378  0.54346  0.64649  1.0000
  H   H470      1.0  0.68165  0.50884  0.62804  1.0000
  H   H471      1.0  0.59442  0.49940  0.63671  1.0000
  H   H472      1.0  0.59837  0.52474  0.71306  1.0000
  C   C597      1.0  0.85741  0.47354  0.71436  1.0000
  H   H473      1.0  0.90698  0.31574  0.66654  1.0000
  C   C598      1.0  0.19024  0.39832  0.52500  1.0000
  H   H474      1.0  0.48034  0.53342  0.68736  1.0000
  H   H475      1.0  0.56555  0.57068  0.66217  1.0000
  H   H476      1.0  0.54438  0.59125  0.63101  1.0000
  H   H477      1.0  0.50825  0.56917  0.59542  1.0000
  H   H478      1.0  0.49286  0.52606  0.59143  1.0000
  H   H479      1.0  0.51247  0.50491  0.62293  1.0000
  S   S83       1.0  0.70202  0.46185  0.72185  1.0000
  H   H480      1.0  0.06030  0.45913  0.70451  1.0000
  C   C599      1.0  0.07380  0.43153  0.72068  1.0000
  H   H481      1.0  0.02976  0.38385  0.49607  1.0000
  C   C600      1.0  0.92146  0.40719  0.71680  1.0000
  C   C601      1.0  0.85604  0.47248  0.69011  1.0000
  C   C602      1.0  0.98802  0.38508  0.53946  1.0000
  C   C603      1.0  0.94645  0.36399  0.55265  1.0000
  C   C604      1.0  0.06245  0.37256  0.67636  1.0000
  C   C605      1.0  0.23750  0.42094  0.52613  1.0000
  H   H482      1.0  0.12275  0.49448  0.72636  1.0000
  C   C606      1.0  0.67906  0.63073  0.66198  1.0000
  S   S84       1.0  0.41467  0.56913  0.70976  1.0000
  H   H483      1.0  0.63682  0.60821  0.57882  1.0000
  H   H484      1.0  0.67419  0.34063  0.66328  1.0000
  C   C607      1.0  0.49554  0.61636  0.71699  1.0000
  C   C608      1.0  0.06027  0.37648  0.71841  1.0000
  C   C609      1.0  0.04569  0.38180  0.56390  1.0000
  C   C610      1.0  0.64197  0.63153  0.60645  1.0000
  H   H485      1.0  0.08363  0.38915  0.56916  1.0000
  H   H486      1.0  0.13852  0.44379  0.57130  1.0000
  H   H487      1.0  0.65581  0.62287  0.61809  1.0000
  H   H488      1.0  0.61842  0.37269  0.71240  1.0000
  H   H489      1.0  0.74827  0.39836  0.71736  1.0000
  H   H490      1.0  0.96660  0.37167  0.67887  1.0000
  C   C611      1.0  0.87078  0.31110  0.66076  1.0000
  C   C612      1.0  0.80791  0.36952  0.67920  1.0000
  P   P20       1.0  0.09093  0.42214  0.52848  1.0000
  H   H491      1.0  0.10944  0.38109  0.52456  1.0000
  C   C613      1.0  0.99619  0.33734  0.70270  1.0000
  C   C614      1.0  0.14578  0.39871  0.52569  1.0000
  H   H492      1.0  0.11641  0.40607  0.69237  1.0000
  H   H493      1.0  0.92213  0.33595  0.58218  1.0000
  P   P21       1.0  0.66923  0.34420  0.71428  1.0000
  H   H494      1.0  0.00292  0.33698  0.66504  1.0000
  H   H495      1.0  0.27700  0.46160  0.52841  1.0000
  H   H496      1.0  0.00972  0.35200  0.59253  1.0000
  C   C615      1.0  0.00400  0.36076  0.57717  1.0000
  H   H497      1.0  0.49333  0.62147  0.69898  1.0000
  H   H498      1.0  0.04572  0.41629  0.71133  1.0000
  C   C616      1.0  0.14828  0.42172  0.52783  1.0000
  C   C617      1.0  0.63327  0.59902  0.69510  1.0000
  H   H499      1.0  0.75783  0.38280  0.68284  1.0000
  H   H500      1.0  0.47289  0.48489  0.72908  1.0000
  C   C618      1.0  0.01923  0.34778  0.67996  1.0000
  C   C619      1.0  0.09801  0.44836  0.54379  1.0000
  H   H501      1.0  0.16183  0.38876  0.71420  1.0000
  H   H502      1.0  0.88140  0.42653  0.68342  1.0000
  C   C620      1.0  0.86572  0.45576  0.67916  1.0000
  C   C621      1.0  0.12205  0.45415  0.56474  1.0000
  C   C622      1.0  0.76381  0.36779  0.68834  1.0000
  C   C623      1.0  0.73631  0.32712  0.70943  1.0000
  C   C624      1.0  0.07357  0.46077  0.53680  1.0000
  H   H503      1.0  0.24014  0.39092  0.72324  1.0000
  C   C625      1.0  0.95341  0.41943  0.69595  1.0000
  H   H504      1.0  0.96538  0.43878  0.68987  1.0000
  H   H505      1.0  0.57330  0.62945  0.68260  1.0000
  C   C626      1.0  0.12321  0.47275  0.57793  1.0000
  H   H506      1.0  0.14075  0.47682  0.59436  1.0000
  C   C627      1.0  0.08137  0.45574  0.71705  1.0000
  C   C628      1.0  0.81664  0.35030  0.68520  1.0000
  C   C629      1.0  0.24036  0.44402  0.52770  1.0000
  H   H507      1.0  0.98123  0.39515  0.52573  1.0000
  C   C630      1.0  0.08292  0.38683  0.69546  1.0000
  C   C631      1.0  0.82250  0.32095  0.63553  1.0000
  H   H508      1.0  0.70913  0.31018  0.72065  1.0000
  C   C632      1.0  0.86954  0.45832  0.72759  1.0000
  C   C633      1.0  0.92805  0.37046  0.71178  1.0000
  C   C634      1.0  0.60155  0.62460  0.68077  1.0000
  H   H509      1.0  0.96205  0.31831  0.70544  1.0000
  C   C635      1.0  0.11664  0.47568  0.72932  1.0000
  C   C636      1.0  0.62147  0.31117  0.72427  1.0000
  C   C637      1.0  0.72410  0.58974  0.72803  1.0000
  H   H510      1.0  0.78729  0.31393  0.70470  1.0000
  C   C638      1.0  0.10449  0.44871  0.48513  1.0000
  C   C639      1.0  0.91209  0.38335  0.72545  1.0000
  C   C640      1.0  0.63108  0.62305  0.58406  1.0000
  H   H511      1.0  0.97575  0.47904  0.72679  1.0000
  S   S85       1.0  0.36363  0.44446  0.72951  1.0000
  S   S86       1.0  0.27395  0.51149  0.72946  1.0000
  S   S87       1.0  0.04487  0.47092  0.83724  1.0000
  Fe  Fe46      1.0  0.27808  0.48721  0.75878  1.0000
  S   S88       1.0  0.23786  0.47135  0.79559  1.0000
  C   C641      1.0  0.09671  0.47013  0.82440  1.0000
  C   C642      1.0  0.14046  0.49308  0.81458  1.0000
  C   C643      1.0  0.18279  0.49336  0.80446  1.0000
  C   C644      1.0  0.18217  0.47073  0.80458  1.0000
  C   C645      1.0  0.13857  0.44777  0.81457  1.0000
  C   C646      1.0  0.09551  0.44737  0.82396  1.0000
  H   H512      1.0  0.14159  0.51075  0.81486  1.0000
  H   H513      1.0  0.13813  0.43028  0.81516  1.0000
  H   H514      1.0  0.06178  0.42956  0.83123  1.0000
  S   S89       1.0  0.36307  0.50524  0.75308  1.0000
  C   C647      1.0  0.49961  0.60368  0.76382  1.0000
  H   H515      1.0  0.21653  0.51122  0.79726  1.0000
  C   C648      1.0  0.35227  0.46351  0.80294  1.0000
  C   C649      1.0  0.35679  0.48155  0.81790  1.0000
  C   C650      1.0  0.40395  0.50457  0.81873  1.0000
  C   C651      1.0  0.38872  0.54722  0.82111  1.0000
  C   C652      1.0  0.34129  0.55127  0.79060  1.0000
  C   C653      1.0  0.35522  0.53666  0.80354  1.0000
  H   H516      1.0  0.31550  0.44613  0.80184  1.0000
  H   H517      1.0  0.31619  0.54305  0.77676  1.0000
  H   H518      1.0  0.33981  0.51719  0.79957  1.0000
  C   C654      1.0  0.17389  0.48396  0.88509  1.0000
  C   C655      1.0  0.15939  0.46021  0.89661  1.0000
  P   P22       1.0  0.10262  0.44281  0.91710  1.0000
  C   C656      1.0  0.11516  0.43698  0.94654  1.0000
  C   C657      1.0  0.07303  0.46105  0.91827  1.0000
  C   C658      1.0  0.04787  0.46244  0.89922  1.0000
  C   C659      1.0  0.03075  0.47913  0.89855  1.0000
  C   C660      1.0  0.03638  0.49362  0.91733  1.0000
  C   C661      1.0  0.06093  0.49218  0.93650  1.0000
  C   C662      1.0  0.08017  0.47641  0.93676  1.0000
  H   H519      1.0  0.76345  0.42785  0.74751  1.0000
  C   C663      1.0  0.16219  0.44049  0.95111  1.0000
  H   H520      1.0  0.15504  0.49368  0.88993  1.0000
  H   H521      1.0  0.04304  0.45130  0.88449  1.0000
  H   H522      1.0  0.01350  0.48102  0.88327  1.0000
  H   H523      1.0  0.02215  0.50613  0.91688  1.0000
  H   H524      1.0  0.10097  0.47657  0.95135  1.0000
  H   H525      1.0  0.19195  0.44659  0.93710  1.0000
  C   C664      1.0  0.03702  0.47709  0.77338  1.0000
  C   C665      1.0  0.18437  0.44812  0.88921  1.0000
  H   H526      1.0  0.22018  0.51247  0.85646  1.0000
  C   C666      1.0  0.36034  0.57652  0.79519  1.0000
  H   H527      1.0  0.35031  0.58796  0.78477  1.0000
  H   H528      1.0  0.35440  0.54378  0.86863  1.0000
  P   P23       1.0  0.40889  0.52861  0.83687  1.0000
  C   C667      1.0  0.36914  0.51383  0.86422  1.0000
  C   C668      1.0  0.31111  0.49205  0.90775  1.0000
  C   C669      1.0  0.33170  0.47989  0.89617  1.0000
  C   C670      1.0  0.36064  0.49072  0.87450  1.0000
  H   H529      1.0  0.32300  0.47781  0.82819  1.0000
  C   C671      1.0  0.21104  0.49481  0.86598  1.0000
  H   H530      1.0  0.28844  0.48361  0.92446  1.0000
  C   C672      1.0  0.22127  0.45899  0.86997  1.0000
  C   C673      1.0  0.23423  0.48220  0.85825  1.0000
  C   C674      1.0  0.31944  0.51505  0.89769  1.0000
  C   C675      1.0  0.34844  0.52595  0.87605  1.0000
  H   H531      1.0  0.26146  0.49021  0.84284  1.0000
  H   H532      1.0  0.30304  0.52434  0.90656  1.0000
  C   C676      1.0  0.40609  0.57234  0.82623  1.0000
  H   H533      1.0  0.06903  0.48957  0.78300  1.0000
  C   C677      1.0  0.39242  0.58699  0.81312  1.0000
  H   H534      1.0  0.43073  0.58077  0.84013  1.0000
  H   H535      1.0  0.61683  0.33797  0.76103  1.0000
  H   H536      1.0  0.02874  0.41142  0.76999  1.0000
  C   C678      1.0  0.00716  0.45091  0.78032  1.0000
  H   H537      1.0  0.01610  0.44313  0.79523  1.0000
  C   C679      1.0  0.02196  0.39388  0.77860  1.0000
  C   C680      1.0  0.39460  0.46838  0.78857  1.0000
  H   H538      1.0  0.14255  0.40474  0.78515  1.0000
  C   C681      1.0  0.04475  0.38152  0.76926  1.0000
  H   H539      1.0  0.23858  0.44902  0.86356  1.0000
  C   C682      1.0  0.81840  0.30827  0.82138  1.0000
  H   H540      1.0  0.17278  0.42945  0.89730  1.0000
  C   C683      1.0  0.13702  0.44721  0.74880  1.0000
  H   H541      1.0  0.45043  0.40005  0.74346  1.0000
  C   C684      1.0  0.06061  0.41249  0.90541  1.0000
  H   H542      1.0  0.09388  0.42581  0.86935  1.0000
  C   C685      1.0  0.06697  0.40961  0.88150  1.0000
  C   C686      1.0  0.02301  0.39116  0.92018  1.0000
  C   C687      1.0  0.03831  0.38567  0.87287  1.0000
  H   H543      1.0  0.04346  0.38373  0.85440  1.0000
  H   H544      1.0  0.95182  0.35218  0.82620  1.0000
  C   C688      1.0  0.17319  0.39198  0.73183  1.0000
  H   H545      1.0  0.37671  0.48114  0.86591  1.0000
  H   H546      1.0  0.32514  0.46202  0.90396  1.0000
  C   C689      1.0  0.03480  0.35876  0.78110  1.0000
  C   C690      1.0  0.98966  0.38358  0.79933  1.0000
  C   C691      1.0  0.00133  0.36455  0.88778  1.0000
  C   C692      1.0  0.99344  0.36737  0.91136  1.0000
  H   H547      1.0  0.22103  0.40677  0.79377  1.0000
  C   C693      1.0  0.16267  0.40102  0.77163  1.0000
  C   C694      1.0  0.20713  0.40207  0.77664  1.0000
  C   C695      1.0  0.10205  0.42713  0.73636  1.0000
  H   H548      1.0  0.73224  0.36652  0.93676  1.0000
  H   H549      1.0  0.05241  0.34907  0.77429  1.0000
  C   C696      1.0  0.00143  0.34818  0.80160  1.0000
  C   C697      1.0  0.55777  0.58756  0.83850  1.0000
  H   H550      1.0  0.57423  0.58893  0.77830  1.0000
  C   C698      1.0  0.61143  0.57245  0.79567  1.0000
  C   C699      1.0  0.65033  0.61770  0.78510  1.0000
  C   C700      1.0  0.46233  0.58515  0.75073  1.0000
  C   C701      1.0  0.44597  0.50965  0.80370  1.0000
  C   C702      1.0  0.47406  0.54815  0.84433  1.0000
  H   H551      1.0  0.48778  0.45470  0.80139  1.0000
  P   P24       1.0  0.08818  0.39518  0.74290  1.0000
  H   H552      1.0  0.49774  0.57833  0.81661  1.0000
  C   C703      1.0  0.44123  0.49155  0.78870  1.0000
  H   H553      1.0  0.48215  0.52764  0.80325  1.0000
  H   H554      1.0  0.46561  0.52131  0.87266  1.0000
  C   C704      1.0  0.50862  0.57182  0.83166  1.0000
  C   C705      1.0  0.49083  0.53973  0.86293  1.0000
  H   H555      1.0  0.39081  0.45447  0.77683  1.0000
  C   C706      1.0  0.60855  0.59261  0.78575  1.0000
  C   C707      1.0  0.70028  0.39951  0.77136  1.0000
  H   H556      1.0  0.47340  0.49551  0.77686  1.0000
  C   C708      1.0  0.95666  0.43422  0.97165  1.0000
  H   H557      1.0  0.77362  0.40151  0.90486  1.0000
  H   H558      1.0  0.48353  0.47656  0.83581  1.0000
  C   C709      1.0  0.51992  0.47341  0.80439  1.0000
  H   H559      1.0  0.15848  0.44426  0.76136  1.0000
  C   C710      1.0  0.51129  0.46465  0.73443  1.0000
  C   C711      1.0  0.51775  0.48572  0.82379  1.0000
  C   C712      1.0  0.96509  0.43478  0.76836  1.0000
  C   C713      1.0  0.41935  0.44432  0.73350  1.0000
  Fe  Fe47      1.0  0.96716  0.43516  0.84883  1.0000
  H   H560      1.0  0.40713  0.60660  0.81665  1.0000
  C   C714      1.0  0.97871  0.36056  0.81066  1.0000
  H   H561      1.0  0.97190  0.39313  0.80627  1.0000
  H   H562      1.0  0.97770  0.34621  0.88093  1.0000
  Fe  Fe48      1.0  0.85429  0.41705  0.85691  1.0000
  H   H563      1.0  0.27023  0.39990  0.76279  1.0000
  C   C715      1.0  0.75499  0.44527  0.82310  1.0000
  H   H564      1.0  0.96331  0.35131  0.92275  1.0000
  C   C716      1.0  0.02541  0.48712  0.75411  1.0000
  H   H565      1.0  0.50039  0.59895  0.78208  1.0000
  C   C717      1.0  0.91945  0.38232  0.97222  1.0000
  H   H566      1.0  0.90491  0.36215  0.97261  1.0000
  H   H567      1.0  0.99264  0.33025  0.81032  1.0000
  C   C718      1.0  0.14398  0.47133  0.74539  1.0000
  H   H568      1.0  0.84672  0.44395  0.91206  1.0000
  H   H569      1.0  0.86407  0.43021  0.77984  1.0000
  C   C719      1.0  0.82859  0.42877  0.92626  1.0000
  S   S90       1.0  0.89992  0.37876  0.92558  1.0000
  C   C720      1.0  0.95262  0.44480  0.74933  1.0000
  H   H570      1.0  0.55326  0.54869  0.88372  1.0000
  H   H571      1.0  0.87952  0.45148  0.95146  1.0000
  H   H572      1.0  0.80650  0.57929  0.75842  1.0000
  C   C721      1.0  0.92181  0.39566  0.95107  1.0000
  S   S91       1.0  0.69139  0.55633  0.73481  1.0000
  P   P25       1.0  0.66057  0.55127  0.81771  1.0000
  S   S92       1.0  0.55644  0.43649  0.74154  1.0000
  C   C722      1.0  0.54058  0.55521  0.86929  1.0000
  C   C723      1.0  0.74549  0.56840  0.78514  1.0000
  H   H573      1.0  0.55769  0.51900  0.84274  1.0000
  C   C724      1.0  0.84683  0.43301  0.94844  1.0000
  H   H574      1.0  0.82996  0.31491  0.83842  1.0000
  H   H575      1.0  0.56549  0.47588  0.77359  1.0000
  C   C725      1.0  0.56347  0.48542  0.78853  1.0000
  H   H576      1.0  0.51835  0.54753  0.75810  1.0000
  C   C726      1.0  0.94130  0.42182  0.95085  1.0000
  H   H577      1.0  0.94388  0.43244  0.93473  1.0000
  C   C727      1.0  0.82949  0.32589  0.80226  1.0000
  C   C728      1.0  0.69537  0.62270  0.79396  1.0000
  H   H578      1.0  0.17072  0.48667  0.75518  1.0000
  H   H579      1.0  0.43494  0.56612  0.75885  1.0000
  S   S93       1.0  0.68394  0.49660  0.75740  1.0000
  C   C729      1.0  0.66415  0.55217  0.84918  1.0000
  H   H580      1.0  0.58445  0.53702  0.75151  1.0000
  C   C730      1.0  0.84346  0.45936  0.81473  1.0000
  H   H581      1.0  0.72539  0.46084  0.79869  1.0000
  H   H582      1.0  0.58360  0.60621  0.82909  1.0000
  H   H583      1.0  0.77255  0.51773  0.80891  1.0000
  C   C731      1.0  0.78210  0.38907  0.96273  1.0000
  S   S94       1.0  0.83030  0.37666  0.86794  1.0000
  H   H584      1.0  0.82315  0.33052  0.76527  1.0000
  H   H585      1.0  0.65685  0.31106  0.75583  1.0000
  C   C732      1.0  0.64941  0.52975  0.86336  1.0000
  H   H586      1.0  0.64227  0.51292  0.89830  1.0000
  C   C733      1.0  0.57380  0.57926  0.85726  1.0000
  C   C734      1.0  0.75822  0.46035  0.80304  1.0000
  H   H587      1.0  0.73726  0.58176  0.77721  1.0000
  C   C735      1.0  0.79490  0.54888  0.78295  1.0000
  C   C736      1.0  0.81442  0.31700  0.78017  1.0000
  H   H588      1.0  0.82445  0.54722  0.77406  1.0000
  C   C737      1.0  0.07752  0.42919  0.96531  1.0000
  S   S95       1.0  0.81208  0.49601  0.76472  1.0000
  C   C738      1.0  0.82380  0.41327  0.96662  1.0000
  C   C739      1.0  0.65918  0.37416  0.77512  1.0000
  C   C740      1.0  0.67249  0.55323  0.89786  1.0000
  H   H589      1.0  0.69657  0.59291  0.84939  1.0000
  S   S96       1.0  0.90397  0.42118  0.82539  1.0000
  C   C741      1.0  0.65644  0.57729  0.80491  1.0000
  C   C742      1.0  0.65338  0.53028  0.88757  1.0000
  C   C743      1.0  0.76377  0.36863  0.78798  1.0000
  C   C744      1.0  0.80437  0.32164  0.95707  1.0000
  S   S97       1.0  0.95101  0.39599  0.85829  1.0000
  H   H590      1.0  0.04105  0.42659  0.96234  1.0000
  H   H591      1.0  0.63503  0.51178  0.85573  1.0000
  S   S98       1.0  0.86412  0.35923  0.80464  1.0000
  C   C745      1.0  0.68776  0.57567  0.88392  1.0000
  H   H592      1.0  0.88284  0.48630  0.78428  1.0000
  C   C746      1.0  0.71556  0.55173  0.80497  1.0000
  H   H593      1.0  0.94196  0.41453  0.77410  1.0000
  H   H594      1.0  0.63790  0.51893  0.77930  1.0000
  C   C747      1.0  0.84513  0.40223  0.75465  1.0000
  H   H595      1.0  0.70332  0.59356  0.89186  1.0000
  C   C748      1.0  0.55975  0.50972  0.82762  1.0000
  C   C749      1.0  0.83794  0.41074  0.77587  1.0000
  C   C750      1.0  0.21763  0.39300  0.73691  1.0000
  C   C751      1.0  0.76552  0.53223  0.80266  1.0000
  H   H596      1.0  0.73344  0.35549  0.80118  1.0000
  S   S99       1.0  0.91892  0.43455  0.87993  1.0000
  H   H597      1.0  0.37584  0.40325  0.73869  1.0000
  C   C752      1.0  0.78494  0.56698  0.77423  1.0000
  C   C753      1.0  0.60499  0.50955  0.79209  1.0000
  S   S100      1.0  0.79307  0.42603  0.85448  1.0000
  C   C754      1.0  0.79735  0.39398  0.79245  1.0000
  C   C755      1.0  0.84686  0.47463  0.79492  1.0000
  C   C756      1.0  0.78724  0.40480  0.92221  1.0000
  C   C757      1.0  0.68390  0.57520  0.85969  1.0000
  H   H598      1.0  0.73427  0.60681  0.80993  1.0000
  H   H599      1.0  0.89228  0.37457  0.74265  1.0000
  H   H600      1.0  0.63415  0.36778  0.79120  1.0000
  C   C758      1.0  0.69855  0.60261  0.80373  1.0000
  C   C759      1.0  0.76397  0.38505  0.94034  1.0000
  H   H601      1.0  0.67611  0.55368  0.91659  1.0000
  C   C760      1.0  0.72598  0.53358  0.81361  1.0000
  H   H602      1.0  0.87676  0.45947  0.81927  1.0000
  H   H603      1.0  0.70268  0.51984  0.82828  1.0000
  H   H604      1.0  0.71944  0.43404  0.83411  1.0000
  C   C761      1.0  0.79761  0.44471  0.82900  1.0000
  C   C762      1.0  0.76973  0.36025  0.76659  1.0000
  C   C763      1.0  0.80954  0.37714  0.74976  1.0000
  H   H605      1.0  0.57867  0.55321  0.79579  1.0000
  C   C764      1.0  0.60429  0.52140  0.81212  1.0000
  Fe  Fe49      1.0  0.88318  0.38148  0.83706  1.0000
  H   H606      1.0  0.79262  0.40052  0.80901  1.0000
  H   H607      1.0  0.66675  0.59143  0.74859  1.0000
  H   H608      1.0  0.70731  0.41265  0.78454  1.0000
  H   H609      1.0  0.78905  0.34949  0.94433  1.0000
  C   C765      1.0  0.80437  0.47519  0.78897  1.0000
  Fe  Fe50      1.0  0.89980  0.39467  0.88857  1.0000
  H   H610      1.0  0.74414  0.34056  0.76321  1.0000
  H   H611      1.0  0.81752  0.32006  0.93972  1.0000
  C   C766      1.0  0.66011  0.35948  0.97902  1.0000
  C   C767      1.0  0.45580  0.41867  0.74031  1.0000
  H   H612      1.0  0.58971  0.35695  0.97377  1.0000
  C   C768      1.0  0.98362  0.47099  0.74192  1.0000
  C   C769      1.0  0.53384  0.63460  0.72984  1.0000
  C   C770      1.0  0.53598  0.62832  0.75335  1.0000
  Fe  Fe51      1.0  0.74911  0.49344  0.74446  1.0000
  H   H613      1.0  0.97083  0.45435  0.97130  1.0000
  C   C771      1.0  0.23468  0.39811  0.75927  1.0000
  H   H614      1.0  0.06553  0.50348  0.95107  1.0000
  C   C772      1.0  0.14533  0.39603  0.74916  1.0000
  H   H615      1.0  0.01536  0.39272  0.93840  1.0000
  C   C773      1.0  0.50498  0.44060  0.73841  1.0000
  H   H616      1.0  0.61198  0.59152  0.86242  1.0000
  C   C774      1.0  0.60739  0.34640  0.97778  1.0000
  C   C775      1.0  0.52508  0.54244  0.74114  1.0000
  C   C776      1.0  0.78829  0.33854  0.95978  1.0000
  H   H617      1.0  0.68277  0.38015  0.97605  1.0000
  H   H618      1.0  0.99754  0.34320  0.73922  1.0000
  P   P26       1.0  0.89909  0.42359  0.73381  1.0000
  C   C777      1.0  0.64997  0.35722  0.75804  1.0000
  C   C778      1.0  0.56217  0.53659  0.73741  1.0000
  H   H619      1.0  0.54920  0.48164  0.73293  1.0000
  C   C779      1.0  0.41347  0.42050  0.73767  1.0000
  C   C780      1.0  0.17125  0.43621  0.97408  1.0000
  H   H620      1.0  0.87146  0.45986  0.74631  1.0000
  H   H621      1.0  0.04877  0.50738  0.74864  1.0000
  C   C781      1.0  0.80522  0.30762  0.97666  1.0000
  S   S101      1.0  0.26174  0.45646  0.73570  1.0000
  H   H622      1.0  0.81318  0.37045  0.73319  1.0000
  H   H623      1.0  0.64824  0.63323  0.77712  1.0000
  C   C782      1.0  0.70202  0.60232  0.73747  1.0000
  C   C783      1.0  0.73213  0.40803  0.75050  1.0000
  C   C784      1.0  0.68262  0.36540  0.73723  1.0000
  H   H624      1.0  0.20751  0.43889  0.97758  1.0000
  C   C785      1.0  0.46832  0.46652  0.73227  1.0000
  Fe  Fe52      1.0  0.63889  0.46819  0.73205  1.0000
  C   C786      1.0  0.72359  0.62853  0.73169  1.0000
  C   C787      1.0  0.72343  0.39110  0.73348  1.0000
  C   C788      1.0  0.32119  0.84426  0.20648  1.0000
  H   H625      1.0  0.58872  0.88264  0.09025  1.0000
  S   S102      1.0  0.48030  0.78794  0.20736  1.0000
  Fe  Fe53      1.0  0.13329  0.85351  0.19703  1.0000
  S   S103      1.0  0.14046  0.88618  0.17359  1.0000
  Fe  Fe54      1.0  0.10172  0.79785  0.20530  1.0000
  S   S104      1.0  0.07539  0.76273  0.18544  1.0000
  S   S105      1.0  0.05848  0.81734  0.20873  1.0000
  S   S106      1.0  0.17525  0.83375  0.19063  1.0000
  C   C789      1.0  0.09271  0.88157  0.15517  1.0000
  C   C790      1.0  0.05841  0.85761  0.14765  1.0000
  C   C791      1.0  0.01980  0.85444  0.13377  1.0000
  C   C792      1.0  0.01433  0.87490  0.12765  1.0000
  C   C793      1.0  0.04874  0.89890  0.13504  1.0000
  C   C794      1.0  0.08797  0.90220  0.14855  1.0000
  H   H626      1.0  0.06163  0.84156  0.15257  1.0000
  H   H627      1.0  0.04513  0.91491  0.13040  1.0000
  H   H628      1.0  0.11404  0.92072  0.15423  1.0000
  S   S107      1.0  0.00360  0.93685  0.07797  1.0000
  H   H629      1.0  0.52432  0.87067  0.12378  1.0000
  H   H630      1.0  0.51416  0.84091  0.15717  1.0000
  C   C795      1.0  0.56193  0.84836  0.02986  1.0000
  C   C796      1.0  0.06550  0.69503  0.19656  1.0000
  C   C797      1.0  0.07042  0.71722  0.18584  1.0000
  C   C798      1.0  0.06784  0.73476  0.19946  1.0000
  H   H631      1.0  0.06843  0.68187  0.18597  1.0000
  H   H632      1.0  0.07657  0.72083  0.16693  1.0000
  C   C799      1.0  0.36156  0.84237  0.19703  1.0000
  H   H633      1.0  0.34845  0.69336  0.19184  1.0000
  C   C800      1.0  0.05484  0.92639  0.20243  1.0000
  C   C801      1.0  0.02796  0.79691  0.11549  1.0000
  C   C802      1.0  0.03470  0.79084  0.13826  1.0000
  H   H634      1.0  0.13466  0.94160  0.20149  1.0000
  H   H635      1.0  0.05942  0.80514  0.10191  1.0000
  H   H636      1.0  0.07123  0.79415  0.14239  1.0000
  H   H637      1.0  0.25141  0.93285  0.19154  1.0000
  C   C803      1.0  0.26040  0.72463  0.20601  1.0000
  C   C804      1.0  0.29706  0.74665  0.19173  1.0000
  P   P27       1.0  0.29340  0.74932  0.16050  1.0000
  C   C805      1.0  0.25857  0.71871  0.14852  1.0000
  C   C806      1.0  0.26551  0.76807  0.15616  1.0000
  C   C807      1.0  0.29602  0.79479  0.15596  1.0000
  C   C808      1.0  0.27422  0.80938  0.15400  1.0000
  C   C809      1.0  0.22180  0.79741  0.15262  1.0000
  C   C810      1.0  0.19113  0.77085  0.15313  1.0000
  C   C811      1.0  0.21270  0.75617  0.15511  1.0000
  C   C812      1.0  0.26136  0.69820  0.15774  1.0000
  C   C813      1.0  0.23433  0.67451  0.14851  1.0000
  C   C814      1.0  0.20499  0.67118  0.12979  1.0000
  C   C815      1.0  0.20379  0.69179  0.11982  1.0000
  C   C816      1.0  0.23107  0.71557  0.12891  1.0000
  C   C817      1.0  0.35700  0.76505  0.14601  1.0000
  C   C818      1.0  0.36991  0.78026  0.12472  1.0000
  C   C819      1.0  0.41917  0.79223  0.11342  1.0000
  C   C820      1.0  0.45553  0.78880  0.12315  1.0000
  C   C821      1.0  0.44272  0.77341  0.14419  1.0000
  C   C822      1.0  0.39352  0.76138  0.15549  1.0000
  H   H638      1.0  0.22889  0.70861  0.19866  1.0000
  H   H639      1.0  0.36336  0.78510  0.19163  1.0000
  H   H640      1.0  0.33646  0.80433  0.15789  1.0000
  H   H641      1.0  0.29775  0.82996  0.15410  1.0000
  H   H642      1.0  0.20465  0.80862  0.15167  1.0000
  H   H643      1.0  0.15034  0.76166  0.15263  1.0000
  H   H644      1.0  0.18774  0.73554  0.15667  1.0000
  H   H645      1.0  0.28401  0.70032  0.17220  1.0000
  H   H646      1.0  0.18149  0.68925  0.10511  1.0000
  H   H647      1.0  0.23046  0.73141  0.12064  1.0000
  H   H648      1.0  0.34195  0.78288  0.11689  1.0000
  H   H649      1.0  0.42913  0.80420  0.09716  1.0000
  H   H650      1.0  0.49372  0.79812  0.11449  1.0000
  H   H651      1.0  0.47096  0.77086  0.15187  1.0000
  H   H652      1.0  0.38417  0.74932  0.17169  1.0000
  C   C823      1.0  0.54783  0.86269  0.12351  1.0000
  C   C824      1.0  0.01643  0.92858  0.19347  1.0000
  C   C825      1.0  0.33559  0.76758  0.20216  1.0000
  H   H653      1.0  0.29927  0.84818  0.19498  1.0000
  S   S108      1.0  0.44366  0.83736  0.19886  1.0000
  H   H654      1.0  0.37062  0.84492  0.17825  1.0000
  C   C826      1.0  0.10593  0.94363  0.19395  1.0000
  C   C827      1.0  0.58425  0.86936  0.10459  1.0000
  C   C828      1.0  0.58319  0.84993  0.05114  1.0000
  Fe  Fe55      1.0  0.56472  0.80861  0.21095  1.0000
  H   H655      1.0  0.18928  0.93917  0.17325  1.0000
  C   C829      1.0  0.39142  0.83804  0.21173  1.0000
  S   S109      1.0  0.62155  0.80780  0.18497  1.0000
  H   H656      1.0  0.64483  0.85989  0.18173  1.0000
  H   H657      1.0  0.56807  0.82288  0.15696  1.0000
  C   C830      1.0  0.61540  0.85937  0.10445  1.0000
  C   C831      1.0  0.60935  0.84254  0.12347  1.0000
  C   C832      1.0  0.57257  0.83578  0.14224  1.0000
  C   C833      1.0  0.54210  0.84595  0.14237  1.0000
  H   H658      1.0  0.63338  0.83488  0.12414  1.0000
  H   H659      1.0  0.03152  0.85761  0.19369  1.0000
  C   C834      1.0  0.02908  0.94790  0.17590  1.0000
  H   H660      1.0  0.97699  0.91536  0.20015  1.0000
  H   H661      1.0  0.00125  0.77634  0.17336  1.0000
  Fe  Fe56      1.0  0.98944  0.95743  0.10574  1.0000
  H   H662      1.0  0.23564  0.65858  0.15613  1.0000
  H   H663      1.0  0.52143  0.83514  0.02890  1.0000
  H   H664      1.0  0.55870  0.83753  0.06638  1.0000
  C   C835      1.0  0.57480  0.81130  0.98500  1.0000
  C   C836      1.0  0.25767  0.95181  0.18983  1.0000
  H   H665      1.0  0.17920  0.74315  0.20084  1.0000
  C   C837      1.0  0.33848  0.69379  0.21010  1.0000
  C   C838      1.0  0.00117  0.85628  0.20485  1.0000
  H   H666      1.0  0.20644  0.78677  0.21097  1.0000
  C   C839      1.0  0.33925  0.76596  0.22630  1.0000
  C   C840      1.0  0.22232  0.95546  0.17933  1.0000
  C   C841      1.0  0.63561  0.86719  0.05263  1.0000
  H   H667      1.0  0.57641  0.86256  0.99334  1.0000
  C   C842      1.0  0.59286  0.86380  0.00983  1.0000
  C   C843      1.0  0.64512  0.88069  0.01103  1.0000
  H   H668      1.0  0.99989  0.95000  0.16890  1.0000
  H   H669      1.0  0.55627  0.79990  0.00156  1.0000
  H   H670      1.0  0.62435  0.81930  0.06039  1.0000
  H   H671      1.0  0.66927  0.89256  0.99549  1.0000
  C   C844      1.0  0.66644  0.88239  0.03229  1.0000
  Fe  Fe57      1.0  0.48571  0.82311  0.21937  1.0000
  S   S110      1.0  0.24751  0.64962  0.20458  1.0000
  H   H672      1.0  0.04487  0.91116  0.21583  1.0000
  C   C845      1.0  0.37396  0.71355  0.22283  1.0000
  H   H673      1.0  0.20856  0.95300  0.13417  1.0000
  C   C846      1.0  0.18217  0.74743  0.21892  1.0000
  H   H674      1.0  0.99367  0.83601  0.12785  1.0000
  H   H675      1.0  0.41083  0.72830  0.21435  1.0000
  S   S111      1.0  0.57111  0.84483  0.21975  1.0000
  H   H676      1.0  0.18328  0.65262  0.12303  1.0000
  C   C847      1.0  0.19692  0.77184  0.22469  1.0000
  S   S112      1.0  0.11828  0.63822  0.18854  1.0000
  C   C848      1.0  0.62805  0.82611  0.98138  1.0000
  C   C849      1.0  0.99451  0.78062  0.15594  1.0000
  C   C850      1.0  0.05572  0.68969  0.22095  1.0000
  C   C851      1.0  0.29023  0.67468  0.22086  1.0000
  C   C852      1.0  0.11878  0.96281  0.17587  1.0000
  H   H677      1.0  0.64976  0.82596  0.99544  1.0000
  C   C853      1.0  0.07977  0.96484  0.16718  1.0000
  H   H678      1.0  0.15800  0.95997  0.06785  1.0000
  C   C854      1.0  0.18579  0.95524  0.10018  1.0000
  C   C855      1.0  0.19383  0.96177  0.12330  1.0000
  H   H679      1.0  0.19412  0.94164  0.09381  1.0000
  H   H680      1.0  0.65441  0.78985  0.06037  1.0000
  C   C856      1.0  0.65819  0.82416  0.06890  1.0000
  S   S113      1.0  0.96300  0.86936  0.11150  1.0000
  C   C857      1.0  0.98082  0.79263  0.11034  1.0000
  H   H681      1.0  0.97584  0.79774  0.09277  1.0000
  C   C858      1.0  0.05833  0.72945  0.22386  1.0000
  C   C859      1.0  0.16547  0.96555  0.08555  1.0000
  H   H682      1.0  0.64793  0.91045  0.19204  1.0000
  P   P28       1.0  0.66304  0.86858  0.08010  1.0000
  C   C860      1.0  0.66161  0.91419  0.20931  1.0000
  H   H683      1.0  0.96962  0.86603  0.17679  1.0000
  C   C861      1.0  0.96578  0.86067  0.19545  1.0000
  C   C862      1.0  0.74463  0.83544  0.09127  1.0000
  C   C863      1.0  0.75013  0.86344  0.98216  1.0000
  H   H684      1.0  0.87616  0.73091  0.13383  1.0000
  H   H685      1.0  0.32816  0.96958  0.20608  1.0000
  C   C864      1.0  0.91689  0.78112  0.21785  1.0000
  C   C865      1.0  0.67508  0.80737  0.06887  1.0000
  Fe  Fe58      1.0  0.95108  0.90159  0.10251  1.0000
  H   H686      1.0  0.89205  0.96270  0.20620  1.0000
  H   H687      1.0  0.74510  0.77169  0.17445  1.0000
  H   H688      1.0  0.71414  0.81987  0.15879  1.0000
  H   H689      1.0  0.76735  0.89672  0.05783  1.0000
  C   C866      1.0  0.79857  0.82647  0.22480  1.0000
  H   H690      1.0  0.58694  0.89903  0.22703  1.0000
  H   H691      1.0  0.78609  0.74740  0.17963  1.0000
  C   C867      1.0  0.86740  0.94240  0.20482  1.0000
  H   H692      1.0  0.68118  0.81768  0.22301  1.0000
  C   C868      1.0  0.78102  0.68718  0.18686  1.0000
  H   H693      1.0  0.90447  0.77960  0.12380  1.0000
  P   P29       1.0  0.89415  0.76280  0.17351  1.0000
  H   H694      1.0  0.75134  0.88988  0.22508  1.0000
  H   H695      1.0  0.74850  0.86941  0.10032  1.0000
  C   C869      1.0  0.81521  0.71315  0.18913  1.0000
  C   C870      1.0  0.75016  0.81773  0.21742  1.0000
  H   H696      1.0  0.82160  0.82022  0.21661  1.0000
  C   C871      1.0  0.80493  0.89013  0.19988  1.0000
  H   H697      1.0  0.93342  0.81683  0.16216  1.0000
  C   C872      1.0  0.72780  0.85223  0.09135  1.0000
  C   C873      1.0  0.71330  0.92475  0.21199  1.0000
  S   S114      1.0  0.80581  0.91188  0.13295  1.0000
  C   C874      1.0  0.71386  0.91725  0.09677  1.0000
  C   C875      1.0  0.68488  0.84691  0.07989  1.0000
  H   H698      1.0  0.75461  0.67479  0.20167  1.0000
  C   C876      1.0  0.71644  0.88257  0.16062  1.0000
  S   S115      1.0  0.94239  0.92261  0.13118  1.0000
  H   H699      1.0  0.70696  0.89558  0.03260  1.0000
  C   C877      1.0  0.75586  0.94214  0.09764  1.0000
  C   C878      1.0  0.84971  0.71908  0.14875  1.0000
  H   H700      1.0  0.67973  0.91094  0.10812  1.0000
  H   H701      1.0  0.73395  0.82492  0.98626  1.0000
  C   C879      1.0  0.93244  0.74794  0.20935  1.0000
  H   H702      1.0  0.79751  0.81823  0.16207  1.0000
  C   C880      1.0  0.86299  0.78025  0.17090  1.0000
  H   H703      1.0  0.75498  0.65695  0.16391  1.0000
  H   H704      1.0  0.73626  0.80528  0.20338  1.0000
  C   C881      1.0  0.75673  0.88292  0.14821  1.0000
  C   C882      1.0  0.76322  0.90941  0.06851  1.0000
  C   C883      1.0  0.71837  0.81305  0.08000  1.0000
  H   H705      1.0  0.73141  0.80003  0.08008  1.0000
  S   S116      1.0  0.87958  0.89297  0.08608  1.0000
  C   C884      1.0  0.75648  0.86037  0.14802  1.0000
  H   H706      1.0  0.93312  0.73506  0.19748  1.0000
  C   C885      1.0  0.67448  0.83709  0.17182  1.0000
  C   C886      1.0  0.85206  0.90485  0.18666  1.0000
  H   H707      1.0  0.90549  0.79420  0.21278  1.0000
  H   H708      1.0  0.77797  0.83978  0.10008  1.0000
  H   H709      1.0  0.93203  0.89727  0.01238  1.0000
  C   C887      1.0  0.67585  0.85986  0.17259  1.0000
  C   C888      1.0  0.78121  0.67713  0.16560  1.0000
  H   H710      1.0  0.71646  0.89994  0.16086  1.0000
  C   C889      1.0  0.92647  0.85876  0.21021  1.0000
  C   C890      1.0  0.94698  0.77627  0.15098  1.0000
  C   C891      1.0  0.94053  0.78246  0.12802  1.0000
  H   H711      1.0  0.78015  0.87004  0.19750  1.0000
  H   H712      1.0  0.84008  0.94092  0.05844  1.0000
  C   C892      1.0  0.78860  0.90151  0.21537  1.0000
  C   C893      1.0  0.81981  0.92774  0.21803  1.0000
  H   H713      1.0  0.86353  0.89614  0.17394  1.0000
  C   C894      1.0  0.92630  0.90571  0.99684  1.0000
  C   C895      1.0  0.81549  0.69308  0.14656  1.0000
  H   H714      1.0  0.81394  0.90843  0.02005  1.0000
  C   C896      1.0  0.79591  0.86980  0.02437  1.0000
  S   S117      1.0  0.92232  0.95342  0.08949  1.0000
  C   C897      1.0  0.84999  0.72932  0.17011  1.0000
  H   H715      1.0  0.73936  0.92930  0.19658  1.0000
  H   H716      1.0  0.81475  0.72061  0.20578  1.0000
  C   C898      1.0  0.71704  0.90074  0.08194  1.0000
  C   C899      1.0  0.78624  0.78145  0.17168  1.0000
  H   H717      1.0  0.81587  0.68525  0.13012  1.0000
  C   C900      1.0  0.91984  0.92617  0.99859  1.0000
  C   C901      1.0  0.80971  0.76773  0.17463  1.0000
  C   C902      1.0  0.88319  0.93098  0.18909  1.0000
  H   H718      1.0  0.78772  0.86057  0.13869  1.0000
  H   H719      1.0  0.91880  0.94257  0.17823  1.0000
  C   C903      1.0  0.91651  0.76434  0.20222  1.0000
  C   C904      1.0  0.81568  0.80767  0.16479  1.0000
  H   H720      1.0  0.90022  0.86298  0.20284  1.0000
  C   C905      1.0  0.80471  0.93441  0.06902  1.0000
  H   H721      1.0  0.89154  0.84051  0.15550  1.0000
  H   H722      1.0  0.75374  0.95456  0.10958  1.0000
  Fe  Fe59      1.0  0.93164  0.92985  0.06342  1.0000
  C   C906      1.0  0.71503  0.83743  0.15952  1.0000
  S   S118      1.0  0.91966  0.93894  0.02582  1.0000
  H   H723      1.0  0.81518  0.87266  0.04025  1.0000
  C   C907      1.0  0.75049  0.84309  0.99374  1.0000
  C   C908      1.0  0.77333  0.84630  0.01479  1.0000
  C   C909      1.0  0.89228  0.80671  0.16465  1.0000
  C   C910      1.0  0.86867  0.82026  0.16125  1.0000
  H   H724      1.0  0.77468  0.83081  0.02341  1.0000
  Fe  Fe60      1.0  0.87558  0.91698  0.11301  1.0000
  H   H725      1.0  0.77321  0.90302  0.98356  1.0000
  C   C911      1.0  0.79508  0.88996  0.01306  1.0000
  C   C912      1.0  0.80116  0.95077  0.08368  1.0000
  C   C913      1.0  0.77217  0.88683  0.99213  1.0000
  C   C914      1.0  0.71889  0.82467  0.22845  1.0000
  C   C915      1.0  0.62723  0.90776  0.22900  1.0000
  Fe  Fe61      1.0  0.19236  0.83861  0.22830  1.0000
  C   C916      1.0  0.99837  0.85070  0.22894  1.0000
  Fe  Fe62      1.0  0.91238  0.93282  0.36003  1.0000
  H   H726      1.0  0.23910  0.67828  0.30637  1.0000
  H   H727      1.0  0.28556  0.71614  0.36934  1.0000
  Fe  Fe63      1.0  0.08456  0.82459  0.24518  1.0000
  C   C917      1.0  0.23492  0.67746  0.32534  1.0000
  S   S119      1.0  0.47187  0.81002  0.25770  1.0000
  S   S120      1.0  0.40579  0.73766  0.26361  1.0000
  Fe  Fe64      1.0  0.55689  0.82836  0.25733  1.0000
  S   S121      1.0  0.60336  0.85459  0.28479  1.0000
  S   S122      1.0  0.02828  0.81773  0.27622  1.0000
  H   H728      1.0  0.04385  0.70278  0.25335  1.0000
  S   S123      1.0  0.90579  0.90780  0.33189  1.0000
  Fe  Fe65      1.0  0.89405  0.89335  0.39962  1.0000
  S   S124      1.0  0.88623  0.86530  0.37376  1.0000
  S   S125      1.0  0.88311  0.87900  0.43861  1.0000
  Fe  Fe66      1.0  0.95394  0.89877  0.35268  1.0000
  S   S126      1.0  0.02331  0.90222  0.33301  1.0000
  Fe  Fe67      1.0  0.83825  0.87630  0.35459  1.0000
  S   S127      1.0  0.76991  0.84570  0.33718  1.0000
  C   C918      1.0  0.27799  0.67524  0.24456  1.0000
  S   S128      1.0  0.84102  0.90176  0.38173  1.0000
  C   C919      1.0  0.89328  0.89461  0.46498  1.0000
  C   C920      1.0  0.91657  0.92109  0.46489  1.0000
  C   C921      1.0  0.11254  0.92480  0.25164  1.0000
  H   H729      1.0  0.80384  0.90113  0.26166  1.0000
  H   H730      1.0  0.92795  0.93273  0.44834  1.0000
  C   C922      1.0  0.81598  0.84246  0.24316  1.0000
  C   C923      1.0  0.02738  0.84163  0.29151  1.0000
  C   C924      1.0  0.06877  0.86700  0.28931  1.0000
  C   C925      1.0  0.06693  0.88524  0.30224  1.0000
  C   C926      1.0  0.02339  0.87849  0.31708  1.0000
  C   C927      1.0  0.98172  0.85320  0.31901  1.0000
  C   C928      1.0  0.98397  0.83483  0.30648  1.0000
  H   H731      1.0  0.10260  0.87246  0.27806  1.0000
  H   H732      1.0  0.09955  0.90470  0.30088  1.0000
  H   H733      1.0  0.94819  0.84771  0.33053  1.0000
  H   H734      1.0  0.95184  0.81524  0.30842  1.0000
  Fe  Fe68      1.0  0.47043  0.77574  0.24582  1.0000
  C   C929      1.0  0.64848  0.85146  0.29978  1.0000
  C   C930      1.0  0.67889  0.86996  0.31482  1.0000
  C   C931      1.0  0.71551  0.86823  0.32678  1.0000
  C   C932      1.0  0.72286  0.84827  0.32344  1.0000
  C   C933      1.0  0.69189  0.82957  0.30870  1.0000
  C   C934      1.0  0.65470  0.83106  0.29705  1.0000
  H   H735      1.0  0.67401  0.88566  0.31730  1.0000
  H   H736      1.0  0.73799  0.88231  0.33862  1.0000
  H   H737      1.0  0.69676  0.81386  0.30623  1.0000
  H   H738      1.0  0.63109  0.81647  0.28584  1.0000
  C   C935      1.0  0.07958  0.96682  0.45234  1.0000
  C   C936      1.0  0.31142  0.84271  0.23082  1.0000
  C   C937      1.0  0.31434  0.69429  0.25755  1.0000
  C   C938      1.0  0.81842  0.91049  0.29692  1.0000
  S   S129      1.0  0.55445  0.79300  0.24860  1.0000
  H   H739      1.0  0.30527  0.69433  0.27598  1.0000
  H   H740      1.0  0.24091  0.66073  0.25298  1.0000
  H   H741      1.0  0.14832  0.93812  0.47155  1.0000
  C   C939      1.0  0.26126  0.69898  0.36081  1.0000
  S   S130      1.0  0.96574  0.92635  0.37969  1.0000
  C   C940      1.0  0.94896  0.74848  0.23165  1.0000
  C   C941      1.0  0.82388  0.92718  0.31363  1.0000
  C   C942      1.0  0.36216  0.71369  0.24669  1.0000
  C   C943      1.0  0.16012  0.92807  0.24685  1.0000
  H   H742      1.0  0.95883  0.84521  0.26241  1.0000
  C   C944      1.0  0.90014  0.90285  0.24969  1.0000
  H   H743      1.0  0.87274  0.89687  0.23676  1.0000
  H   H744      1.0  0.33407  0.83715  0.26441  1.0000
  C   C945      1.0  0.92223  0.85206  0.23438  1.0000
  S   S131      1.0  0.12090  0.80162  0.24267  1.0000
  H   H745      1.0  0.24203  0.82035  0.28968  1.0000
  H   H746      1.0  0.08866  0.75667  0.31071  1.0000
  H   H747      1.0  0.02680  0.84809  0.23626  1.0000
  C   C946      1.0  0.64443  0.91164  0.25138  1.0000
  H   H748      1.0  0.36994  0.78197  0.23407  1.0000
  C   C947      1.0  0.22607  0.67609  0.37426  1.0000
  H   H749      1.0  0.12132  0.83291  0.30393  1.0000
  C   C948      1.0  0.94878  0.76504  0.24718  1.0000
  C   C949      1.0  0.80900  0.91459  0.27408  1.0000
  C   C950      1.0  0.01869  0.92442  0.44182  1.0000
  H   H750      1.0  0.15473  0.66869  0.30324  1.0000
  H   H751      1.0  0.71139  0.84557  0.25540  1.0000
  H   H752      1.0  0.40333  0.83242  0.24763  1.0000
  C   C951      1.0  0.11864  0.65101  0.30254  1.0000
  C   C952      1.0  0.95938  0.84882  0.24367  1.0000
  H   H753      1.0  0.70804  0.92433  0.27176  1.0000
  C   C953      1.0  0.93270  0.78129  0.24031  1.0000
  H   H754      1.0  0.98157  0.95595  0.27627  1.0000
  C   C954      1.0  0.92658  0.92833  0.25497  1.0000
  H   H755      1.0  0.21245  0.84968  0.29228  1.0000
  C   C955      1.0  0.26565  0.69966  0.33634  1.0000
  H   H756      1.0  0.15811  0.70926  0.23202  1.0000
  H   H757      1.0  0.03309  0.67997  0.31989  1.0000
  C   C956      1.0  0.20445  0.95231  0.24674  1.0000
  C   C957      1.0  0.34099  0.83815  0.24556  1.0000
  H   H758      1.0  0.29343  0.71730  0.32586  1.0000
  C   C958      1.0  0.73584  0.84032  0.24685  1.0000
  C   C959      1.0  0.80651  0.93589  0.26759  1.0000
  C   C960      1.0  0.05131  0.70677  0.23448  1.0000
  C   C961      1.0  0.81053  0.95218  0.28469  1.0000
  H   H759      1.0  0.04434  0.95886  0.41972  1.0000
  P   P30       1.0  0.87644  0.85263  0.25427  1.0000
  C   C962      1.0  0.02093  0.91390  0.46353  1.0000
  C   C963      1.0  0.86090  0.83065  0.27974  1.0000
  C   C964      1.0  0.85462  0.80683  0.27706  1.0000
  C   C965      1.0  0.84241  0.78962  0.29670  1.0000
  C   C966      1.0  0.83539  0.79587  0.31907  1.0000
  C   C967      1.0  0.84032  0.81925  0.32177  1.0000
  C   C968      1.0  0.85291  0.83659  0.30220  1.0000
  C   C969      1.0  0.78374  0.84877  0.25451  1.0000
  C   C970      1.0  0.19947  0.65434  0.33868  1.0000
  C   C971      1.0  0.90887  0.88530  0.26129  1.0000
  H   H760      1.0  0.08726  0.66990  0.28417  1.0000
  H   H761      1.0  0.93380  0.79447  0.25231  1.0000
  H   H762      1.0  0.21654  0.92979  0.46510  1.0000
  C   C972      1.0  0.97290  0.91933  0.28220  1.0000
  C   C973      1.0  0.94641  0.89389  0.27710  1.0000
  H   H763      1.0  0.85925  0.80159  0.25981  1.0000
  H   H764      1.0  0.83831  0.77143  0.29461  1.0000
  H   H765      1.0  0.82571  0.78257  0.33435  1.0000
  H   H766      1.0  0.83384  0.82390  0.33906  1.0000
  H   H767      1.0  0.85576  0.85443  0.30470  1.0000
  H   H768      1.0  0.79510  0.85976  0.26965  1.0000
  H   H769      1.0  0.91871  0.94169  0.24661  1.0000
  C   C974      1.0  0.10918  0.94581  0.25583  1.0000
  H   H770      1.0  0.61740  0.90560  0.26673  1.0000
  C   C975      1.0  0.26434  0.72305  0.23016  1.0000
  H   H771      1.0  0.00019  0.92533  0.29520  1.0000
  H   H772      1.0  0.95475  0.88087  0.28584  1.0000
  H   H773      1.0  0.99330  0.91202  0.42951  1.0000
  C   C976      1.0  0.96243  0.93648  0.27149  1.0000
  S   S132      1.0  0.26679  0.84922  0.24338  1.0000
  H   H774      1.0  0.27064  0.64555  0.31673  1.0000
  H   H775      1.0  0.30802  0.74197  0.25883  1.0000
  H   H776      1.0  0.96213  0.76566  0.26440  1.0000
  C   C977      1.0  0.38035  0.83547  0.23609  1.0000
  C   C978      1.0  0.69607  0.92218  0.25416  1.0000
  H   H777      1.0  0.07823  0.90583  0.25257  1.0000
  H   H778      1.0  0.07070  0.66886  0.35178  1.0000
  H   H779      1.0  0.16391  0.71829  0.27332  1.0000
  H   H780      1.0  0.16013  0.69958  0.35987  1.0000
  H   H781      1.0  0.21160  0.74122  0.33659  1.0000
  H   H782      1.0  0.21039  0.79593  0.25237  1.0000
  S   S133      1.0  0.04921  0.66220  0.23549  1.0000
  C   C979      1.0  0.19531  0.65383  0.36327  1.0000
  C   C980      1.0  0.81975  0.94795  0.30756  1.0000
  H   H783      1.0  0.96260  0.73632  0.23676  1.0000
  H   H784      1.0  0.82042  0.89404  0.30188  1.0000
  H   H785      1.0  0.07206  0.94278  0.26013  1.0000
  C   C981      1.0  0.34215  0.79162  0.29210  1.0000
  C   C982      1.0  0.35801  0.80469  0.31220  1.0000
  C   C983      1.0  0.32286  0.80575  0.32745  1.0000
  C   C984      1.0  0.27183  0.79370  0.32262  1.0000
  C   C985      1.0  0.25577  0.78069  0.30235  1.0000
  C   C986      1.0  0.29135  0.77977  0.28712  1.0000
  P   P31       1.0  0.18964  0.76461  0.29647  1.0000
  C   C987      1.0  0.15141  0.73483  0.31490  1.0000
  C   C988      1.0  0.16791  0.78612  0.30035  1.0000
  C   C989      1.0  0.11646  0.77683  0.30701  1.0000
  C   C990      1.0  0.09994  0.79371  0.30847  1.0000
  C   C991      1.0  0.13453  0.81996  0.30337  1.0000
  C   C992      1.0  0.18576  0.82939  0.29692  1.0000
  C   C993      1.0  0.20241  0.81260  0.29547  1.0000
  C   C994      1.0  0.10099  0.71710  0.31024  1.0000
  C   C995      1.0  0.07186  0.69357  0.32371  1.0000
  C   C996      1.0  0.09311  0.68728  0.34162  1.0000
  C   C997      1.0  0.14347  0.70459  0.34616  1.0000
  C   C998      1.0  0.17254  0.72830  0.33291  1.0000
  C   C999      1.0  0.18565  0.75766  0.26613  1.0000
  C   C1000     1.0  0.19871  0.77694  0.24823  1.0000
  H   H786      1.0  0.83056  0.92385  0.33145  1.0000
  H   H787      1.0  0.06003  0.78651  0.31298  1.0000
  H   H788      1.0  0.08453  0.72122  0.29579  1.0000
  C   C1001     1.0  0.17240  0.73337  0.26008  1.0000
  H   H789      1.0  0.36936  0.79085  0.28023  1.0000
  H   H790      1.0  0.39764  0.81410  0.31582  1.0000
  H   H791      1.0  0.33530  0.81605  0.34295  1.0000
  H   H792      1.0  0.24494  0.79466  0.33457  1.0000
  H   H793      1.0  0.28029  0.77026  0.27121  1.0000
  H   H794      1.0  0.23674  0.70576  0.24103  1.0000
  C   C1002     1.0  0.04747  0.95084  0.43632  1.0000
  H   H795      1.0  0.05612  0.74274  0.23452  1.0000
  C   C1003     1.0  0.30399  0.74358  0.24026  1.0000
  C   C1004     1.0  0.08021  0.65190  0.29187  1.0000
  H   H796      1.0  0.22307  0.67553  0.39325  1.0000
  C   C1005     1.0  0.17001  0.72826  0.23658  1.0000
  H   H797      1.0  0.16262  0.91173  0.24369  1.0000
  H   H798      1.0  0.80713  0.96830  0.28034  1.0000
  H   H799      1.0  0.32242  0.64282  0.28450  1.0000
  S   S134      1.0  0.15721  0.86185  0.23372  1.0000
  H   H800      1.0  0.05606  0.95763  0.34126  1.0000
  P   P32       1.0  0.79768  0.94230  0.23772  1.0000
  C   C1006     1.0  0.08280  0.95634  0.47389  1.0000
  H   H801      1.0  0.16892  0.63629  0.37407  1.0000
  H   H802      1.0  0.06195  0.96705  0.29860  1.0000
  H   H803      1.0  0.82410  0.96078  0.32070  1.0000
  H   H804      1.0  0.99692  0.89343  0.46747  1.0000
  C   C1007     1.0  0.73099  0.92902  0.23444  1.0000
  H   H805      1.0  0.24131  0.95463  0.24381  1.0000
  Fe  Fe69      1.0  0.91364  0.91901  0.57326  1.0000
  P   P33       1.0  0.89889  0.96165  0.71734  1.0000
  S   S135      1.0  0.92512  0.93355  0.53443  1.0000
  Fe  Fe70      1.0  0.89716  0.88099  0.61389  1.0000
  S   S136      1.0  0.90211  0.90628  0.64150  1.0000
  S   S137      1.0  0.89279  0.84438  0.62493  1.0000
  Fe  Fe71      1.0  0.85373  0.91418  0.61954  1.0000
  S   S138      1.0  0.78910  0.91409  0.63963  1.0000
  Fe  Fe72      1.0  0.96872  0.93789  0.61842  1.0000
  H   H806      1.0  0.94750  0.77130  0.71238  1.0000
  S   S139      1.0  0.84267  0.88593  0.59348  1.0000
  S   S140      1.0  0.96801  0.91226  0.59205  1.0000
  C   C1008     1.0  0.91587  0.83808  0.53354  1.0000
  C   C1009     1.0  0.00568  0.81114  0.71388  1.0000
  C   C1010     1.0  0.10823  0.91798  0.69971  1.0000
  Fe  Fe73      1.0  0.71264  0.72739  0.71273  1.0000
  S   S141      1.0  0.70021  0.75216  0.68691  1.0000
  H   H807      1.0  0.87450  0.87964  0.52464  1.0000
  S   S142      1.0  0.67758  0.68487  0.71268  1.0000
  H   H808      1.0  0.67811  0.92656  0.68652  1.0000
  C   C1011     1.0  0.88714  0.89133  0.50812  1.0000
  C   C1012     1.0  0.05054  0.95177  0.53082  1.0000
  S   S143      1.0  0.92035  0.94752  0.59813  1.0000
  C   C1013     1.0  0.94508  0.95375  0.72425  1.0000
  C   C1014     1.0  0.46513  0.89586  0.63328  1.0000
  H   H809      1.0  0.93217  0.95641  0.66953  1.0000
  C   C1015     1.0  0.50875  0.89511  0.63570  1.0000
  C   C1016     1.0  0.11119  0.95417  0.56613  1.0000
  C   C1017     1.0  0.82757  0.91648  0.69859  1.0000
  C   C1018     1.0  0.79740  0.94311  0.64759  1.0000
  C   C1019     1.0  0.51332  0.65723  0.65755  1.0000
  H   H810      1.0  0.74316  0.83480  0.70204  1.0000
  H   H811      1.0  0.49997  0.68256  0.67633  1.0000
  C   C1020     1.0  0.76806  0.64258  0.71652  1.0000
  C   C1021     1.0  0.63972  0.95417  0.65837  1.0000
  C   C1022     1.0  0.77768  0.96544  0.67579  1.0000
  H   H812      1.0  0.36727  0.94707  0.67005  1.0000
  H   H813      1.0  0.75539  0.92622  0.68138  1.0000
  C   C1023     1.0  0.83883  0.81916  0.64219  1.0000
  C   C1024     1.0  0.79142  0.81663  0.64286  1.0000
  C   C1025     1.0  0.74889  0.79574  0.65623  1.0000
  C   C1026     1.0  0.75380  0.77769  0.66956  1.0000
  C   C1027     1.0  0.80126  0.78034  0.66886  1.0000
  C   C1028     1.0  0.84344  0.80083  0.65508  1.0000
  H   H814      1.0  0.78737  0.83049  0.63274  1.0000
  H   H815      1.0  0.71224  0.79364  0.65624  1.0000
  H   H816      1.0  0.80547  0.76650  0.67876  1.0000
  H   H817      1.0  0.87991  0.80260  0.65453  1.0000
  C   C1029     1.0  0.80671  0.73649  0.63906  1.0000
  C   C1030     1.0  0.64240  0.63728  0.66319  1.0000
  C   C1031     1.0  0.33079  0.93039  0.70487  1.0000
  H   H818      1.0  0.73124  0.96804  0.60321  1.0000
  C   C1032     1.0  0.61654  0.66140  0.59762  1.0000
  C   C1033     1.0  0.80658  0.83038  0.70186  1.0000
  C   C1034     1.0  0.46587  0.90647  0.67340  1.0000
  H   H819      1.0  0.81841  0.71933  0.66974  1.0000
  H   H820      1.0  0.28219  0.87616  0.71615  1.0000
  H   H821      1.0  0.08264  0.94301  0.62103  1.0000
  C   C1035     1.0  0.91153  0.91785  0.50803  1.0000
  C   C1036     1.0  0.59868  0.89651  0.68982  1.0000
  H   H822      1.0  0.82745  0.84436  0.68691  1.0000
  C   C1037     1.0  0.79263  0.71688  0.65661  1.0000
  C   C1038     1.0  0.10438  0.95555  0.63408  1.0000
  C   C1039     1.0  0.75839  0.82464  0.71034  1.0000
  C   C1040     1.0  0.61622  0.69105  0.66386  1.0000
  C   C1041     1.0  0.89982  0.88346  0.71998  1.0000
  H   H823      1.0  0.62399  0.80042  0.65895  1.0000
  C   C1042     1.0  0.05702  0.96659  0.54950  1.0000
  H   H824      1.0  0.96758  0.88541  0.70800  1.0000
  C   C1043     1.0  0.74479  0.69416  0.65761  1.0000
  C   C1044     1.0  0.71079  0.69065  0.64081  1.0000
  C   C1045     1.0  0.95681  0.78926  0.71888  1.0000
  H   H825      1.0  0.97730  0.90030  0.54457  1.0000
  C   C1046     1.0  0.28632  0.92041  0.72013  1.0000
  C   C1047     1.0  0.55817  0.87706  0.70512  1.0000
  C   C1048     1.0  0.97016  0.88368  0.53616  1.0000
  P   P34       1.0  0.05997  0.91631  0.50702  1.0000
  P   P35       1.0  0.58997  0.90140  0.65955  1.0000
  H   H826      1.0  0.18061  0.95140  0.70545  1.0000
  C   C1049     1.0  0.59712  0.87834  0.64478  1.0000
  C   C1050     1.0  0.64497  0.88111  0.64286  1.0000
  C   C1051     1.0  0.65231  0.86439  0.63046  1.0000
  C   C1052     1.0  0.61164  0.84434  0.62037  1.0000
  C   C1053     1.0  0.56325  0.84064  0.62321  1.0000
  C   C1054     1.0  0.55580  0.85739  0.63562  1.0000
  H   H827      1.0  0.45087  0.91206  0.68773  1.0000
  H   H828      1.0  0.90315  0.85830  0.55970  1.0000
  C   C1055     1.0  0.11093  0.91084  0.50225  1.0000
  H   H829      1.0  0.86050  0.85937  0.48710  1.0000
  C   C1056     1.0  0.64244  0.79922  0.69452  1.0000
  C   C1057     1.0  0.63713  0.93373  0.64769  1.0000
  H   H830      1.0  0.47331  0.64385  0.65552  1.0000
  H   H831      1.0  0.52716  0.91076  0.69216  1.0000
  H   H832      1.0  0.29138  0.83927  0.71991  1.0000
  H   H833      1.0  0.76135  0.96543  0.69286  1.0000
  H   H834      1.0  0.01456  0.86513  0.49088  1.0000
  H   H835      1.0  0.12208  0.92824  0.54747  1.0000
  C   C1058     1.0  0.94715  0.84015  0.51405  1.0000
  H   H836      1.0  0.03438  0.81015  0.70340  1.0000
  H   H837      1.0  0.52667  0.89225  0.62051  1.0000
  H   H838      1.0  0.44889  0.89281  0.61655  1.0000
  H   H839      1.0  0.67721  0.89670  0.65038  1.0000
  H   H840      1.0  0.68993  0.86729  0.62845  1.0000
  H   H841      1.0  0.61766  0.83161  0.61050  1.0000
  H   H842      1.0  0.53157  0.82483  0.61569  1.0000
  H   H843      1.0  0.51792  0.85390  0.63794  1.0000
  H   H844      1.0  0.60535  0.75178  0.71544  1.0000
  C   C1059     1.0  0.63930  0.80573  0.71740  1.0000
  H   H845      1.0  0.61069  0.67630  0.60252  1.0000
  H   H846      1.0  0.77323  0.88185  0.68397  1.0000
  C   C1060     1.0  0.00227  0.88592  0.51682  1.0000
  C   C1061     1.0  0.10434  0.93913  0.54756  1.0000
  C   C1062     1.0  0.07375  0.93775  0.52977  1.0000
  C   C1063     1.0  0.99045  0.86391  0.50585  1.0000
  H   H847      1.0  0.84345  0.75428  0.63856  1.0000
  C   C1064     1.0  0.70512  0.96413  0.61841  1.0000
  C   C1065     1.0  0.87874  0.87986  0.48676  1.0000
  S   S144      1.0  0.79393  0.67529  0.70818  1.0000
  H   H848      1.0  0.29082  0.94405  0.65527  1.0000
  H   H849      1.0  0.21203  0.92600  0.68164  1.0000
  C   C1066     1.0  0.15166  0.88824  0.51353  1.0000
  C   C1067     1.0  0.74720  0.88312  0.71920  1.0000
  H   H850      1.0  0.15263  0.87424  0.52514  1.0000
  H   H851      1.0  0.86435  0.82176  0.70536  1.0000
  H   H852      1.0  0.82590  0.64103  0.69580  1.0000
  H   H853      1.0  0.88232  0.81971  0.53992  1.0000
  C   C1068     1.0  0.52828  0.67897  0.66938  1.0000
  C   C1069     1.0  0.83887  0.93117  0.71786  1.0000
  C   C1070     1.0  0.44356  0.90143  0.65216  1.0000
  H   H854      1.0  0.05612  0.85063  0.71914  1.0000
  C   C1071     1.0  0.18767  0.91955  0.47974  1.0000
  C   C1072     1.0  0.14570  0.93466  0.71354  1.0000
  H   H855      1.0  0.36467  0.93225  0.71118  1.0000
  H   H856      1.0  0.59160  0.71273  0.68171  1.0000
  C   C1073     1.0  0.08720  0.96774  0.56721  1.0000
  H   H857      1.0  0.03546  0.88331  0.69914  1.0000
  P   P36       1.0  0.64786  0.66178  0.64248  1.0000
  H   H858      1.0  0.93774  0.82334  0.50526  1.0000
  C   C1074     1.0  0.82746  0.81765  0.71225  1.0000
  C   C1075     1.0  0.92758  0.85982  0.54467  1.0000
  C   C1076     1.0  0.52999  0.89896  0.65732  1.0000
  H   H859      1.0  0.85310  0.92343  0.68273  1.0000
  C   C1077     1.0  0.11271  0.89284  0.51729  1.0000
  C   C1078     1.0  0.60153  0.66923  0.65207  1.0000
  H   H860      1.0  0.71185  0.64071  0.64909  1.0000
  H   H861      1.0  0.65572  0.70421  0.66679  1.0000
  C   C1079     1.0  0.63460  0.65073  0.61349  1.0000
  C   C1080     1.0  0.72510  0.71059  0.62336  1.0000
  C   C1081     1.0  0.57973  0.69590  0.67245  1.0000
  H   H862      1.0  0.73456  0.67967  0.67181  1.0000
  H   H863      1.0  0.78334  0.74898  0.60939  1.0000
  C   C1082     1.0  0.77283  0.73343  0.62256  1.0000
  C   C1083     1.0  0.92605  0.93262  0.48627  1.0000
  H   H864      1.0  0.69915  0.70880  0.61067  1.0000
  C   C1084     1.0  0.78199  0.89260  0.69928  1.0000
  C   C1085     1.0  0.02378  0.95520  0.71545  1.0000
  C   C1086     1.0  0.24481  0.92678  0.68814  1.0000
  H   H865      1.0  0.41050  0.90258  0.65011  1.0000
  C   C1087     1.0  0.28939  0.93696  0.67317  1.0000
  C   C1088     1.0  0.77510  0.94331  0.66938  1.0000
  H   H866      1.0  0.11421  0.92177  0.68074  1.0000
  H   H867      1.0  0.02583  0.95054  0.51761  1.0000
  C   C1089     1.0  0.01763  0.83416  0.72263  1.0000
  C   C1090     1.0  0.59572  0.81781  0.68142  1.0000
  C   C1091     1.0  0.61371  0.81820  0.72210  1.0000
  C   C1092     1.0  0.59224  0.82429  0.70412  1.0000
  Fe  Fe74      1.0  0.75249  0.69281  0.72390  1.0000
  C   C1093     1.0  0.33235  0.93871  0.68152  1.0000
  H   H868      1.0  0.66191  0.78954  0.69053  1.0000
  H   H869      1.0  0.61463  0.95072  0.67385  1.0000
  H   H870      1.0  0.52091  0.86494  0.69897  1.0000
  C   C1094     1.0  0.62094  0.80534  0.67659  1.0000
  H   H871      1.0  0.08390  0.88232  0.53191  1.0000
  S   S145      1.0  0.55614  0.96777  0.70929  1.0000
  H   H872      1.0  0.57882  0.82244  0.66761  1.0000
  C   C1095     1.0  0.65419  0.90776  0.72137  1.0000
  C   C1096     1.0  0.14880  0.92422  0.48346  1.0000
  C   C1097     1.0  0.50905  0.90543  0.67594  1.0000
  H   H873      1.0  0.94466  0.95313  0.48591  1.0000
  C   C1098     1.0  0.64671  0.91154  0.69805  1.0000
  C   C1099     1.0  0.18910  0.90157  0.49475  1.0000
  H   H874      1.0  0.57291  0.83406  0.70775  1.0000
  C   C1100     1.0  0.54976  0.65237  0.64889  1.0000
  H   H875      1.0  0.59191  0.66126  0.56310  1.0000
  H   H876      1.0  0.71150  0.86491  0.71947  1.0000
  S   S146      1.0  0.78923  0.73546  0.72053  1.0000
  H   H877      1.0  0.89806  0.89216  0.70346  1.0000
  C   C1101     1.0  0.93962  0.87963  0.72271  1.0000
  C   C1102     1.0  0.06322  0.89639  0.71028  1.0000
  H   H878      1.0  0.13408  0.95484  0.58003  1.0000
  C   C1103     1.0  0.05285  0.92978  0.47984  1.0000
  H   H879      1.0  0.66785  0.92373  0.61822  1.0000
  C   C1104     1.0  0.66953  0.93890  0.62734  1.0000
  C   C1105     1.0  0.98988  0.96236  0.70955  1.0000
  S   S147      1.0  0.03322  0.96935  0.63671  1.0000
  H   H880      1.0  0.20916  0.91221  0.72301  1.0000
  C   C1106     1.0  0.24330  0.91876  0.71160  1.0000
  H   H881      1.0  0.21911  0.89790  0.49177  1.0000
  H   H882      1.0  0.56096  0.65365  0.72168  1.0000
  H   H883      1.0  0.45959  0.95879  0.69734  1.0000
  H   H884      1.0  0.16393  0.94769  0.63098  1.0000
  H   H885      1.0  0.10854  0.96899  0.48590  1.0000
  C   C1107     1.0  0.82238  0.96535  0.63211  1.0000
  C   C1108     1.0  0.15040  0.95825  0.63975  1.0000
  H   H886      1.0  0.05790  0.96155  0.70398  1.0000
  C   C1109     1.0  0.60576  0.65290  0.57523  1.0000
  H   H887      1.0  0.83936  0.96536  0.61516  1.0000
  H   H888      1.0  0.55224  0.70605  0.72888  1.0000
  C   C1110     1.0  0.73023  0.80565  0.72902  1.0000
  C   C1111     1.0  0.56546  0.87350  0.72860  1.0000
  H   H889      1.0  0.69132  0.92000  0.72768  1.0000
  Fe  Fe75      1.0  0.89991  0.90116  0.89028  1.0000
  S   S148      1.0  0.93628  0.93921  0.86898  1.0000
  S   S149      1.0  0.91929  0.89445  0.92701  1.0000
  Fe  Fe76      1.0  0.83829  0.87173  0.84996  1.0000
  S   S150      1.0  0.86943  0.90757  0.82622  1.0000
  S   S151      1.0  0.77541  0.83431  0.83786  1.0000
  Fe  Fe77      1.0  0.94516  0.91929  0.83916  1.0000
  C   C1112     1.0  0.13527  0.87111  0.77420  1.0000
  Fe  Fe78      1.0  0.85809  0.92460  0.85748  1.0000
  H   H890      1.0  0.67618  0.89084  0.94940  1.0000
  S   S152      1.0  0.91467  0.88204  0.86092  1.0000
  S   S153      1.0  0.82068  0.88779  0.88070  1.0000
  C   C1113     1.0  0.99149  0.83474  0.81490  1.0000
  C   C1114     1.0  0.14637  0.95126  0.81210  1.0000
  C   C1115     1.0  0.00068  0.87880  0.79416  1.0000
  C   C1116     1.0  0.05456  0.89173  0.73489  1.0000
  H   H891      1.0  0.69188  0.85381  0.81977  1.0000
  C   C1117     1.0  0.77850  0.93150  0.81676  1.0000
  S   S154      1.0  0.73069  0.68881  0.76255  1.0000
  Fe  Fe79      1.0  0.76100  0.73093  0.75846  1.0000
  S   S155      1.0  0.81681  0.76055  0.78143  1.0000
  C   C1118     1.0  0.99350  0.83840  0.79045  1.0000
  H   H892      1.0  0.16630  0.94641  0.82403  1.0000
  C   C1119     1.0  0.62816  0.76409  0.74995  1.0000
  H   H893      1.0  0.83579  0.85902  0.77424  1.0000
  C   C1120     1.0  0.74468  0.89086  0.94054  1.0000
  H   H894      1.0  0.81263  0.93122  0.75376  1.0000
  H   H895      1.0  0.09857  0.87629  0.80439  1.0000
  P   P37       1.0  0.72139  0.85946  0.95478  1.0000
  H   H896      1.0  0.61064  0.82356  0.73946  1.0000
  C   C1121     1.0  0.78801  0.81452  0.82160  1.0000
  C   C1122     1.0  0.83708  0.81917  0.81809  1.0000
  C   C1123     1.0  0.84523  0.80250  0.80566  1.0000
  C   C1124     1.0  0.80464  0.78121  0.79649  1.0000
  C   C1125     1.0  0.75560  0.77661  0.79997  1.0000
  C   C1126     1.0  0.74740  0.79324  0.81244  1.0000
  H   H897      1.0  0.86861  0.83540  0.82518  1.0000
  H   H898      1.0  0.88310  0.80601  0.80326  1.0000
  H   H899      1.0  0.72387  0.75995  0.79348  1.0000
  H   H900      1.0  0.70933  0.78944  0.81530  1.0000
  H   H901      1.0  0.10006  0.85546  0.76871  1.0000
  H   H902      1.0  0.59260  0.72282  0.79917  1.0000
  H   H903      1.0  0.90210  0.93199  0.75703  1.0000
  C   C1127     1.0  0.97001  0.93166  0.75101  1.0000
  H   H904      1.0  0.04180  0.96875  0.84864  1.0000
  C   C1128     1.0  0.73233  0.82052  0.90126  1.0000
  H   H905      1.0  0.99039  0.82366  0.78005  1.0000
  C   C1129     1.0  0.79848  0.95174  0.83102  1.0000
  H   H906      1.0  0.31359  0.84905  0.79301  1.0000
  C   C1130     1.0  0.86257  0.87628  0.73854  1.0000
  C   C1131     1.0  0.91847  0.90694  0.95433  1.0000
  C   C1132     1.0  0.91166  0.92729  0.95612  1.0000
  C   C1133     1.0  0.13434  0.88272  0.79431  1.0000
  C   C1134     1.0  0.06937  0.94923  0.80272  1.0000
  H   H907      1.0  0.90689  0.93604  0.94053  1.0000
  C   C1135     1.0  0.99906  0.87516  0.81852  1.0000
  H   H908      1.0  0.76659  0.86605  0.79233  1.0000
  H   H909      1.0  0.30469  0.88620  0.78958  1.0000
  C   C1136     1.0  0.93594  0.93866  0.74521  1.0000
  H   H910      1.0  0.99165  0.85005  0.84790  1.0000
  H   H911      1.0  0.79574  0.95751  0.90749  1.0000
  H   H912      1.0  0.88270  0.77325  0.73731  1.0000
  S   S156      1.0  0.83082  0.95183  0.85552  1.0000
  C   C1137     1.0  0.13862  0.92957  0.73787  1.0000
  H   H913      1.0  0.90249  0.81367  0.75215  1.0000
  C   C1138     1.0  0.34038  0.95996  0.76602  1.0000
  C   C1139     1.0  0.09314  0.90844  0.74858  1.0000
  H   H914      1.0  0.26057  0.92641  0.79501  1.0000
  C   C1140     1.0  0.78180  0.93924  0.91727  1.0000
  H   H915      1.0  0.10841  0.94806  0.90174  1.0000
  C   C1141     1.0  0.30202  0.87616  0.77423  1.0000
  C   C1142     1.0  0.38849  0.94005  0.76097  1.0000
  H   H916      1.0  0.90402  0.85158  0.77888  1.0000
  C   C1143     1.0  0.56748  0.71161  0.76502  1.0000
  C   C1144     1.0  0.17172  0.96570  0.79063  1.0000
  H   H917      1.0  0.18183  0.87044  0.74567  1.0000
  C   C1145     1.0  0.43222  0.96230  0.76679  1.0000
  H   H918      1.0  0.17911  0.91160  0.81720  1.0000
  H   H919      1.0  0.93109  0.88051  0.97373  1.0000
  C   C1146     1.0  0.72908  0.85057  0.78873  1.0000
  C   C1147     1.0  0.68684  0.84362  0.80429  1.0000
  C   C1148     1.0  0.99782  0.86045  0.77989  1.0000
  C   C1149     1.0  0.17975  0.90268  0.80154  1.0000
  H   H920      1.0  0.00068  0.88933  0.82932  1.0000
  H   H921      1.0  0.79393  0.81583  0.89094  1.0000
  C   C1150     1.0  0.81315  0.92962  0.91823  1.0000
  C   C1151     1.0  0.30337  0.84190  0.75665  1.0000
  H   H922      1.0  0.73163  0.88988  0.75421  1.0000
  H   H923      1.0  0.70505  0.63775  0.73846  1.0000
  C   C1152     1.0  0.01382  0.93984  0.73613  1.0000
  H   H924      1.0  0.53386  0.85898  0.74056  1.0000
  C   C1153     1.0  0.72321  0.83702  0.76912  1.0000
  C   C1154     1.0  0.63857  0.82321  0.80016  1.0000
  H   H925      1.0  0.39183  0.92449  0.75579  1.0000
  H   H926      1.0  0.73527  0.91544  0.78720  1.0000
  H   H927      1.0  0.67835  0.82903  0.91431  1.0000
  H   H928      1.0  0.98679  0.81739  0.82299  1.0000
  H   H929      1.0  0.73135  0.77896  0.75411  1.0000
  S   S157      1.0  0.00439  0.93814  0.80797  1.0000
  P   P38       1.0  0.66786  0.79790  0.74029  1.0000
  C   C1155     1.0  0.34184  0.93853  0.76094  1.0000
  S   S158      1.0  0.68599  0.72483  0.75056  1.0000
  H   H930      1.0  0.75634  0.84246  0.75746  1.0000
  C   C1156     1.0  0.57141  0.71993  0.74144  1.0000
  H   H931      1.0  0.00319  0.89574  0.78644  1.0000
  C   C1157     1.0  0.86459  0.86485  0.75972  1.0000
  H   H932      1.0  0.72825  0.64215  0.79267  1.0000
  C   C1158     1.0  0.93138  0.81340  0.74105  1.0000
  C   C1159     1.0  0.65248  0.84078  0.95988  1.0000
  Fe  Fe80      1.0  0.65733  0.68305  0.75118  1.0000
  C   C1160     1.0  0.63265  0.80956  0.78059  1.0000
  H   H933      1.0  0.59516  0.79353  0.77779  1.0000
  C   C1161     1.0  0.62471  0.75546  0.77356  1.0000
  C   C1162     1.0  0.18164  0.87975  0.76113  1.0000
  C   C1163     1.0  0.74502  0.95175  0.79265  1.0000
  C   C1164     1.0  0.77917  0.82317  0.90367  1.0000
  C   C1165     1.0  0.99409  0.85307  0.82894  1.0000
  C   C1166     1.0  0.62260  0.84051  0.94219  1.0000
  H   H934      1.0  0.07560  0.93147  0.83449  1.0000
  C   C1167     1.0  0.90405  0.86085  0.76242  1.0000
  H   H935      1.0  0.81989  0.89858  0.93060  1.0000
  C   C1168     1.0  0.75148  0.93141  0.79783  1.0000
  S   S159      1.0  0.58230  0.65109  0.77031  1.0000
  H   H936      1.0  0.71108  0.81113  0.88659  1.0000
  C   C1169     1.0  0.79488  0.90566  0.93002  1.0000
  H   H937      1.0  0.61923  0.88671  0.75500  1.0000
  H   H938      1.0  0.64046  0.85168  0.92545  1.0000
  P   P39       1.0  0.28678  0.91120  0.75051  1.0000
  C   C1170     1.0  0.22740  0.90042  0.76783  1.0000
  H   H939      1.0  0.64650  0.76872  0.78613  1.0000
  H   H940      1.0  0.03700  0.93658  0.87731  1.0000
  H   H941      1.0  0.78281  0.91562  0.82067  1.0000
  C   C1171     1.0  0.22616  0.91132  0.78857  1.0000
  C   C1172     1.0  0.80770  0.83606  0.92198  1.0000
  H   H942      1.0  0.46842  0.96366  0.76612  1.0000
  H   H943      1.0  0.04010  0.93434  0.74069  1.0000
  H   H944      1.0  0.84477  0.83877  0.92350  1.0000
  C   C1173     1.0  0.98011  0.83555  0.73586  1.0000
  C   C1174     1.0  0.59418  0.72938  0.78107  1.0000
  C   C1175     1.0  0.29375  0.88423  0.75255  1.0000
  H   H945      1.0  0.30712  0.82556  0.75823  1.0000
  C   C1176     1.0  0.67509  0.81628  0.76499  1.0000
  H   H946      1.0  0.96176  0.91938  0.76687  1.0000
  C   C1177     1.0  0.30701  0.85513  0.77624  1.0000
  H   H947      1.0  0.60595  0.81771  0.81238  1.0000
  C   C1178     1.0  0.78975  0.84661  0.93772  1.0000
  H   H948      1.0  0.54544  0.69131  0.77065  1.0000
  C   C1179     1.0  0.09512  0.94292  0.81813  1.0000
  P   P40       1.0  0.99498  0.86444  0.74859  1.0000
  C   C1180     1.0  0.71403  0.83087  0.91706  1.0000
  S   S160      1.0  0.71021  0.95031  0.76871  1.0000
  C   C1181     1.0  0.74263  0.84408  0.93547  1.0000
  C   C1182     1.0  0.94280  0.86878  0.74419  1.0000
  H   H949      1.0  0.16851  0.94214  0.74845  1.0000
  C   C1183     1.0  0.92564  0.89621  0.97485  1.0000
  H   H950      1.0  0.08881  0.90548  0.76751  1.0000
  H   H951      1.0  0.85134  0.94053  0.90935  1.0000
  H   H952      1.0  0.81381  0.85749  0.95109  1.0000
  H   H953      1.0  0.54668  0.82561  0.93210  1.0000
  C   C1184     1.0  0.56938  0.82580  0.94591  1.0000
  C   C1185     1.0  0.61349  0.88894  0.73673  1.0000
  C   C1186     1.0  0.11077  0.96235  0.88916  1.0000
  C   C1187     1.0  0.29457  0.84965  0.73505  1.0000
  C   C1188     1.0  0.75852  0.89724  0.73870  1.0000
  H   H954      1.0  0.70857  0.93287  0.92807  1.0000
  H   H955      1.0  0.83217  0.87952  0.73642  1.0000
  C   C1189     1.0  0.07050  0.95587  0.87541  1.0000
  H   H956      1.0  0.81579  0.78900  0.73905  1.0000
  C   C1190     1.0  0.73255  0.92520  0.92867  1.0000
  C   C1191     1.0  0.71414  0.90119  0.94049  1.0000
  C   C1192     1.0  0.80440  0.92097  0.73820  1.0000
  C   C1193     1.0  0.91997  0.79038  0.73268  1.0000
  C   C1194     1.0  0.09526  0.96422  0.78161  1.0000
  C   C1195     1.0  0.75188  0.79330  0.73953  1.0000
  H   H957      1.0  0.30563  0.95977  0.76510  1.0000
  H   H958      1.0  0.07588  0.96957  0.76981  1.0000
  H   H959      1.0  0.50421  0.79955  0.97004  1.0000
  C   C1196     1.0  0.60169  0.74602  0.73390  1.0000
  C   C1197     1.0  0.54547  0.81113  0.96727  1.0000
  C   C1198     1.0  0.28958  0.87069  0.73297  1.0000
  C   C1199     1.0  0.80014  0.79918  0.73113  1.0000
  C   C1200     1.0  0.91217  0.93674  0.97809  1.0000
  H   H960      1.0  0.90709  0.95255  0.97919  1.0000
