data_image0
_chemical_formula_structural       HSFeS2FeCFeCSFeS2FeS2FeSFeS3CH3FeS2FeS2FeSFe3SCSFeS2FeS2FeSFeS3FeSCSCHFeSCSC3HC6H4C3H4C7H7C2SHC8H3C6H4CH2CHC3H2CHC6H3FeC6H4CH2C3H4C4H4CH2CSC2H3CH3FeHCHC8H3C2PHC7H2CH2CHCH2C2PCH4C2H4C5HC4SCHC2H5C2H2SHCH2CHCHCHCPSCHC5HC2H2C4HCHC2HC2H2CHC3H4C4HCH2SHC2HC4HC2HPH3CHCHCHC6PC4HC10PC2H8CH12C3HCSC4HC5HCH2C3HC2HCH2CH2CH4C2HC6PC4H2C2HC5H3CH2CHCHSH3C5SH2C3HCHCHCH2CHC3HC2PH3CH2C2HCHCH5CH3C2HCH3CHCH4C2SHC2HCH3C2HCHCHC2H5CH5CH2C3FeSCFeH2SCFeS2FeS2FeSCS2FeCSHCFeS2FeS2FeSCFe2S3FeS2FeS2Fe2S3FeS2FeSHFeSFeS3HC5HC2HC4H3C6H7C2HC6H4CH3C7H4C4HC2HCHSC6H3C6H3CHC4H2CHC4PC11H11C2HCHCH2C2HC9H4C3H3CH2C4H3CH2C3HPC4HCHCHC5HCHCH3CHCHPC5HC6HCHCH2CH4C2HCHCHC3HC4PC20H4CH11C2HC2SPCH2CH2C2HCHC9HCH2C2HSC4H6CH3CPC12H4CH14C2H3C2HPCHC7HC5H7C4H2C6H2C3H2C2H3C2H6C2SHC2HFeCHC4H3C2H3CHCHC5HCH2C3HC3H4C2H2C2H3C2HC3HCHC3PC4H2C2HCH8C4H5C4H3CHC3HCH5CHPC3H2C2H4FeCHC4HCSHC2HCH2SH3C2SHCPCHCH4CH3C3HCSC2FeS2FeS2FeSFeS3CSHSFeSHFeS2FeSCSCHFeS2FeSCFeSFeS3FeSFeSCSFeCSFeS3PC2HC5SH4C6H4CH2CH2CHC2H3C7H5C6H7FeC2HC6HCH2CH2C8H8C5HSHC4HC7PC18H7C2H11C5HCHCH2C2H2PC2H4C4PCHC2H2C2H3C4H6CH2C4H2CH3C3HCH2CHFeSC6PC18HCH5C2H9C2HC3HSHCSHCHC2PC18H17C3SC3FeHC3PC4HC6HC6HPHCHC2H4C4H5CSC2H2CH4C2H2C2HCHCHCH2CPFeC11H2CH4CH7C2HC3H2CH4CHC3HC3HC6PCHC2H5CH3FeCH3CSC3HC7H2C3HC2H3CHPH4CHC2H7C2HCHC5SC3H2C2HCHC2HC4H5C3HCHC2HSCHCHC2H2CHC7PC2H2C4H3C6H2CH5CSCH2C3H2C6HCH2C3SHCH2C5HCH2FeC2FeS2FeSFeSFeS3HC3FeS2HSFeS2FeS2FeSFeS3C2HCHS2FeC2FeS2H2FeHSCHC3HC8H4C6H4C3H2C2SHC2H3SH3SHCHCHC2HC6H4CH2CHC5HCH2C8H6PC2H3C4HCHC3H2C4HC5HC2H4C2HC2HC2SHC2H4CS2CHC2HCH2CHC3H2CH3CHC3H4CFeC2HCHC3HC3PCH5C3H2CPC4H3C2HCHCHC2PHFeCH4C2HCH6C2HC2H5CHC3H3SHCHC3SCHC2HC2H2PC12HCH12C2PSC2HC5H3C2SHC8HCSCH3C5HSHCSC7H3CHCH4C3HC6PC9H2C2HCHC2H15CFeC2H3C4H3CHCH6CHCH2C6H2C3HC2H2CH2C2PC2HC3H2C2HFePFeC2HCHC3H2C2H2C2HCH2CHC2HCHC2HCHCHCHC3H4CHCH2C3H3SH2C3SC3HCSC3HC3H2CH2FeS2HSCFeSFeSCSFeS2FeS2FeSFeS2HCHCFeSHCHSHFeS2FeSFeSFeS3H2C2SCHC7H5C2H2C7H4C6H4CHC2H2C6H4C3H3C2HPH2CPC6HCH3C3H2C3H4C2HCHC2H2C4HFeHC3HC3H2SCHC2HCHCH2C6PC3HC9H12CHCSH4C3HC6H3C3HCH2CH6C4H4C4SCH3C2HCHSHCH2CH3C2H3C6HFeHCHP3C2HC2H2CH4CHC2HC2H3C5HC3PH3CHPHC3H2CHC4HCSC2PCHC13H3CH3C2H7C4H4CHCHC5HC6H2C15HC3HC2H12C2HCHCHC4H3C5HSC2H3CHFeH3C4PCHPH2CHC12HCHCHCHCH2CH5C2H3C2HC2HC5H4CH2CHC2HC2HCHCHSCHSC2FeS2FeSCFeCFeS2FeS2FeS2FeCFeS4CFeS2FeHSH3S2FeS2FeSFeSFeSHCHFeS3HCHS2HCHC5H2C6H7C2HC6H5C2HC6H5CHC2H2C7H6C2SH3SC4H2C2HCH3CHC7HCH3CHC3HCPHCH2C2HCHC3HCH2CHC6PH3C2HCH2SC2HC2H2CH5CHCHSH3CH2C2HCHC3PC4H2C6HCSCH4C3H4SH5CHC2H2C8HC4H5CHPCHC2HCH4C2H2PH5C2HC3SC2H2C2H2C2H4C3HC2PCHCH2C10H5C2H3C6HC2PC7H4C2H2C2SC4HFeH4CHCHC2HC3HS2HCHC2H4CHC2H3CHC2PCH2C4HSCHC2HFeCFeHCHPCH2C7PC8HC7H13FeH4C6PC14H8CH8C7H2C3H2C4HCH2CHC2H2C2HCH2CH3C12HCSCHFeC2HSCFeH2FeS2FeCFeS3FeSCFeSCHCFeSPFeS2FeSFeS3C2SFeS2FeSFeS3CFeS3C2SH2CH2C2H2C2SHC3H2C4HCH2C8H3CHC2H5PC8H5C4H2C7H6C2HC2SH2C3HC6H4C2HC6HC3H3CFeC3PC9H2C7HC2HCH11CH3C2H2CH2CH6CHC2PC2H3CHCSH4C11HC3H3C2H3C3HCHFeCHC3H2CHCH2CHCH5S2HSHCHC2PC4HC2H2SCHC2HCH4C2H3CPCHCHSHCHC4HC3H3C6H4C4HCHCHCFeHCSCHC3HC2H6C2HC2HC2HC3PC15HC2H15CH6C7HC2H2SHCHCH2C3SC3HCHCHCHCHCH3C3HCPCHCH4CH3C4HPH2C5H3CH3CHCSHFeS2Fe2S4C2HSC2SFeS2CSH2FeSCSHCHFeS2FeS2FeSFeS3HC4HCH6C8H3C3H2C9H2C2H2SCHC2H3C2HCHC4H4C4H4CHCHC2SHC6H4C2H2C3HC3HCH3CPH5C2HCH2C2HCHCH3C2H3CHC5H3CHCH3CH2CFeCFeC2HSCH6CFeC2HC2HC2H3C4H2SHC3H4SH4C5PC6H10C6H2CPH2C7HCH7CHC2H2CFeC3HC3H2CH2CHCSC4H2C3H2C3PC4HC9HC2PHCH7CH3CHC2HC3HCHC2H2C3H2CHC3HCPHCH2C4H3SH2CH2C2HCH2C4HCHC3HC7PC2H4CHC2H5C2HCHC2SCHCHC2SH3C3HCHCFeH2C3HC3PC4FeHC7HFeC4H4CHC2HC2H2SC3HCHCHCPC2HC2HCHCH2CH3C2FeS2FeS2FeSFeHS2CHFeSFeS3CHFeS2C2HCHFeS2FeS2FeCFeS3C2HFe2S2FeS2FeS2FeSFeS3C6H2CSC2H2C6H4C6H4FeHC5H3C4H4C4HCH3C6H6C6H4C4H2CHCHC2HC3PC6HC7H3CHSHCHCH4C4H2C2H6C4HC3PC15HC2HCH8CH3CHC2PHCHC2H4C5HC3H2CHC5HSH2C2HCHC2HCH2C3HSCHFeHCHSCH2C2SHC3H3C2HC2H2PC12HCH2C2H2C3PC3H2C13H16CH4CHC5HCH2C4H3SC3FeCH4CFeHCH3CPH2CHCHCHCH2SCPCH2CSC5H2CH2C2H5CH2CHC3HCH3C5HC3H3C2H2CH3C3H5C2HCH2CH2C3H3CPCHCH2CSH2C4SHC3HFeSCFeS2CHFeS3FeS2FeS2FeSFePS2C2SC3SFeSHSFeSCFeS2FeSFeHSHFeS2FeSFeSFeS3FeSFeS2FeSFeS3FeCH2C6H4C6H4C6H5C2HCH3CH2CHCHC6H4C2HC3H3C6H4C2HC3HCS2C6H9SC3HC3H3C2H3FeC2H2CHC2H3C7PC5H2CHC3H5CH3CH8CH2CHCHPCH3PHC2HSC6H2C2H2CHCH2C2H5C2HC2HC3HSC2H4PC3HPC7SCH4CHC3HCH2CH5C4H6C10PC9HC8H10C4H3CH2C2H2CHC8HCH3C2HCH3C6PC14HC3H16C3HC6H7CH6CHCHCHC4PC5HC3H2C5HCHCH3C3H2C4H4CPHC2H2C2HCHC3H2SC2H2C3HCHCHCHCHCH2CHCHCSC4H2CH2CH2C2H3C2H3CFeSHCSCFeSCSCFeS2FeS2FeSFeCS2HFeS2FeS2FeSFeS3FeS2C2HFeSHS2HCHFeS2C6FeS2FeS2FeHFeS3C6H4C3HC3HC8HCHC6H4CHC7H6C3HCH2CHC6H4CH3C4H3CHC6H4C8HCH6C6H4CH4CHC6PC2HSH2C4HC7H5CHCH3CH7CHC5SCHC2HCHCHC2FeHC4HCHCHC3H4C6PC14HC4H15CHCH2C2PCHC2H5FeSHPHC9FeC2H2PC2HCH2CH6CH4C3HC6HC3HC3H2C4HC2H3C2HC2HC4HPHC2HC5H3C7H4CHCFeHC5HC3H4C2HC3FeC2HCHCPH2C2H4CH3CSC2H2CHCHCH3C2H5PHC6HPHCHCH2CHPC2H2C3H2C2H2CHC3H2C2HC2H2CHCHSH3C2HC2HSHCSHCSC2H5SH5C2H4CHCSFeSCFeS2FeSFeS3FeS2FeSFeHFeS3FeS2FeS2Fe2S3FeCFeCFeHSH3FeSCFeS2FePSFeSFeHS3H2CHC6H4C4SC6H4C6H3C3H8C7H4C6H4C6H4SC4H3C7H3CHCHC8H3C3HC4PC3HCH2C5HC2H2C3H8C2HC3PC14H2C4H6C2H7SH2C4SPSH3CH2CSH2C2H4C2HC3HCH2CHC2HC3HCH2C2H2CH2C2HCHCHC3PC19H11C2H6CHC4PC3HC11HPCH2CHCH3CH5C3HPH2CH2CHC4HCHC2HC4HCH4CHCH5CPCHCH2C3HC2H2C2PC13HCH10C2HCHSH2C2H3C9H2C3H2CH3CHC2HSCHC4H2CH3CH2C5SH2C3HC6SH2PCHCH2C2H4C3HCHCSHCHCH2CHCH3SCH5C2H2CPCHCSCH3CH2C2H2C5HC2HC2H2SH2CFeS2FeS2FeSFeS3CFeS2FeS2Fe2S3HCHFeSCFeSHFeSFeH2SHSCH2C2SCH2C4H2C3HC2H5C3HCHC3HC2H2CHC10HC2HCPC6H8CH2CHC9H6C5HC7PC3SHC2HSC2HC3HCHC2HC5HCH3CHSHC4H2C2HC5H4C3H2CH3C3H2CH4C5H2C2HCH4SCH2C4SHC2H2C2HC4H2CSC4HCH2C3PCHC2H2C3H2CHCH2C2HC2HCHCFe2C2H2C6PC2H2CHC2HC2H3C2SH7CH2FeH3C10PC3HCHC12H7SCH2C2H7CHC4PC6H11C3HCHPC2H2C2H5C4H2CSPHCHC3HCHC5HC3H2C4HC3HC3H3SC2SC2HCH4CH2C2H2C2FeCHCHC2HCHCHC5PCH4CPHC4H5C3HCH2CSCHCH4FeSHCHC3H2CHCHCHCHCH4C2HCH2CHC2H3CSHFeC2FeS2HC2FeSPFeSH2SCHFeS2FeS2FeSFeS4CFeS2CSCSHFeSFeS2FeCFeS3C6H3CHC2HC2H2C3HCH3C4H5SCHPC3H2SH2C6H3C2HCH2C6H4C2H4C2FeCH2C4SCHC2H2CH2CH2CHC2HCHC4HC2H2C2HCH3CSHFeCH3C2HSH2CHC3HC2HCH2SH2C2SC3SH2C3HC2H3CH3CH5C3HCH2CHCH2C3H2CSCH2CHC2HCHCPHCHCH4C2FeHCHC2HPSCHC8PC18H20C3HCHC2HC3H2C2HCHPHC3H3C2H2C2HC3H2C2HC13SHCHC2H3FeC3HCHCFeC2H3C7H2FeHCHCHC2H3SHC2HC3H2FeC3HCH2C2HCH9C6HCHC2FeSC2FeS2FeSHFeSFeS3FeS2C2HC2HS2FeS2FeSFe2S3HFeHSFeHSFeCH2S2FeCSHSC2H3CHC2FeC7H4C3HCH2C3SFeC8H4C6H4CH2CHCH3C6H5CSC2H4C2H4PCHC3H3C3HCHC7SH3C3H2C2H4C11H2CH2CH5C5PC3HC14H4C2H2C2H7CPSC8H2CHCHCH3CH2CHCH3C3HC2HCHCHC6PC10H12C9H8C3SH3C3HC2PC14H2C5H12C2H8PC9H3SH4CH2C2SC2HCH3C5HC3SHC2PHC2HCH2CHC6H2CHCH3CHC3H4CHCSHC2H3C2HPH2CHCHSPCHCHC2HC4H2C3H2CHC2HSH2CH2C2HSC2SHCH4C4H2CHFeHSCH2FeCSH2SFeS2FeS2Fe2S3FeSCHSFeSFeHSCFeSFeS2FeSFeS3CHC2HCHCSCFeSC2HC8H5CH2PC2H2C10H4C6H4C2H3C6H6C6H4CH3C3HC3HC2H2CHC2HC2HCHC4H2CH3CHCHC3H2SH2C2HC6PC18H7C2H3CH9CH3SHC6HSCHC4HC3H2C6HC4PC8HC2PC3H2CH13C2HCHCHC4HC5FePC2H2C4H3C8HCH3C2H2CHPCH7C2HC6HC2H3CHC3H2C6HCH6C3HC4H3C5H3PFeHCHC4HCHCHCHCH2CH2PHC3HC3H2C2HCH6C2HPC4H3C5H2CH6CH2C2H7CH4CHSHC2H2SCHCHPCH5CHC5H4C6HC3HCHSC2HC6HCHSCH3C2H3CH5CHC3HCHC3HCHCHPH2CHC2H2CHCSHC4HCH2CH2CH2C7HFeS2CSH2FeSCFeCFeS2C2FeS3FeSHFeS2FeSFeS3CFeS2FeH2FeCFeS2C2SH2C4FeHC6HC2H2C10H3C3HCH3C2HCHC2H2C6H4PH2C6H6C7H4CHC6PC5HC11H18CH3C5HSHC3H4C5H3CHSC5SH2C3FeCH3C4H2C2HC3HC2FeH3FeHCH2C5H2CH3CHCH4C2HCHSC3HCH4C4H2C3HCFeC2H3C2H2C4HC3HCH3CH2CSPH2SCHC3H2CH2C2HC2HFeCH2CH2CHC2SC8SC2H9CH2CH2CHC5HSC2PH3C2H3CH4C4HC6PC4H2C9HCH3CH2CFeH2CH9C2HC7HCH3CH2CSHC2SPC2HCHSH3C2H3C2PHC2HC2HC2H2C2HCSCFeSH2FeS2FeS2FeHFeS3C3HFeS2CSHFeSCFeS2FeS2FeSFeS3CS2FeH2FeS2FeC2SHCHCH2C4H3C6H2CHCHC5H3C2HCH3C6H3C6H4C4H3C7HCH3C4H3CH2C7H6C2HSC6H4CHCHSCHCH3C4HCHC4FeHCSH3S3C5HCHC4PC19H17PH4FeC4H4C2HCHC7PC18H18CH2C2H2CH2C3HCSFeC2SCHC5H2CH5SCH9CFeC2H3C2HCHPC5HCHC3HCHCHC7PC5SC3H3C6H7PHSH2CHCH5C6HCH2C3H2C2HC2H2CH6CHSHC2H4CH2CHC6PC2FeH2CSC3PC4H6C4HCHC2H2C6PC18H20C2HCH2CH4C2HPC9H2C8H5CH3C2H5C3HCH2C5HC2HC2H4C2H5CHC3H2CSC2H2SHC3HCHCH4C2HCHCHC3HCSFeCHCHCHFeSCFeS2FeS2Fe2S3CS2FeS2FeSFeS2CFeS2FeS2FeSFeS3CSCFeSHFeSFeSHFeS2FeSFeSFeS3CH5C6H4CHC2HCHC8H4C6H4C5H5C4H2C5H2C8H4C6H5C5H4C4H3C7PC18H11CH8C3H3CH2CHCHPH2C2H2CHPC8HCH2CHC2H3FeCH9CH3CHCHC4HCH2CHC3FeHCHCH2C3H3CH3C6PC8HC8H18CHCHCHCH4C4HC14HC3HCHCSC8PHC6H2C4HCHC2H11CHC3HCHPCH2PC2S2PHC3HC3HC3HC3H2C2H5C6PC5SC12HCH5CH9CHSCHC6H4C4HSCHCSH3CHC7HC3HC2H2C2HCHC2HSCHCH2C2HC3H2CH3PHCHC3HCH4C2HCH2CH4SHCHCHCPH5CHCH2CH2CH2C2HCHC2H3C4H2C6H3CFeS2FeSHFeS2FeHFeSCSFeS2FeS2FeSFeS3FeHFeC2HSFeS2FeS2FeSFeS3FeS2FeS2Fe2S3C3H6C4H2C7H5CHCHCHCHC8H2C5H2CH2CSC2H2CHCH5C13H4C6H4CH2CHC6PC4HC9HCHCH2CH4CH8CH2PC10H9C3SH2CHCHC5HFeH2CHC4H4C3H3C5HCHCHC5SC5SC2H2C9H2CHC4H3CHSCHC2HCHPC2H2C2HCH2CH2CH6CH4CHC2PC18H11CH6CH5C2H2CHCH2CH4CHC4H2CHC2HC2H2C2HC2HSC2HC2PC16FeCH14CH2CH2PHCHCHC2PC4HCHCH3CH2C4HCHC3HC6SH3C2H2CPC3H2CH2CSCH3C2HCH5CHC2HPHC2
_chemical_formula_sum              "H4608 S768 Fe384 C5760 P192"
_cell_length_a       67.0114
_cell_length_b       67.099
_cell_length_c       67.5181
_cell_angle_alpha    77.8105
_cell_angle_beta     77.8701
_cell_angle_gamma    77.8127

_space_group_name_H-M_alt    "P 1"
_space_group_IT_number       1

loop_
  _space_group_symop_operation_xyz
  'x, y, z'

loop_
  _atom_site_type_symbol
  _atom_site_label
  _atom_site_symmetry_multiplicity
  _atom_site_fract_x
  _atom_site_fract_y
  _atom_site_fract_z
  _atom_site_occupancy
  H   H1        1.0  0.33610  0.08628  0.32189  1.0000
  S   S1        1.0  0.34704  0.15760  0.42088  1.0000
  Fe  Fe1       1.0  0.29306  0.16035  0.40701  1.0000
  S   S2        1.0  0.31821  0.13273  0.40347  1.0000
  S   S3        1.0  0.26004  0.16147  0.40288  1.0000
  Fe  Fe2       1.0  0.32440  0.13592  0.43391  1.0000
  C   C1        1.0  0.48241  0.00122  0.25783  1.0000
  Fe  Fe3       1.0  0.33886  0.15635  0.39044  1.0000
  C   C2        1.0  0.11743  0.98758  0.27472  1.0000
  S   S4        1.0  0.29735  0.16132  0.43896  1.0000
  Fe  Fe4       1.0  0.34971  0.06940  0.24501  1.0000
  S   S5        1.0  0.36804  0.04006  0.25980  1.0000
  S   S6        1.0  0.33502  0.07398  0.21649  1.0000
  Fe  Fe5       1.0  0.36205  0.09567  0.27159  1.0000
  S   S7        1.0  0.38239  0.06855  0.28697  1.0000
  S   S8        1.0  0.35423  0.12749  0.28077  1.0000
  Fe  Fe6       1.0  0.39281  0.05908  0.25595  1.0000
  S   S9        1.0  0.42477  0.04474  0.24164  1.0000
  Fe  Fe7       1.0  0.35583  0.05218  0.28942  1.0000
  S   S10       1.0  0.34695  0.03612  0.32179  1.0000
  S   S11       1.0  0.37511  0.08801  0.23993  1.0000
  S   S12       1.0  0.33492  0.07976  0.27517  1.0000
  C   C3        1.0  0.21474  0.02225  0.30157  1.0000
  H   H2        1.0  0.99029  0.09251  0.22926  1.0000
  H   H3        1.0  0.30984  0.08591  0.38258  1.0000
  H   H4        1.0  0.26004  0.09588  0.34653  1.0000
  Fe  Fe8       1.0  0.36436  0.15450  0.09448  1.0000
  S   S13       1.0  0.35110  0.12660  0.11396  1.0000
  S   S14       1.0  0.37686  0.16177  0.06048  1.0000
  Fe  Fe9       1.0  0.29729  0.01037  0.15230  1.0000
  S   S15       1.0  0.32158  0.02207  0.12690  1.0000
  S   S16       1.0  0.29881  0.00819  0.18591  1.0000
  Fe  Fe10      1.0  0.27266  0.00008  0.12289  1.0000
  S   S17       1.0  0.29524  0.01154  0.09525  1.0000
  Fe  Fe11      1.0  0.40296  0.17104  0.07072  1.0000
  Fe  Fe12      1.0  0.32035  0.99476  0.11323  1.0000
  Fe  Fe13      1.0  0.29481  0.03807  0.11117  1.0000
  S   S18       1.0  0.29489  0.07075  0.09312  1.0000
  C   C4        1.0  0.01241  0.03166  0.17025  1.0000
  S   S19       1.0  0.27012  0.02811  0.13762  1.0000
  Fe  Fe14      1.0  0.20425  0.12218  0.33402  1.0000
  S   S20       1.0  0.19584  0.10074  0.36327  1.0000
  S   S21       1.0  0.23297  0.13690  0.32774  1.0000
  Fe  Fe15      1.0  0.16732  0.11682  0.31648  1.0000
  S   S22       1.0  0.15629  0.09455  0.34456  1.0000
  S   S23       1.0  0.15098  0.13058  0.28903  1.0000
  Fe  Fe16      1.0  0.16314  0.11655  0.36212  1.0000
  S   S24       1.0  0.13995  0.12694  0.38889  1.0000
  Fe  Fe17      1.0  0.19008  0.08048  0.34335  1.0000
  S   S25       1.0  0.20305  0.04684  0.35365  1.0000
  S   S26       1.0  0.17186  0.13985  0.33431  1.0000
  S   S27       1.0  0.20080  0.10087  0.31373  1.0000
  Fe  Fe18      1.0  0.01543  0.16607  0.26818  1.0000
  S   S28       1.0  0.02233  0.14169  0.29529  1.0000
  C   C5        1.0  0.27410  0.01762  0.34541  1.0000
  S   S29       1.0  0.01228  0.10872  0.26997  1.0000
  C   C6        1.0  0.39284  0.13516  0.23000  1.0000
  H   H5        1.0  0.44000  0.13403  0.18551  1.0000
  Fe  Fe19      1.0  0.03976  0.12271  0.27138  1.0000
  S   S30       1.0  0.07002  0.10176  0.27776  1.0000
  C   C7        1.0  0.39505  0.99354  0.31245  1.0000
  S   S31       1.0  0.03438  0.14793  0.24411  1.0000
  C   C8        1.0  0.20786  0.03620  0.31547  1.0000
  C   C9        1.0  0.22554  0.01161  0.34064  1.0000
  C   C10       1.0  0.21305  0.03076  0.33513  1.0000
  H   H6        1.0  0.22949  0.00729  0.35590  1.0000
  C   C11       1.0  0.12749  0.12322  0.28757  1.0000
  C   C12       1.0  0.11442  0.13615  0.27453  1.0000
  C   C13       1.0  0.09623  0.13022  0.27209  1.0000
  C   C14       1.0  0.09123  0.11103  0.28234  1.0000
  C   C15       1.0  0.10424  0.09817  0.29548  1.0000
  C   C16       1.0  0.12217  0.10431  0.29827  1.0000
  H   H7        1.0  0.11846  0.15073  0.26616  1.0000
  H   H8        1.0  0.08640  0.14020  0.26184  1.0000
  H   H9        1.0  0.10052  0.08331  0.30348  1.0000
  H   H10       1.0  0.13213  0.09416  0.30827  1.0000
  C   C17       1.0  0.01196  0.14996  0.42852  1.0000
  C   C18       1.0  0.11938  0.03527  0.27864  1.0000
  C   C19       1.0  0.45521  0.15083  0.00495  1.0000
  H   H11       1.0  0.13322  0.15782  0.44955  1.0000
  H   H12       1.0  0.27447  0.11721  0.31451  1.0000
  H   H13       1.0  0.40039  0.16508  0.44456  1.0000
  H   H14       1.0  0.47187  0.10924  0.05201  1.0000
  C   C20       1.0  0.10833  0.08348  0.46196  1.0000
  C   C21       1.0  0.33531  0.11159  0.10764  1.0000
  C   C22       1.0  0.32835  0.11615  0.08878  1.0000
  C   C23       1.0  0.31584  0.10364  0.08453  1.0000
  C   C24       1.0  0.31072  0.08615  0.09881  1.0000
  C   C25       1.0  0.31790  0.08151  0.11754  1.0000
  C   C26       1.0  0.32976  0.09440  0.12209  1.0000
  H   H15       1.0  0.33266  0.12922  0.07746  1.0000
  H   H16       1.0  0.31036  0.10734  0.06999  1.0000
  H   H17       1.0  0.31424  0.06800  0.12854  1.0000
  H   H18       1.0  0.33515  0.09068  0.13669  1.0000
  H   H19       1.0  0.47884  0.15652  0.20855  1.0000
  H   H20       1.0  0.10891  0.11626  0.45584  1.0000
  H   H21       1.0  0.43092  0.00799  0.16034  1.0000
  C   C27       1.0  0.46908  0.07597  0.20657  1.0000
  C   C28       1.0  0.35719  0.99435  0.25219  1.0000
  S   S32       1.0  0.99080  0.13720  0.21631  1.0000
  H   H22       1.0  0.24098  0.06558  0.45084  1.0000
  C   C29       1.0  0.44393  0.07687  0.16050  1.0000
  C   C30       1.0  0.01912  0.16670  0.39278  1.0000
  C   C31       1.0  0.16515  0.14609  0.43850  1.0000
  C   C32       1.0  0.14389  0.15020  0.43808  1.0000
  C   C33       1.0  0.13635  0.14470  0.42250  1.0000
  C   C34       1.0  0.15006  0.13531  0.40706  1.0000
  C   C35       1.0  0.17140  0.13186  0.40703  1.0000
  C   C36       1.0  0.17890  0.13708  0.42284  1.0000
  H   H23       1.0  0.11984  0.14768  0.42244  1.0000
  H   H24       1.0  0.18209  0.12487  0.39507  1.0000
  H   H25       1.0  0.19534  0.13409  0.42303  1.0000
  C   C37       1.0  0.32846  0.05362  0.20758  1.0000
  C   C38       1.0  0.32287  0.03604  0.22108  1.0000
  C   C39       1.0  0.31520  0.02140  0.21388  1.0000
  C   C40       1.0  0.31260  0.02444  0.19330  1.0000
  C   C41       1.0  0.31946  0.04132  0.17952  1.0000
  C   C42       1.0  0.32721  0.05593  0.18667  1.0000
  H   H26       1.0  0.32378  0.03408  0.23721  1.0000
  H   H27       1.0  0.31070  0.00792  0.22439  1.0000
  H   H28       1.0  0.31802  0.04354  0.16353  1.0000
  H   H29       1.0  0.33170  0.06939  0.17604  1.0000
  C   C43       1.0  0.33989  0.01185  0.32521  1.0000
  H   H30       1.0  0.29988  0.98575  0.38157  1.0000
  H   H31       1.0  0.48637  0.17062  0.17131  1.0000
  C   C44       1.0  0.00141  0.99975  0.16916  1.0000
  H   H32       1.0  0.20659  0.05526  0.40221  1.0000
  C   C45       1.0  0.33222  0.00603  0.30997  1.0000
  C   C46       1.0  0.22029  0.98373  0.07461  1.0000
  C   C47       1.0  0.33501  0.14388  0.16278  1.0000
  H   H33       1.0  0.33095  0.01648  0.29554  1.0000
  H   H34       1.0  0.41082  0.07503  0.12930  1.0000
  C   C48       1.0  0.41878  0.01825  0.16843  1.0000
  H   H35       1.0  0.29063  0.11197  0.45506  1.0000
  C   C49       1.0  0.36080  0.14102  0.34266  1.0000
  C   C50       1.0  0.37743  0.12958  0.33104  1.0000
  C   C51       1.0  0.37504  0.12395  0.31285  1.0000
  C   C52       1.0  0.35611  0.13021  0.30580  1.0000
  C   C53       1.0  0.33940  0.14153  0.31749  1.0000
  C   C54       1.0  0.37687  0.13651  0.16689  1.0000
  H   H36       1.0  0.39233  0.12526  0.33600  1.0000
  H   H37       1.0  0.38812  0.11556  0.30379  1.0000
  H   H38       1.0  0.25491  0.04593  0.30527  1.0000
  Fe  Fe20      1.0  0.00508  0.13564  0.24486  1.0000
  C   C55       1.0  0.25359  0.15339  0.38211  1.0000
  C   C56       1.0  0.23368  0.14890  0.38412  1.0000
  C   C57       1.0  0.22736  0.14347  0.36769  1.0000
  C   C58       1.0  0.24087  0.14278  0.34894  1.0000
  C   C59       1.0  0.26077  0.14751  0.34680  1.0000
  C   C60       1.0  0.26725  0.15249  0.36343  1.0000
  H   H39       1.0  0.22302  0.14970  0.39848  1.0000
  H   H40       1.0  0.21190  0.14017  0.36947  1.0000
  H   H41       1.0  0.27129  0.14726  0.33231  1.0000
  H   H42       1.0  0.28261  0.15604  0.36167  1.0000
  C   C61       1.0  0.03837  0.13479  0.36177  1.0000
  H   H43       1.0  0.40227  0.13382  0.42959  1.0000
  H   H44       1.0  0.39904  0.00461  0.21592  1.0000
  C   C62       1.0  0.44970  0.14334  0.07183  1.0000
  C   C63       1.0  0.43954  0.12741  0.08356  1.0000
  C   C64       1.0  0.45019  0.11096  0.09610  1.0000
  H   H45       1.0  0.25466  0.99863  0.04169  1.0000
  H   H46       1.0  0.42351  0.12765  0.08284  1.0000
  H   H47       1.0  0.44234  0.09863  0.10503  1.0000
  H   H48       1.0  0.03956  0.10439  0.35530  1.0000
  C   C65       1.0  0.45574  0.06144  0.21411  1.0000
  C   C66       1.0  0.44141  0.06290  0.23237  1.0000
  C   C67       1.0  0.44083  0.07851  0.24339  1.0000
  C   C68       1.0  0.45478  0.09244  0.23632  1.0000
  H   H49       1.0  0.45627  0.04931  0.20561  1.0000
  H   H50       1.0  0.42991  0.07959  0.25757  1.0000
  H   H51       1.0  0.45457  0.10421  0.24514  1.0000
  H   H52       1.0  0.06012  0.11138  0.32033  1.0000
  C   C69       1.0  0.43570  0.06975  0.14648  1.0000
  H   H53       1.0  0.45860  0.06889  0.16489  1.0000
  H   H54       1.0  0.44397  0.05619  0.14010  1.0000
  C   C70       1.0  0.31369  0.07554  0.41395  1.0000
  S   S33       1.0  0.36517  0.14972  0.36413  1.0000
  C   C71       1.0  0.16087  0.00192  0.30481  1.0000
  C   C72       1.0  0.18666  0.07153  0.46512  1.0000
  H   H55       1.0  0.10818  0.05097  0.47236  1.0000
  H   H56       1.0  0.36848  0.18132  0.18943  1.0000
  H   H57       1.0  0.34039  0.99769  0.25470  1.0000
  C   C73       1.0  0.30778  0.17435  0.07464  1.0000
  H   H58       1.0  0.16120  0.18023  0.40501  1.0000
  H   H59       1.0  0.14893  0.10208  0.44005  1.0000
  H   H60       1.0  0.38148  0.98681  0.31994  1.0000
  Fe  Fe21      1.0  0.99460  0.12994  0.29179  1.0000
  H   H61       1.0  0.02463  0.04012  0.16987  1.0000
  C   C74       1.0  0.24773  0.09082  0.39175  1.0000
  H   H62       1.0  0.36884  0.98515  0.01099  1.0000
  C   C75       1.0  0.28482  0.10596  0.32334  1.0000
  C   C76       1.0  0.21822  0.06496  0.39980  1.0000
  C   C77       1.0  0.99793  0.16975  0.39199  1.0000
  C   C78       1.0  0.30621  0.10361  0.31650  1.0000
  C   C79       1.0  0.06139  0.14275  0.32216  1.0000
  C   C80       1.0  0.17264  0.99146  0.26287  1.0000
  C   C81       1.0  0.22784  0.09693  0.40240  1.0000
  C   C82       1.0  0.29949  0.13306  0.24884  1.0000
  H   H63       1.0  0.27560  0.03828  0.41732  1.0000
  H   H64       1.0  0.44038  0.02176  0.28320  1.0000
  H   H65       1.0  0.44069  0.10022  0.17870  1.0000
  C   C83       1.0  0.48086  0.12684  0.08597  1.0000
  C   C84       1.0  0.42822  0.01338  0.29182  1.0000
  P   P1        1.0  0.47802  0.17669  0.97482  1.0000
  H   H66       1.0  0.23860  0.99307  0.16920  1.0000
  C   C85       1.0  0.39797  0.02009  0.16650  1.0000
  C   C86       1.0  0.38265  0.03336  0.17751  1.0000
  C   C87       1.0  0.38807  0.04506  0.18978  1.0000
  C   C88       1.0  0.40880  0.04330  0.19148  1.0000
  C   C89       1.0  0.42412  0.02974  0.18100  1.0000
  C   C90       1.0  0.21697  0.11096  0.46686  1.0000
  C   C91       1.0  0.04408  0.15433  0.35421  1.0000
  H   H67       1.0  0.23750  0.02503  0.97739  1.0000
  H   H68       1.0  0.32196  0.06388  0.35333  1.0000
  C   C92       1.0  0.25315  0.07148  0.38544  1.0000
  H   H69       1.0  0.02945  0.13136  0.37702  1.0000
  H   H70       1.0  0.46686  0.00508  0.25424  1.0000
  C   C93       1.0  0.37754  0.04388  0.12676  1.0000
  H   H71       1.0  0.20226  0.01729  0.99260  1.0000
  C   C94       1.0  0.30736  0.15407  0.27026  1.0000
  H   H72       1.0  0.28787  0.01069  0.26659  1.0000
  H   H73       1.0  0.05583  0.17904  0.27637  1.0000
  C   C95       1.0  0.17541  0.00240  0.34078  1.0000
  C   C96       1.0  0.25157  0.09463  0.44026  1.0000
  P   P2        1.0  0.15147  0.00135  0.28172  1.0000
  C   C97       1.0  0.23816  0.05865  0.38935  1.0000
  H   H74       1.0  0.36650  0.03473  0.17647  1.0000
  H   H75       1.0  0.37620  0.05543  0.19808  1.0000
  H   H76       1.0  0.41297  0.05240  0.20100  1.0000
  H   H77       1.0  0.44016  0.02837  0.18251  1.0000
  C   C98       1.0  0.29227  1.00000  0.37332  1.0000
  C   C99       1.0  0.19366  0.01527  0.19641  1.0000
  H   H78       1.0  0.36065  0.01142  0.22123  1.0000
  H   H79       1.0  0.20053  0.04028  0.46033  1.0000
  H   H80       1.0  0.17715  0.01519  0.19936  1.0000
  H   H81       1.0  0.26830  0.00186  0.98914  1.0000
  C   C100      1.0  0.23566  0.01113  0.98866  1.0000
  C   C101      1.0  0.31367  0.14246  0.25444  1.0000
  C   C102      1.0  0.37150  0.02654  0.09476  1.0000
  C   C103      1.0  0.22827  0.00269  0.17952  1.0000
  C   C104      1.0  0.46202  0.11340  0.00944  1.0000
  H   H82       1.0  0.24220  0.98302  0.33108  1.0000
  C   C105      1.0  0.42705  0.99310  0.12431  1.0000
  C   C106      1.0  0.10939  0.10221  0.46729  1.0000
  C   C107      1.0  0.44623  0.15909  0.12470  1.0000
  C   C108      1.0  0.47054  0.14275  0.07263  1.0000
  S   S34       1.0  0.48095  0.12814  0.15114  1.0000
  C   C109      1.0  0.41530  0.10587  0.16179  1.0000
  H   H83       1.0  0.19800  0.05085  0.31126  1.0000
  C   C110      1.0  0.41793  0.15007  0.15188  1.0000
  C   C111      1.0  0.29248  0.06117  0.39728  1.0000
  H   H84       1.0  0.41436  0.13758  0.24864  1.0000
  H   H85       1.0  0.45824  0.09858  0.01764  1.0000
  H   H86       1.0  0.21029  0.02626  0.28660  1.0000
  H   H87       1.0  0.43646  0.12967  0.13130  1.0000
  H   H88       1.0  0.22385  0.11168  0.40755  1.0000
  C   C112      1.0  0.21318  0.08394  0.40663  1.0000
  C   C113      1.0  0.29528  0.16764  0.09316  1.0000
  H   H89       1.0  0.24169  0.04372  0.38454  1.0000
  H   H90       1.0  0.17622  0.16374  0.26300  1.0000
  S   S35       1.0  0.39190  0.16137  0.10448  1.0000
  H   H91       1.0  0.16809  0.03432  0.25053  1.0000
  C   C114      1.0  0.27867  0.13557  0.25874  1.0000
  H   H92       1.0  0.01743  0.14201  0.44261  1.0000
  H   H93       1.0  0.32476  0.14661  0.31211  1.0000
  C   C115      1.0  0.25635  0.06042  0.29479  1.0000
  H   H94       1.0  0.40118  0.13734  0.39247  1.0000
  C   C116      1.0  0.15343  0.01862  0.31548  1.0000
  H   H95       1.0  0.07017  0.14585  0.30677  1.0000
  C   C117      1.0  0.27788  0.01757  0.25535  1.0000
  H   H96       1.0  0.34769  0.00276  0.35557  1.0000
  C   C118      1.0  0.15201  0.03999  0.25622  1.0000
  P   P3        1.0  0.39051  0.00534  0.15052  1.0000
  S   S36       1.0  0.43652  0.16395  0.05610  1.0000
  C   C119      1.0  0.38972  0.17148  0.27373  1.0000
  H   H97       1.0  0.25787  0.12568  0.43158  1.0000
  C   C120      1.0  0.27467  0.08915  0.28033  1.0000
  C   C121      1.0  0.42913  0.13625  0.21725  1.0000
  C   C122      1.0  0.36730  0.04801  0.09358  1.0000
  C   C123      1.0  0.19276  0.99475  0.26230  1.0000
  C   C124      1.0  0.34162  0.14661  0.33605  1.0000
  H   H98       1.0  0.31912  0.14643  0.16050  1.0000
  C   C125      1.0  0.43351  0.14487  0.13542  1.0000
  C   C126      1.0  0.48371  0.13336  0.98266  1.0000
  H   H99       1.0  0.20089  0.99261  0.17632  1.0000
  H   H100      1.0  0.48423  0.17702  0.08884  1.0000
  C   C127      1.0  0.14329  0.06036  0.24876  1.0000
  C   C128      1.0  0.45037  0.13169  0.01545  1.0000
  C   C129      1.0  0.22706  0.00299  0.30716  1.0000
  C   C130      1.0  0.27005  0.00497  0.24589  1.0000
  H   H101      1.0  0.18144  0.00286  0.35435  1.0000
  C   C131      1.0  0.29445  0.04899  0.43358  1.0000
  H   H102      1.0  0.44432  0.13703  0.21986  1.0000
  C   C132      1.0  0.31145  0.07600  0.34543  1.0000
  C   C133      1.0  0.27963  0.01110  0.04686  1.0000
  H   H103      1.0  0.11578  0.08395  0.25056  1.0000
  C   C134      1.0  0.40708  0.09855  0.14771  1.0000
  C   C135      1.0  0.27670  0.09379  0.34156  1.0000
  H   H104      1.0  0.10696  0.08306  0.44634  1.0000
  H   H105      1.0  0.00547  0.98347  0.16819  1.0000
  C   C136      1.0  0.24750  0.11572  0.44110  1.0000
  H   H106      1.0  0.26753  0.01701  0.33226  1.0000
  C   C137      1.0  0.37888  0.01373  0.11184  1.0000
  C   C138      1.0  0.12260  0.06811  0.25612  1.0000
  C   C139      1.0  0.18886  0.05365  0.45659  1.0000
  H   H107      1.0  0.41724  0.03442  0.31343  1.0000
  H   H108      1.0  0.32401  0.08624  0.41323  1.0000
  H   H109      1.0  0.15246  0.07041  0.42548  1.0000
  H   H110      1.0  0.43770  0.13111  0.02845  1.0000
  C   C140      1.0  0.04414  0.11938  0.34955  1.0000
  C   C141      1.0  0.34359  0.12507  0.17381  1.0000
  C   C142      1.0  0.29004  0.07900  0.35297  1.0000
  C   C143      1.0  0.48504  0.09701  0.04952  1.0000
  H   H111      1.0  0.24111  0.00063  0.08228  1.0000
  C   C144      1.0  0.45117  0.17926  0.21440  1.0000
  H   H112      1.0  0.31252  0.11321  0.30252  1.0000
  H   H113      1.0  0.39332  0.10720  0.14182  1.0000
  S   S37       1.0  0.48504  0.10995  0.20868  1.0000
  H   H114      1.0  0.05651  0.17273  0.19795  1.0000
  C   C145      1.0  0.48236  0.07638  0.05498  1.0000
  C   C146      1.0  0.14005  0.02723  0.27108  1.0000
  H   H115      1.0  0.32871  0.15547  0.34484  1.0000
  C   C147      1.0  0.30798  0.06259  0.43250  1.0000
  C   C148      1.0  0.29286  0.10375  0.47027  1.0000
  C   C149      1.0  0.23001  0.12396  0.45408  1.0000
  C   C150      1.0  0.39027  0.13305  0.21056  1.0000
  H   H116      1.0  0.00308  0.05292  0.33614  1.0000
  C   C151      1.0  0.37046  0.99144  0.16577  1.0000
  C   C152      1.0  0.16182  0.07053  0.43675  1.0000
  H   H117      1.0  0.33427  0.11312  0.18048  1.0000
  P   P4        1.0  0.27995  0.06210  0.37573  1.0000
  H   H118      1.0  0.28367  0.98458  0.35223  1.0000
  H   H119      1.0  0.17827  0.03945  0.43575  1.0000
  H   H120      1.0  0.28023  0.14906  0.17708  1.0000
  C   C153      1.0  0.23277  0.99786  0.32660  1.0000
  H   H121      1.0  0.31385  0.06338  0.44607  1.0000
  C   C154      1.0  0.27437  0.17675  0.09702  1.0000
  H   H122      1.0  0.26493  0.08846  0.42983  1.0000
  C   C155      1.0  0.20700  0.00249  0.18350  1.0000
  H   H123      1.0  0.25902  0.10100  0.38889  1.0000
  C   C156      1.0  0.24145  0.08230  0.15210  1.0000
  C   C157      1.0  0.26261  0.08312  0.14808  1.0000
  C   C158      1.0  0.27475  0.07379  0.16311  1.0000
  C   C159      1.0  0.26591  0.06331  0.18205  1.0000
  C   C160      1.0  0.24465  0.06259  0.18628  1.0000
  C   C161      1.0  0.23248  0.07209  0.17113  1.0000
  P   P5        1.0  0.23323  0.04756  0.20977  1.0000
  C   C162      1.0  0.21384  0.06342  0.22555  1.0000
  C   C163      1.0  0.22293  0.02871  0.20121  1.0000
  C   C164      1.0  0.20157  0.02838  0.20523  1.0000
  C   C165      1.0  0.38140  0.02223  0.12829  1.0000
  H   H124      1.0  0.22009  0.99275  0.05934  1.0000
  C   C166      1.0  0.17229  0.08905  0.45891  1.0000
  C   C167      1.0  0.36801  0.15552  0.15621  1.0000
  C   C168      1.0  0.20491  0.05422  0.24518  1.0000
  C   C169      1.0  0.19135  0.06638  0.25856  1.0000
  C   C170      1.0  0.18661  0.08781  0.25245  1.0000
  C   C171      1.0  0.19549  0.09711  0.23296  1.0000
  C   C172      1.0  0.20916  0.08501  0.21957  1.0000
  C   C173      1.0  0.25210  0.03546  0.22614  1.0000
  C   C174      1.0  0.26023  0.04798  0.23554  1.0000
  C   C175      1.0  0.27331  0.03906  0.24986  1.0000
  P   P6        1.0  0.03719  0.17436  0.36984  1.0000
  C   C176      1.0  0.16803  0.98639  0.97893  1.0000
  C   C177      1.0  0.25735  0.01385  0.23121  1.0000
  H   H125      1.0  0.23216  0.08909  0.14023  1.0000
  H   H126      1.0  0.26972  0.09050  0.13312  1.0000
  H   H127      1.0  0.29118  0.07422  0.15988  1.0000
  H   H128      1.0  0.27581  0.05532  0.19305  1.0000
  H   H129      1.0  0.21619  0.07105  0.17380  1.0000
  H   H130      1.0  0.19095  0.03855  0.21470  1.0000
  H   H131      1.0  0.30750  0.02054  0.04982  1.0000
  H   H132      1.0  0.37980  0.13532  0.24254  1.0000
  C   C178      1.0  0.47290  0.17785  0.18096  1.0000
  H   H133      1.0  0.25271  0.01617  0.18461  1.0000
  H   H134      1.0  0.20884  0.03766  0.25027  1.0000
  H   H135      1.0  0.18463  0.05922  0.27378  1.0000
  H   H136      1.0  0.17615  0.09725  0.26289  1.0000
  H   H137      1.0  0.19193  0.11377  0.22840  1.0000
  H   H138      1.0  0.21630  0.09260  0.20481  1.0000
  H   H139      1.0  0.25622  0.06464  0.23191  1.0000
  H   H140      1.0  0.27994  0.04876  0.25673  1.0000
  H   H141      1.0  0.26471  0.17160  0.11143  1.0000
  H   H142      1.0  0.19529  0.18030  0.41371  1.0000
  H   H143      1.0  0.25166  0.00374  0.22405  1.0000
  H   H144      1.0  0.30504  0.12349  0.23704  1.0000
  C   C179      1.0  0.40130  0.14896  0.41989  1.0000
  C   C180      1.0  0.20255  0.14873  0.27733  1.0000
  C   C181      1.0  0.47177  0.15186  0.98830  1.0000
  H   H145      1.0  0.15258  0.07026  0.23743  1.0000
  C   C182      1.0  0.23811  0.08171  0.45239  1.0000
  S   S38       1.0  0.48337  0.09094  0.11455  1.0000
  C   C183      1.0  0.46866  0.17002  0.20198  1.0000
  C   C184      1.0  0.37077  0.05666  0.10937  1.0000
  C   C185      1.0  0.41509  0.02063  0.30876  1.0000
  C   C186      1.0  0.22112  0.08966  0.46636  1.0000
  H   H146      1.0  0.35809  0.98713  0.14003  1.0000
  C   C187      1.0  0.41229  0.13655  0.23341  1.0000
  C   C188      1.0  0.28662  0.04839  0.41609  1.0000
  C   C189      1.0  0.15982  0.08844  0.44494  1.0000
  C   C190      1.0  0.42490  0.99608  0.28528  1.0000
  C   C191      1.0  0.40303  0.17071  0.28735  1.0000
  H   H147      1.0  0.26942  0.02315  0.05443  1.0000
  C   C192      1.0  0.39857  0.01067  0.31910  1.0000
  H   H148      1.0  0.26037  0.18020  0.46578  1.0000
  H   H149      1.0  0.46719  0.07270  0.06206  1.0000
  C   C193      1.0  0.23220  0.98825  0.08760  1.0000
  C   C194      1.0  0.39884  0.17048  0.38654  1.0000
  C   C195      1.0  0.13213  0.98481  0.28762  1.0000
  H   H150      1.0  0.32977  0.14019  0.24697  1.0000
  C   C196      1.0  0.36887  0.98664  0.18726  1.0000
  C   C197      1.0  0.46862  0.09149  0.21769  1.0000
  H   H151      1.0  0.01642  0.18220  0.33371  1.0000
  C   C198      1.0  0.31951  0.08855  0.32749  1.0000
  H   H152      1.0  0.44819  0.17265  0.23054  1.0000
  H   H153      1.0  0.37974  0.05113  0.13879  1.0000
  C   C199      1.0  0.21344  0.98925  0.01220  1.0000
  H   H154      1.0  0.38789  0.01678  0.33174  1.0000
  H   H155      1.0  0.45875  0.15473  0.11258  1.0000
  C   C200      1.0  0.40721  0.13241  0.19429  1.0000
  H   H156      1.0  0.19771  0.08896  0.41459  1.0000
  H   H157      1.0  0.22648  0.14048  0.45420  1.0000
  H   H158      1.0  0.28762  0.09660  0.27990  1.0000
  H   H159      1.0  0.09467  0.06161  0.27679  1.0000
  C   C201      1.0  0.99176  0.04167  0.17275  1.0000
  C   C202      1.0  0.27255  0.14703  0.27484  1.0000
  H   H160      1.0  0.15424  0.98774  0.01064  1.0000
  C   C203      1.0  0.27957  0.13547  0.18899  1.0000
  C   C204      1.0  0.28715  0.11578  0.18397  1.0000
  C   C205      1.0  0.28680  0.09834  0.19946  1.0000
  C   C206      1.0  0.27869  0.10038  0.21987  1.0000
  C   C207      1.0  0.27036  0.12001  0.22494  1.0000
  C   C208      1.0  0.27149  0.13761  0.20945  1.0000
  P   P7        1.0  0.26065  0.12303  0.25137  1.0000
  C   C209      1.0  0.23425  0.13715  0.25453  1.0000
  C   C210      1.0  0.25963  0.09815  0.26786  1.0000
  C   C211      1.0  0.24320  0.08785  0.26869  1.0000
  C   C212      1.0  0.24160  0.06909  0.28211  1.0000
  H   H161      1.0  0.37505  0.13185  0.20847  1.0000
  H   H162      1.0  0.28978  0.03918  0.44804  1.0000
  C   C213      1.0  0.05546  0.15826  0.33422  1.0000
  C   C214      1.0  0.22318  0.13871  0.27440  1.0000
  H   H163      1.0  0.31857  0.16087  0.27491  1.0000
  C   C215      1.0  0.19246  0.15668  0.26052  1.0000
  C   C216      1.0  0.20307  0.15468  0.24070  1.0000
  C   C217      1.0  0.22382  0.14487  0.23768  1.0000
  C   C218      1.0  0.32550  0.98690  0.31378  1.0000
  C   C219      1.0  0.40074  0.15092  0.39899  1.0000
  H   H164      1.0  0.29377  0.11400  0.16820  1.0000
  H   H165      1.0  0.29336  0.08317  0.19579  1.0000
  H   H166      1.0  0.27965  0.08668  0.23165  1.0000
  C   C220      1.0  0.21583  0.00682  0.99721  1.0000
  H   H167      1.0  0.23145  0.09441  0.25918  1.0000
  H   H168      1.0  0.22886  0.06128  0.28270  1.0000
  C   C221      1.0  0.18293  0.98577  0.33026  1.0000
  H   H169      1.0  0.11755  0.99959  0.26117  1.0000
  C   C222      1.0  0.16076  0.01885  0.33335  1.0000
  H   H170      1.0  0.23024  0.13152  0.28777  1.0000
  S   S39       1.0  0.33332  0.10945  0.45887  1.0000
  H   H171      1.0  0.42538  0.00910  0.11661  1.0000
  H   H172      1.0  0.27394  0.98827  0.24983  1.0000
  H   H173      1.0  0.23127  0.14286  0.22228  1.0000
  C   C223      1.0  0.41709  0.08038  0.14036  1.0000
  C   C224      1.0  0.02613  0.15636  0.41108  1.0000
  C   C225      1.0  0.05576  0.12331  0.32983  1.0000
  C   C226      1.0  0.30583  0.07504  0.39646  1.0000
  C   C227      1.0  0.43372  0.09477  0.16827  1.0000
  S   S40       1.0  0.17498  0.15209  0.45828  1.0000
  H   H174      1.0  0.11303  0.16385  0.36902  1.0000
  H   H175      1.0  0.26621  0.15297  0.21326  1.0000
  C   C228      1.0  0.28689  0.15617  0.28060  1.0000
  C   C229      1.0  0.17636  0.05314  0.44255  1.0000
  C   C230      1.0  0.36857  0.00202  0.23333  1.0000
  H   H176      1.0  0.28180  0.18100  0.02649  1.0000
  C   C231      1.0  0.34718  0.15914  0.15411  1.0000
  H   H177      1.0  0.28458  0.06358  0.30351  1.0000
  C   C232      1.0  0.29206  0.01901  0.37884  1.0000
  H   H178      1.0  0.14213  0.03160  0.31005  1.0000
  C   C233      1.0  0.42666  0.13420  0.19780  1.0000
  H   H179      1.0  0.30279  0.17384  0.99324  1.0000
  H   H180      1.0  0.15541  0.03197  0.34129  1.0000
  C   C234      1.0  0.47069  0.11090  0.09774  1.0000
  H   H181      1.0  0.29976  0.01919  0.39132  1.0000
  C   C235      1.0  0.27299  0.07037  0.29379  1.0000
  C   C236      1.0  0.28215  0.03741  0.36810  1.0000
  C   C237      1.0  0.36445  0.12137  0.17582  1.0000
  H   H182      1.0  0.26570  0.05063  0.34265  1.0000
  C   C238      1.0  0.44347  0.17852  0.13027  1.0000
  C   C239      1.0  0.27336  0.03660  0.35119  1.0000
  P   P8        1.0  0.40406  0.13092  0.16871  1.0000
  H   H183      1.0  0.44615  0.16481  0.01006  1.0000
  H   H184      1.0  0.25694  0.14856  0.28334  1.0000
  H   H185      1.0  0.11001  0.02600  0.29060  1.0000
  C   C240      1.0  0.01724  0.01071  0.16846  1.0000
  H   H186      1.0  0.30192  0.15543  0.10449  1.0000
  H   H187      1.0  0.36127  0.05797  0.08051  1.0000
  C   C241      1.0  0.23621  0.01579  0.18828  1.0000
  C   C242      1.0  0.11067  0.05551  0.27098  1.0000
  H   H188      1.0  0.37095  0.10656  0.18414  1.0000
  C   C243      1.0  0.28323  0.99930  0.35667  1.0000
  H   H189      1.0  0.32406  0.16754  0.07170  1.0000
  C   C244      1.0  0.40051  0.98649  0.24603  1.0000
  H   H190      1.0  0.33079  0.99266  0.03341  1.0000
  H   H191      1.0  0.47854  0.15485  0.06332  1.0000
  H   H192      1.0  0.43464  0.99123  0.27160  1.0000
  H   H193      1.0  0.14506  0.17317  0.30109  1.0000
  H   H194      1.0  0.04251  0.15307  0.41185  1.0000
  C   C245      1.0  0.09779  0.17144  0.37544  1.0000
  H   H195      1.0  0.03324  0.00292  0.16671  1.0000
  H   H196      1.0  0.17459  0.01037  0.47188  1.0000
  H   H197      1.0  0.40020  0.16204  0.30288  1.0000
  C   C246      1.0  0.47880  0.11423  0.99320  1.0000
  C   C247      1.0  0.27135  0.99711  0.03967  1.0000
  H   H198      1.0  0.19503  0.16035  0.22773  1.0000
  C   C248      1.0  0.25306  0.99791  0.99524  1.0000
  H   H199      1.0  0.47985  0.07506  0.19227  1.0000
  H   H200      1.0  0.19580  0.00318  0.27303  1.0000
  H   H201      1.0  0.36797  0.07334  0.10821  1.0000
  C   C249      1.0  0.30107  0.00957  0.04436  1.0000
  H   H202      1.0  0.36874  0.01972  0.08260  1.0000
  C   C250      1.0  0.41488  0.16983  0.15686  1.0000
  H   H203      1.0  0.38236  0.99716  0.11227  1.0000
  H   H204      1.0  0.24559  0.17480  0.30517  1.0000
  H   H205      1.0  0.39836  0.17154  0.37041  1.0000
  H   H206      1.0  0.37715  0.16744  0.14897  1.0000
  C   C251      1.0  0.40013  0.16658  0.42832  1.0000
  C   C252      1.0  0.20933  0.98670  0.24820  1.0000
  S   S41       1.0  0.23384  0.98504  0.29021  1.0000
  H   H207      1.0  0.48807  0.10002  0.98880  1.0000
  C   C253      1.0  0.34170  0.99826  0.34380  1.0000
  C   C254      1.0  0.35709  0.98429  0.15649  1.0000
  H   H208      1.0  0.40302  0.17411  0.16939  1.0000
  C   C255      1.0  0.41224  0.98671  0.14124  1.0000
  H   H209      1.0  0.05988  0.17329  0.32806  1.0000
  H   H210      1.0  0.28232  0.16450  0.29339  1.0000
  H   H211      1.0  0.19418  0.14970  0.29275  1.0000
  C   C256      1.0  0.08018  0.16905  0.36876  1.0000
  C   C257      1.0  0.39021  0.99815  0.23029  1.0000
  H   H212      1.0  0.17094  0.10334  0.46459  1.0000
  C   C258      1.0  0.41991  0.18111  0.28094  1.0000
  H   H213      1.0  0.08237  0.15935  0.35734  1.0000
  C   C259      1.0  0.06031  0.17864  0.37718  1.0000
  H   H214      1.0  0.22488  0.98872  0.24847  1.0000
  C   C260      1.0  0.17574  0.98552  0.31233  1.0000
  C   C261      1.0  0.31422  0.99381  0.03504  1.0000
  H   H215      1.0  0.47982  0.16931  0.01930  1.0000
  H   H216      1.0  0.37667  0.16333  0.27872  1.0000
  H   H217      1.0  0.43023  0.18047  0.29154  1.0000
  H   H218      1.0  0.34076  0.17358  0.14519  1.0000
  H   H219      1.0  0.41727  0.98419  0.24356  1.0000
  C   C262      1.0  0.40842  0.98590  0.29571  1.0000
  H   H220      1.0  0.07336  0.18150  0.22364  1.0000
  H   H221      1.0  0.39873  0.17844  0.20621  1.0000
  H   H222      1.0  0.37965  0.99099  0.19466  1.0000
  H   H223      1.0  0.19810  0.98638  0.01966  1.0000
  H   H224      1.0  0.45527  0.98372  0.10385  1.0000
  C   C263      1.0  0.99078  0.15353  0.42769  1.0000
  H   H225      1.0  0.99233  0.17686  0.37786  1.0000
  H   H226      1.0  0.21599  0.18235  0.33216  1.0000
  C   C264      1.0  0.36747  0.98312  0.26815  1.0000
  C   C265      1.0  0.39322  0.18264  0.25371  1.0000
  C   C266      1.0  0.24758  0.17285  0.47458  1.0000
  Fe  Fe22      1.0  0.11826  0.15023  0.52146  1.0000
  S   S42       1.0  0.10110  0.12368  0.53531  1.0000
  C   C267      1.0  0.25383  0.98905  0.91615  1.0000
  Fe  Fe23      1.0  0.99976  0.08424  0.66638  1.0000
  H   H227      1.0  0.26697  0.14305  0.48049  1.0000
  H   H228      1.0  0.18014  0.01395  0.81332  1.0000
  S   S43       1.0  0.15296  0.14520  0.51722  1.0000
  C   C268      1.0  0.48754  0.07118  0.64587  1.0000
  Fe  Fe24      1.0  0.03980  0.09452  0.63999  1.0000
  S   S44       1.0  0.00946  0.09284  0.63223  1.0000
  S   S45       1.0  0.05373  0.12309  0.62669  1.0000
  Fe  Fe25      1.0  0.04022  0.05450  0.67091  1.0000
  S   S46       1.0  0.00945  0.05024  0.66611  1.0000
  S   S47       1.0  0.05547  0.03034  0.69397  1.0000
  Fe  Fe26      1.0  0.02269  0.05906  0.63281  1.0000
  S   S48       1.0  0.01880  0.04147  0.60943  1.0000
  C   C269      1.0  0.20001  0.98306  0.59993  1.0000
  S   S49       1.0  0.05409  0.06153  0.63750  1.0000
  S   S50       1.0  0.02952  0.08767  0.67412  1.0000
  Fe  Fe27      1.0  0.05125  0.15891  0.89668  1.0000
  C   C270      1.0  0.07247  0.04167  0.50909  1.0000
  S   S51       1.0  0.02844  0.13656  0.90664  1.0000
  H   H229      1.0  0.04156  0.12978  0.51853  1.0000
  C   C271      1.0  0.36584  0.14532  0.59998  1.0000
  Fe  Fe28      1.0  0.09232  0.16305  0.86841  1.0000
  S   S52       1.0  0.11688  0.14614  0.84556  1.0000
  S   S53       1.0  0.08403  0.15304  0.90280  1.0000
  Fe  Fe29      1.0  0.12729  0.04210  0.75677  1.0000
  S   S54       1.0  0.10222  0.03551  0.78404  1.0000
  S   S55       1.0  0.12096  0.06339  0.72745  1.0000
  Fe  Fe30      1.0  0.16175  0.01564  0.77775  1.0000
  S   S56       1.0  0.13967  0.00688  0.80666  1.0000
  C   C272      1.0  0.28787  0.16751  0.53095  1.0000
  Fe  Fe31      1.0  0.11917  0.00273  0.78590  1.0000
  Fe  Fe32      1.0  0.12477  0.04056  0.80233  1.0000
  S   S57       1.0  0.11391  0.05555  0.83111  1.0000
  S   S58       1.0  0.14258  0.00892  0.75722  1.0000
  S   S59       1.0  0.14862  0.04946  0.77469  1.0000
  Fe  Fe33      1.0  0.28710  0.06966  0.58787  1.0000
  S   S60       1.0  0.27944  0.04614  0.57228  1.0000
  S   S61       1.0  0.32090  0.06743  0.59142  1.0000
  Fe  Fe34      1.0  0.24242  0.09284  0.59223  1.0000
  S   S62       1.0  0.23122  0.07147  0.57751  1.0000
  S   S63       1.0  0.22052  0.11929  0.60501  1.0000
  Fe  Fe35      1.0  0.25043  0.04608  0.59616  1.0000
  Fe  Fe36      1.0  0.26071  0.07324  0.55478  1.0000
  S   S64       1.0  0.25762  0.07816  0.52153  1.0000
  S   S65       1.0  0.25951  0.06734  0.61320  1.0000
  S   S66       1.0  0.27053  0.09679  0.56793  1.0000
  Fe  Fe37      1.0  0.42712  0.10329  0.67987  1.0000
  S   S67       1.0  0.42404  0.08572  0.65589  1.0000
  S   S68       1.0  0.44285  0.08643  0.70702  1.0000
  Fe  Fe38      1.0  0.41212  0.14516  0.65416  1.0000
  S   S69       1.0  0.40787  0.13096  0.62847  1.0000
  H   H230      1.0  0.25319  0.01301  0.66080  1.0000
  Fe  Fe39      1.0  0.39350  0.10740  0.65335  1.0000
  S   S70       1.0  0.36173  0.09867  0.65460  1.0000
  Fe  Fe40      1.0  0.43833  0.11083  0.63324  1.0000
  S   S71       1.0  0.46570  0.10741  0.60769  1.0000
  S   S72       1.0  0.39563  0.12338  0.67915  1.0000
  S   S73       1.0  0.44345  0.12642  0.65731  1.0000
  H   H231      1.0  0.36804  0.14876  0.51656  1.0000
  C   C273      1.0  0.01618  0.11571  0.81853  1.0000
  C   C274      1.0  0.20477  0.98567  0.57844  1.0000
  C   C275      1.0  0.12517  0.99343  0.66105  1.0000
  C   C276      1.0  0.46344  0.14895  0.60686  1.0000
  C   C277      1.0  0.99164  0.12436  0.87119  1.0000
  H   H232      1.0  0.44851  0.14853  0.61663  1.0000
  C   C278      1.0  0.45415  0.10122  0.71920  1.0000
  C   C279      1.0  0.46711  0.09113  0.73352  1.0000
  H   H233      1.0  0.99790  0.12573  0.51891  1.0000
  C   C280      1.0  0.47211  0.12413  0.73948  1.0000
  C   C281      1.0  0.45882  0.13422  0.72545  1.0000
  C   C282      1.0  0.45016  0.12287  0.71511  1.0000
  C   C283      1.0  0.32506  0.99937  0.58622  1.0000
  H   H234      1.0  0.48462  0.17001  0.90198  1.0000
  H   H235      1.0  0.45541  0.15090  0.72226  1.0000
  H   H236      1.0  0.44014  0.13090  0.70421  1.0000
  C   C284      1.0  0.33180  0.07642  0.60914  1.0000
  C   C285      1.0  0.35340  0.07562  0.60582  1.0000
  C   C286      1.0  0.36280  0.08264  0.61931  1.0000
  C   C287      1.0  0.35074  0.09015  0.63664  1.0000
  C   C288      1.0  0.32918  0.09045  0.64027  1.0000
  C   C289      1.0  0.31973  0.08385  0.62652  1.0000
  H   H237      1.0  0.36298  0.06938  0.59280  1.0000
  H   H238      1.0  0.37941  0.08183  0.61657  1.0000
  H   H239      1.0  0.31972  0.09605  0.65372  1.0000
  H   H240      1.0  0.30316  0.08427  0.62953  1.0000
  H   H241      1.0  0.08022  0.99921  0.76467  1.0000
  H   H242      1.0  0.43930  0.02797  0.72018  1.0000
  H   H243      1.0  0.47384  0.15854  0.64709  1.0000
  C   C290      1.0  0.04514  0.08001  0.54354  1.0000
  C   C291      1.0  0.11120  0.10280  0.48737  1.0000
  H   H244      1.0  0.05592  0.16496  0.67290  1.0000
  C   C292      1.0  0.11630  0.12084  0.84167  1.0000
  C   C293      1.0  0.10916  0.10584  0.85784  1.0000
  C   C294      1.0  0.10892  0.08589  0.85436  1.0000
  C   C295      1.0  0.11582  0.08062  0.83468  1.0000
  C   C296      1.0  0.12373  0.09537  0.81862  1.0000
  C   C297      1.0  0.12401  0.11533  0.82213  1.0000
  H   H245      1.0  0.10368  0.10966  0.87307  1.0000
  H   H246      1.0  0.10298  0.07461  0.86697  1.0000
  H   H247      1.0  0.12950  0.09150  0.80347  1.0000
  H   H248      1.0  0.13000  0.12665  0.80959  1.0000
  C   C298      1.0  0.01284  0.13905  0.88782  1.0000
  H   H249      1.0  0.36913  0.06521  0.55107  1.0000
  H   H250      1.0  0.02719  0.00297  0.72748  1.0000
  H   H251      1.0  0.20349  0.11767  0.47682  1.0000
  C   C299      1.0  0.47629  0.10248  0.74338  1.0000
  C   C300      1.0  0.07421  0.03940  0.70253  1.0000
  C   C301      1.0  0.08208  0.02827  0.72000  1.0000
  C   C302      1.0  0.09678  0.03541  0.72738  1.0000
  C   C303      1.0  0.10373  0.05375  0.71724  1.0000
  C   C304      1.0  0.09619  0.06473  0.69947  1.0000
  C   C305      1.0  0.08121  0.05769  0.69225  1.0000
  H   H252      1.0  0.07641  0.01438  0.72815  1.0000
  H   H253      1.0  0.10247  0.02684  0.74111  1.0000
  H   H254      1.0  0.10180  0.07870  0.69138  1.0000
  H   H255      1.0  0.07508  0.06637  0.67877  1.0000
  C   C306      1.0  0.10918  0.06533  0.47671  1.0000
  C   C307      1.0  0.04035  0.02461  0.59865  1.0000
  C   C308      1.0  0.05787  0.01652  0.60804  1.0000
  C   C309      1.0  0.23817  0.01346  0.69251  1.0000
  H   H256      1.0  0.32100  0.04912  0.65988  1.0000
  C   C310      1.0  0.03415  0.11684  0.80369  1.0000
  C   C311      1.0  0.03945  0.01880  0.58023  1.0000
  H   H257      1.0  0.05871  0.02094  0.62226  1.0000
  C   C312      1.0  0.44656  0.16459  0.55814  1.0000
  H   H258      1.0  0.02599  0.02488  0.57292  1.0000
  S   S74       1.0  0.05995  0.16728  0.86269  1.0000
  C   C313      1.0  0.08766  0.12380  0.56058  1.0000
  C   C314      1.0  0.08781  0.13964  0.57103  1.0000
  C   C315      1.0  0.07660  0.13977  0.59102  1.0000
  C   C316      1.0  0.06577  0.12369  0.60091  1.0000
  C   C317      1.0  0.06534  0.10797  0.59038  1.0000
  C   C318      1.0  0.07614  0.10816  0.57015  1.0000
  H   H259      1.0  0.09659  0.15177  0.56379  1.0000
  H   H260      1.0  0.07680  0.15207  0.59904  1.0000
  H   H261      1.0  0.05675  0.09566  0.59781  1.0000
  C   C319      1.0  0.17923  0.16535  0.56345  1.0000
  C   C320      1.0  0.18954  0.14653  0.55739  1.0000
  C   C321      1.0  0.20270  0.13240  0.56978  1.0000
  C   C322      1.0  0.20500  0.13678  0.58851  1.0000
  C   C323      1.0  0.19449  0.15545  0.59456  1.0000
  C   C324      1.0  0.18191  0.16973  0.58200  1.0000
  H   H262      1.0  0.18774  0.14310  0.54302  1.0000
  H   H263      1.0  0.21108  0.11815  0.56494  1.0000
  H   H264      1.0  0.19624  0.15899  0.60894  1.0000
  C   C325      1.0  0.30772  0.99526  0.54438  1.0000
  H   H265      1.0  0.22157  0.04542  0.73044  1.0000
  C   C326      1.0  0.27889  0.08630  0.50414  1.0000
  C   C327      1.0  0.29839  0.08276  0.50985  1.0000
  C   C328      1.0  0.31520  0.08945  0.49560  1.0000
  C   C329      1.0  0.21672  0.04779  0.49238  1.0000
  H   H266      1.0  0.30052  0.07478  0.52515  1.0000
  H   H267      1.0  0.33034  0.08667  0.49990  1.0000
  C   C330      1.0  0.17910  0.98607  0.89962  1.0000
  H   H268      1.0  0.47156  0.17133  0.67958  1.0000
  C   C331      1.0  0.14524  0.00696  0.89746  1.0000
  C   C332      1.0  0.15445  0.02431  0.88829  1.0000
  C   C333      1.0  0.17613  0.02274  0.88481  1.0000
  C   C334      1.0  0.18836  0.00341  0.89060  1.0000
  P   P9        1.0  0.18779  0.04535  0.87260  1.0000
  C   C335      1.0  0.18820  0.04986  0.84516  1.0000
  C   C336      1.0  0.17160  0.06752  0.88256  1.0000
  C   C337      1.0  0.99916  0.10950  0.81427  1.0000
  C   C338      1.0  0.06481  0.07923  0.74712  1.0000
  C   C339      1.0  0.14979  0.08263  0.91119  1.0000
  C   C340      1.0  0.16301  0.06577  0.90358  1.0000
  C   C341      1.0  0.20558  0.05929  0.80989  1.0000
  C   C342      1.0  0.20594  0.05468  0.83102  1.0000
  C   C343      1.0  0.21390  0.04211  0.87756  1.0000
  C   C344      1.0  0.22978  0.02782  0.86841  1.0000
  C   C345      1.0  0.25029  0.02633  0.87077  1.0000
  H   H269      1.0  0.23880  0.01931  0.57017  1.0000
  H   H270      1.0  0.26459  0.02095  0.49966  1.0000
  H   H271      1.0  0.47013  0.99615  0.64527  1.0000
  H   H272      1.0  0.12854  0.00830  0.89993  1.0000
  H   H273      1.0  0.14458  0.03896  0.88395  1.0000
  H   H274      1.0  0.20504  0.00138  0.88806  1.0000
  H   H275      1.0  0.14296  0.08119  0.92735  1.0000
  H   H276      1.0  0.16635  0.05132  0.91402  1.0000
  H   H277      1.0  0.21933  0.06276  0.79909  1.0000
  H   H278      1.0  0.21998  0.05536  0.83609  1.0000
  H   H279      1.0  0.22637  0.01814  0.85897  1.0000
  C   C346      1.0  0.48001  0.99171  0.70396  1.0000
  C   C347      1.0  0.30658  0.15179  0.49476  1.0000
  H   H280      1.0  0.33936  0.01925  0.59814  1.0000
  C   C348      1.0  0.24873  0.98807  0.93744  1.0000
  H   H281      1.0  0.20582  0.00079  0.51846  1.0000
  C   C349      1.0  0.99937  0.14613  0.57726  1.0000
  H   H282      1.0  0.46869  0.15258  0.49434  1.0000
  H   H283      1.0  0.37066  0.17710  0.64332  1.0000
  C   C350      1.0  0.07001  0.15373  0.67423  1.0000
  C   C351      1.0  0.99992  0.10437  0.79514  1.0000
  H   H284      1.0  0.21272  0.03437  0.64933  1.0000
  C   C352      1.0  0.10603  0.14186  0.66064  1.0000
  C   C353      1.0  0.10680  0.12532  0.67711  1.0000
  C   C354      1.0  0.08918  0.12290  0.69212  1.0000
  C   C355      1.0  0.07051  0.13694  0.69070  1.0000
  C   C356      1.0  0.02339  0.05119  0.79918  1.0000
  C   C357      1.0  0.04863  0.10833  0.72419  1.0000
  C   C358      1.0  0.05167  0.06686  0.74427  1.0000
  C   C359      1.0  0.03678  0.07520  0.73173  1.0000
  C   C360      1.0  0.03504  0.09592  0.72195  1.0000
  H   H285      1.0  0.02206  0.06763  0.82371  1.0000
  H   H286      1.0  0.11965  0.14356  0.64889  1.0000
  H   H287      1.0  0.12103  0.11420  0.67818  1.0000
  H   H288      1.0  0.09037  0.10994  0.70459  1.0000
  C   C361      1.0  0.05345  0.15008  0.81168  1.0000
  C   C362      1.0  0.05843  0.01053  0.51196  1.0000
  C   C363      1.0  0.36182  0.08133  0.54851  1.0000
  H   H289      1.0  0.05339  0.05065  0.75132  1.0000
  H   H290      1.0  0.02693  0.06542  0.72915  1.0000
  H   H291      1.0  0.02319  0.10197  0.71253  1.0000
  C   C364      1.0  0.03816  0.11679  0.53048  1.0000
  H   H292      1.0  0.48621  0.09448  0.75438  1.0000
  H   H293      1.0  0.07580  0.04042  0.85200  1.0000
  C   C365      1.0  0.45196  0.02037  0.70995  1.0000
  C   C366      1.0  0.23818  0.04383  0.49233  1.0000
  C   C367      1.0  0.21059  0.99297  0.70440  1.0000
  C   C368      1.0  0.99095  0.01464  0.76904  1.0000
  H   H294      1.0  0.05376  0.99461  0.66990  1.0000
  H   H295      1.0  0.00220  0.00370  0.60900  1.0000
  H   H296      1.0  0.01002  0.13473  0.65524  1.0000
  C   C369      1.0  0.20221  0.99687  0.83249  1.0000
  H   H297      1.0  0.46773  0.03772  0.74288  1.0000
  H   H298      1.0  0.47098  0.07142  0.64934  1.0000
  C   C370      1.0  0.22268  0.00596  0.70815  1.0000
  C   C371      1.0  0.11195  0.08472  0.50216  1.0000
  C   C372      1.0  0.02399  0.16436  0.53860  1.0000
  H   H299      1.0  0.23834  0.12588  0.50195  1.0000
  P   P10       1.0  0.27500  0.17789  0.55392  1.0000
  C   C373      1.0  0.30965  0.00046  0.67223  1.0000
  C   C374      1.0  0.19472  0.00347  0.81387  1.0000
  C   C375      1.0  0.25119  0.02235  0.76687  1.0000
  C   C376      1.0  0.48314  0.00084  0.63400  1.0000
  H   H300      1.0  0.02110  0.03308  0.77737  1.0000
  C   C377      1.0  0.44025  0.11421  0.56082  1.0000
  H   H301      1.0  0.26407  0.99931  0.90702  1.0000
  C   C378      1.0  0.32855  0.01147  0.51359  1.0000
  H   H302      1.0  0.27497  0.99216  0.60252  1.0000
  C   C379      1.0  0.23637  0.00846  0.50920  1.0000
  C   C380      1.0  0.03366  0.16222  0.81522  1.0000
  C   C381      1.0  0.36120  0.18195  0.51106  1.0000
  C   C382      1.0  0.02639  0.13682  0.67863  1.0000
  C   C383      1.0  0.07686  0.99851  0.51733  1.0000
  H   H303      1.0  0.22019  0.03969  0.76792  1.0000
  C   C384      1.0  0.26993  0.01708  0.73301  1.0000
  H   H304      1.0  0.20603  0.99090  0.62730  1.0000
  C   C385      1.0  0.29063  0.01068  0.54038  1.0000
  H   H305      1.0  0.10696  0.99830  0.52330  1.0000
  H   H306      1.0  0.27598  0.01098  0.55094  1.0000
  H   H307      1.0  0.15848  0.00061  0.97293  1.0000
  C   C386      1.0  0.31199  0.03682  0.66595  1.0000
  H   H308      1.0  0.99476  0.99709  0.57676  1.0000
  C   C387      1.0  0.06885  0.18017  0.81041  1.0000
  H   H309      1.0  0.28382  0.01023  0.72368  1.0000
  P   P11       1.0  0.11204  0.04210  0.51590  1.0000
  C   C388      1.0  0.09107  0.02968  0.51443  1.0000
  C   C389      1.0  0.13632  0.02458  0.51102  1.0000
  C   C390      1.0  0.14286  0.00917  0.52710  1.0000
  C   C391      1.0  0.36540  0.16252  0.52339  1.0000
  C   C392      1.0  0.14813  0.02517  0.49113  1.0000
  H   H310      1.0  0.04580  0.00310  0.51123  1.0000
  C   C393      1.0  0.10935  0.04776  0.54146  1.0000
  C   C394      1.0  0.12527  0.05527  0.54661  1.0000
  C   C395      1.0  0.12259  0.06182  0.56547  1.0000
  C   C396      1.0  0.10432  0.06018  0.57967  1.0000
  C   C397      1.0  0.08885  0.05170  0.57510  1.0000
  C   C398      1.0  0.09143  0.04527  0.55617  1.0000
  H   H311      1.0  0.36389  0.17866  0.56850  1.0000
  C   C399      1.0  0.46337  0.00116  0.71712  1.0000
  H   H312      1.0  0.13381  0.00805  0.54251  1.0000
  C   C400      1.0  0.46984  0.16810  0.59919  1.0000
  H   H313      1.0  0.07048  0.05839  0.50589  1.0000
  H   H314      1.0  0.01572  0.15584  0.61827  1.0000
  C   C401      1.0  0.43066  0.16190  0.57509  1.0000
  H   H315      1.0  0.13462  0.06832  0.56902  1.0000
  H   H316      1.0  0.10204  0.06570  0.59409  1.0000
  H   H317      1.0  0.07468  0.05046  0.58612  1.0000
  H   H318      1.0  0.07942  0.03841  0.55312  1.0000
  C   C402      1.0  0.35533  0.14736  0.61982  1.0000
  C   C403      1.0  0.33522  0.14326  0.62618  1.0000
  H   H319      1.0  0.25476  0.99784  0.94478  1.0000
  C   C404      1.0  0.33645  0.13399  0.59314  1.0000
  H   H320      1.0  0.36296  0.15151  0.63054  1.0000
  C   C405      1.0  0.48358  0.03251  0.73587  1.0000
  H   H321      1.0  0.18547  0.98291  0.50038  1.0000
  C   C406      1.0  0.36046  0.11709  0.55150  1.0000
  C   C407      1.0  0.04668  0.15130  0.72874  1.0000
  C   C408      1.0  0.09514  0.01611  0.64939  1.0000
  H   H322      1.0  0.39379  0.10925  0.59141  1.0000
  C   C409      1.0  0.22808  0.00920  0.57855  1.0000
  C   C410      1.0  0.13758  0.00798  0.65049  1.0000
  C   C411      1.0  0.12869  0.02695  0.63974  1.0000
  C   C412      1.0  0.10755  0.03051  0.63848  1.0000
  P   P12       1.0  0.14463  0.04620  0.62743  1.0000
  C   C413      1.0  0.12922  0.07199  0.62541  1.0000
  C   C414      1.0  0.16178  0.04524  0.64514  1.0000
  C   C415      1.0  0.15339  0.04946  0.66506  1.0000
  C   C416      1.0  0.16633  0.04856  0.67909  1.0000
  C   C417      1.0  0.18777  0.04333  0.67341  1.0000
  C   C418      1.0  0.19618  0.03868  0.65381  1.0000
  C   C419      1.0  0.18329  0.03934  0.63983  1.0000
  C   C420      1.0  0.13404  0.08766  0.60864  1.0000
  C   C421      1.0  0.12295  0.10784  0.60810  1.0000
  C   C422      1.0  0.10700  0.11256  0.62426  1.0000
  C   C423      1.0  0.10171  0.09706  0.64072  1.0000
  C   C424      1.0  0.11280  0.07691  0.64133  1.0000
  C   C425      1.0  0.15804  0.04065  0.60241  1.0000
  C   C426      1.0  0.15214  0.02602  0.59367  1.0000
  C   C427      1.0  0.16187  0.02225  0.57404  1.0000
  C   C428      1.0  0.17746  0.03313  0.56289  1.0000
  C   C429      1.0  0.18366  0.04748  0.57154  1.0000
  C   C430      1.0  0.17405  0.05122  0.59122  1.0000
  C   C431      1.0  0.01463  0.03728  0.79233  1.0000
  C   C432      1.0  0.99014  0.03421  0.82438  1.0000
  H   H323      1.0  0.10052  0.04458  0.62954  1.0000
  H   H324      1.0  0.13684  0.05312  0.67004  1.0000
  H   H325      1.0  0.15964  0.05185  0.69441  1.0000
  H   H326      1.0  0.19779  0.04269  0.68426  1.0000
  C   C433      1.0  0.05567  0.00487  0.57130  1.0000
  H   H327      1.0  0.19029  0.03496  0.62508  1.0000
  H   H328      1.0  0.14637  0.08462  0.59599  1.0000
  H   H329      1.0  0.12664  0.11988  0.59511  1.0000
  H   H330      1.0  0.09837  0.12817  0.62388  1.0000
  H   H331      1.0  0.08885  0.10069  0.65289  1.0000
  H   H332      1.0  0.10847  0.06519  0.65428  1.0000
  H   H333      1.0  0.13998  0.01750  0.60185  1.0000
  H   H334      1.0  0.15757  0.01060  0.56761  1.0000
  H   H335      1.0  0.18520  0.02989  0.54785  1.0000
  H   H336      1.0  0.19621  0.05541  0.56311  1.0000
  H   H337      1.0  0.17917  0.06234  0.59769  1.0000
  C   C434      1.0  0.20609  0.99655  0.79602  1.0000
  C   C435      1.0  0.29032  0.00976  0.61562  1.0000
  H   H338      1.0  0.01585  0.99417  0.82712  1.0000
  C   C436      1.0  0.31236  0.10025  0.47595  1.0000
  C   C437      1.0  0.25296  0.02862  0.72407  1.0000
  S   S75       1.0  0.19628  0.00418  0.77282  1.0000
  P   P13       1.0  0.25323  0.03120  0.69677  1.0000
  C   C438      1.0  0.27968  0.02549  0.68363  1.0000
  H   H339      1.0  0.14365  0.03685  0.47843  1.0000
  H   H340      1.0  0.05358  0.06468  0.54197  1.0000
  C   C439      1.0  0.30832  0.01765  0.61429  1.0000
  H   H341      1.0  0.47796  0.02882  0.66096  1.0000
  H   H342      1.0  0.07865  0.01928  0.64929  1.0000
  C   C440      1.0  0.48294  0.15793  0.67604  1.0000
  C   C441      1.0  0.29135  0.04140  0.67558  1.0000
  H   H343      1.0  0.08802  0.99656  0.60593  1.0000
  C   C442      1.0  0.32113  0.01639  0.66425  1.0000
  H   H344      1.0  0.23191  0.99003  0.65449  1.0000
  C   C443      1.0  0.28905  0.00495  0.68201  1.0000
  C   C444      1.0  0.24270  0.05750  0.68613  1.0000
  C   C445      1.0  0.23573  0.06178  0.66721  1.0000
  C   C446      1.0  0.22779  0.08208  0.65877  1.0000
  C   C447      1.0  0.22725  0.09837  0.66886  1.0000
  C   C448      1.0  0.23468  0.09437  0.68741  1.0000
  C   C449      1.0  0.24247  0.07405  0.69600  1.0000
  C   C450      1.0  0.03495  0.11124  0.78464  1.0000
  C   C451      1.0  0.09308  0.00801  0.51863  1.0000
  H   H345      1.0  0.05145  0.14552  0.54910  1.0000
  C   C452      1.0  0.00306  0.99734  0.66753  1.0000
  H   H346      1.0  0.02052  0.99425  0.76530  1.0000
  H   H347      1.0  0.42931  0.17253  0.50725  1.0000
  C   C453      1.0  0.03805  0.99159  0.67433  1.0000
  C   C454      1.0  0.07319  0.99672  0.58048  1.0000
  H   H348      1.0  0.20258  0.14590  0.50723  1.0000
  S   S76       1.0  0.11711  0.16398  0.48845  1.0000
  C   C455      1.0  0.21884  0.99877  0.56788  1.0000
  C   C456      1.0  0.02362  0.00030  0.66135  1.0000
  C   C457      1.0  0.05800  0.17426  0.53063  1.0000
  C   C458      1.0  0.01293  0.01010  0.73618  1.0000
  H   H349      1.0  0.26116  0.09911  0.47991  1.0000
  H   H350      1.0  0.23669  0.04958  0.65873  1.0000
  H   H351      1.0  0.22227  0.08529  0.64420  1.0000
  H   H352      1.0  0.22126  0.11409  0.66210  1.0000
  H   H353      1.0  0.23453  0.10707  0.69509  1.0000
  H   H354      1.0  0.24856  0.07139  0.71014  1.0000
  C   C459      1.0  0.07100  0.15906  0.81011  1.0000
  H   H355      1.0  0.02715  0.15546  0.58136  1.0000
  H   H356      1.0  0.32925  0.12798  0.58338  1.0000
  H   H357      1.0  0.99537  0.07558  0.71115  1.0000
  C   C460      1.0  0.33363  0.10766  0.53778  1.0000
  P   P14       1.0  0.05667  0.12292  0.81030  1.0000
  C   C461      1.0  0.07851  0.11663  0.79051  1.0000
  C   C462      1.0  0.08840  0.09608  0.79040  1.0000
  C   C463      1.0  0.10379  0.09110  0.77384  1.0000
  C   C464      1.0  0.10967  0.10643  0.75745  1.0000
  C   C465      1.0  0.09988  0.12694  0.75741  1.0000
  C   C466      1.0  0.08420  0.13198  0.77373  1.0000
  C   C467      1.0  0.05883  0.10747  0.83541  1.0000
  C   C468      1.0  0.06237  0.11640  0.85101  1.0000
  C   C469      1.0  0.05995  0.10609  0.87139  1.0000
  C   C470      1.0  0.05390  0.08674  0.87642  1.0000
  C   C471      1.0  0.05074  0.07746  0.86093  1.0000
  C   C472      1.0  0.05362  0.08758  0.84043  1.0000
  H   H358      1.0  0.08424  0.08388  0.80297  1.0000
  H   H359      1.0  0.11115  0.07532  0.77359  1.0000
  H   H360      1.0  0.12162  0.10228  0.74471  1.0000
  H   H361      1.0  0.07646  0.14784  0.77308  1.0000
  C   C473      1.0  0.31142  0.02677  0.50974  1.0000
  H   H362      1.0  0.01549  0.11937  0.83353  1.0000
  H   H363      1.0  0.06699  0.13134  0.84750  1.0000
  H   H364      1.0  0.06261  0.11329  0.88332  1.0000
  H   H365      1.0  0.05161  0.07908  0.89233  1.0000
  H   H366      1.0  0.04574  0.06260  0.86490  1.0000
  H   H367      1.0  0.05097  0.08030  0.82862  1.0000
  H   H368      1.0  0.26988  0.11324  0.62382  1.0000
  H   H369      1.0  0.06044  0.00700  0.81114  1.0000
  H   H370      1.0  0.38411  0.09137  0.56092  1.0000
  H   H371      1.0  0.46108  0.15383  0.55802  1.0000
  H   H372      1.0  0.27246  0.14084  0.53881  1.0000
  H   H373      1.0  0.02112  0.13971  0.75012  1.0000
  H   H374      1.0  0.08697  0.16875  0.64628  1.0000
  H   H375      1.0  0.05444  0.99115  0.74738  1.0000
  C   C474      1.0  0.00422  0.12225  0.88610  1.0000
  C   C475      1.0  0.08349  0.98844  0.85344  1.0000
  H   H376      1.0  0.47002  0.07449  0.73712  1.0000
  H   H377      1.0  0.43569  0.17271  0.97215  1.0000
  H   H378      1.0  0.44457  0.13195  0.53022  1.0000
  C   C476      1.0  0.22952  0.99423  0.66959  1.0000
  C   C477      1.0  0.26904  0.01404  0.75432  1.0000
  H   H379      1.0  0.01985  0.15548  0.81783  1.0000
  P   P15       1.0  0.37013  0.13598  0.56076  1.0000
  C   C478      1.0  0.32678  0.99584  0.53093  1.0000
  H   H380      1.0  0.99044  0.07010  0.74927  1.0000
  C   C479      1.0  0.19073  0.09612  0.53538  1.0000
  C   C480      1.0  0.16924  0.09783  0.54094  1.0000
  C   C481      1.0  0.15789  0.09268  0.52818  1.0000
  C   C482      1.0  0.16805  0.08537  0.51008  1.0000
  C   C483      1.0  0.18964  0.08391  0.50428  1.0000
  C   C484      1.0  0.20086  0.08926  0.51711  1.0000
  C   C485      1.0  0.10389  0.99776  0.66088  1.0000
  H   H381      1.0  0.31383  0.14565  0.48083  1.0000
  C   C486      1.0  0.21122  0.17441  0.48948  1.0000
  C   C487      1.0  0.06657  0.02591  0.83061  1.0000
  C   C488      1.0  0.06634  0.00715  0.82488  1.0000
  C   C489      1.0  0.21486  0.01265  0.51048  1.0000
  C   C490      1.0  0.20505  0.03222  0.50203  1.0000
  H   H382      1.0  0.00752  0.10754  0.89612  1.0000
  H   H383      1.0  0.43280  0.14891  0.58746  1.0000
  H   H384      1.0  0.19960  0.10011  0.54516  1.0000
  H   H385      1.0  0.16133  0.10364  0.55487  1.0000
  H   H386      1.0  0.14115  0.09472  0.53222  1.0000
  H   H387      1.0  0.15899  0.08099  0.50073  1.0000
  H   H388      1.0  0.21751  0.08800  0.51301  1.0000
  C   C491      1.0  0.15756  0.98785  0.90315  1.0000
  C   C492      1.0  0.47387  0.02073  0.67647  1.0000
  C   C493      1.0  0.99883  0.04824  0.83109  1.0000
  C   C494      1.0  0.02287  0.11968  0.54790  1.0000
  H   H389      1.0  0.24400  0.14563  0.62341  1.0000
  H   H390      1.0  0.18690  0.06363  0.78642  1.0000
  C   C495      1.0  0.36312  0.17918  0.55255  1.0000
  C   C496      1.0  0.01547  0.05668  0.81852  1.0000
  C   C497      1.0  0.40466  0.11441  0.57794  1.0000
  C   C498      1.0  0.32572  0.13672  0.61279  1.0000
  C   C499      1.0  0.41214  0.13372  0.54342  1.0000
  C   C500      1.0  0.07475  0.02594  0.84800  1.0000
  H   H391      1.0  0.38135  0.14873  0.59534  1.0000
  H   H392      1.0  0.10426  0.13888  0.74463  1.0000
  C   C501      1.0  0.43338  0.12694  0.54344  1.0000
  C   C502      1.0  0.35655  0.13846  0.58650  1.0000
  C   C503      1.0  0.16995  0.05064  0.83779  1.0000
  H   H393      1.0  0.33398  0.13856  0.54142  1.0000
  H   H394      1.0  0.15525  0.05678  0.81142  1.0000
  C   C504      1.0  0.27115  0.12574  0.61077  1.0000
  C   C505      1.0  0.08763  0.15603  0.65918  1.0000
  H   H395      1.0  0.00705  0.10407  0.57658  1.0000
  H   H396      1.0  0.28470  0.05735  0.67682  1.0000
  H   H397      1.0  0.19844  0.98761  0.71646  1.0000
  C   C506      1.0  0.23512  0.03700  0.73683  1.0000
  C   C507      1.0  0.29251  0.02633  0.52315  1.0000
  H   H398      1.0  0.00336  0.15278  0.72401  1.0000
  H   H399      1.0  0.33713  0.01295  0.65675  1.0000
  H   H400      1.0  0.22261  0.00089  0.55137  1.0000
  H   H401      1.0  0.27109  0.03802  0.88403  1.0000
  H   H402      1.0  0.31928  0.11187  0.53177  1.0000
  H   H403      1.0  0.33658  0.07527  0.53684  1.0000
  C   C508      1.0  0.08275  0.00729  0.85964  1.0000
  C   C509      1.0  0.25773  0.15983  0.59337  1.0000
  S   S77       1.0  0.23608  0.01831  0.61379  1.0000
  H   H404      1.0  0.45671  0.10953  0.56120  1.0000
  C   C510      1.0  0.48186  0.16146  0.51716  1.0000
  C   C511      1.0  0.32570  0.01242  0.59963  1.0000
  H   H405      1.0  0.01845  0.10068  0.76567  1.0000
  Fe  Fe41      1.0  0.15139  0.16200  0.48500  1.0000
  C   C512      1.0  0.23429  0.03388  0.75811  1.0000
  H   H406      1.0  0.18834  0.03532  0.50330  1.0000
  C   C513      1.0  0.00862  0.15793  0.87470  1.0000
  C   C514      1.0  0.45740  0.03027  0.68971  1.0000
  C   C515      1.0  0.01876  0.10244  0.56301  1.0000
  C   C516      1.0  0.02493  0.14150  0.69825  1.0000
  H   H407      1.0  0.44900  0.04554  0.68444  1.0000
  H   H408      1.0  0.08639  0.14970  0.80889  1.0000
  H   H409      1.0  0.15404  0.00448  0.65088  1.0000
  C   C517      1.0  0.01210  0.15165  0.58856  1.0000
  C   C518      1.0  0.34346  0.08699  0.54050  1.0000
  H   H410      1.0  0.25025  0.01950  0.78343  1.0000
  H   H411      1.0  0.12062  0.99342  0.71254  1.0000
  H   H412      1.0  0.13953  0.05652  0.53578  1.0000
  C   C519      1.0  0.31091  0.17030  0.49777  1.0000
  H   H413      1.0  0.27938  0.03842  0.52046  1.0000
  C   C520      1.0  0.24800  0.02406  0.50021  1.0000
  H   H414      1.0  0.04186  0.04144  0.50388  1.0000
  C   C521      1.0  0.07438  0.00260  0.59889  1.0000
  C   C522      1.0  0.21518  0.15344  0.49824  1.0000
  C   C523      1.0  0.37026  0.09627  0.55409  1.0000
  C   C524      1.0  0.23531  0.14217  0.49521  1.0000
  C   C525      1.0  0.25664  0.14404  0.61057  1.0000
  H   H415      1.0  0.31038  0.13292  0.61809  1.0000
  C   C526      1.0  0.39761  0.12761  0.56075  1.0000
  H   H416      1.0  0.43124  0.09822  0.59156  1.0000
  H   H417      1.0  0.07562  0.09615  0.56192  1.0000
  C   C527      1.0  0.25514  0.03903  0.88239  1.0000
  C   C528      1.0  0.07477  0.98847  0.83624  1.0000
  C   C529      1.0  0.47542  0.13088  0.60056  1.0000
  H   H418      1.0  0.07673  0.07259  0.75641  1.0000
  C   C530      1.0  0.16706  0.08649  0.86938  1.0000
  C   C531      1.0  0.06331  0.09985  0.73713  1.0000
  C   C532      1.0  0.28952  0.99691  0.60205  1.0000
  H   H419      1.0  0.04114  0.13030  0.67025  1.0000
  H   H420      1.0  0.03625  0.05781  0.78944  1.0000
  H   H421      1.0  0.17339  0.08841  0.85310  1.0000
  H   H422      1.0  0.08922  0.00764  0.87296  1.0000
  C   C533      1.0  0.36595  0.16098  0.54438  1.0000
  C   C534      1.0  0.18735  0.05986  0.80275  1.0000
  H   H423      1.0  0.19347  0.00252  0.84617  1.0000
  H   H424      1.0  0.30050  0.13698  0.56378  1.0000
  C   C535      1.0  0.29275  0.14128  0.50964  1.0000
  C   C536      1.0  0.48493  0.00108  0.68333  1.0000
  H   H425      1.0  0.28919  0.12707  0.50722  1.0000
  H   H426      1.0  0.04869  0.11169  0.77310  1.0000
  H   H427      1.0  0.29815  0.10916  0.59392  1.0000
  C   C537      1.0  0.21888  0.05467  0.88939  1.0000
  C   C538      1.0  0.15388  0.10329  0.87706  1.0000
  H   H428      1.0  0.11278  0.08590  0.51765  1.0000
  C   C539      1.0  0.48182  0.17389  0.93346  1.0000
  C   C540      1.0  0.03197  0.15031  0.74692  1.0000
  C   C541      1.0  0.48056  0.14848  0.50385  1.0000
  H   H429      1.0  0.15011  0.11779  0.86676  1.0000
  C   C542      1.0  0.99775  0.02888  0.80480  1.0000
  H   H430      1.0  0.24320  0.06299  0.90074  1.0000
  C   C543      1.0  0.28699  0.12341  0.59388  1.0000
  C   C544      1.0  0.28821  0.13922  0.57671  1.0000
  C   C545      1.0  0.14514  0.10135  0.89791  1.0000
  P   P16       1.0  0.04768  0.13474  0.71044  1.0000
  C   C546      1.0  0.16954  0.05582  0.81675  1.0000
  C   C547      1.0  0.23943  0.05308  0.89181  1.0000
  C   C548      1.0  0.27349  0.15750  0.57620  1.0000
  C   C549      1.0  0.28337  0.14910  0.52760  1.0000
  H   H431      1.0  0.06097  0.04041  0.82129  1.0000
  H   H432      1.0  0.07385  0.10909  0.73925  1.0000
  C   C550      1.0  0.34205  0.12268  0.54326  1.0000
  C   C551      1.0  0.05621  0.03212  0.50788  1.0000
  H   H433      1.0  0.30856  0.02853  0.62401  1.0000
  C   C552      1.0  0.42588  0.10790  0.57801  1.0000
  H   H434      1.0  0.05452  0.00027  0.55725  1.0000
  H   H435      1.0  0.13467  0.11437  0.90369  1.0000
  H   H436      1.0  0.15577  0.04788  0.84818  1.0000
  H   H437      1.0  0.20707  0.06598  0.89645  1.0000
  H   H438      1.0  0.12292  0.99630  0.85210  1.0000
  H   H439      1.0  0.01481  0.17113  0.87607  1.0000
  H   H440      1.0  0.26240  0.01538  0.86345  1.0000
  H   H441      1.0  0.32737  0.14435  0.64177  1.0000
  C   C553      1.0  0.11121  0.06573  0.49693  1.0000
  C   C554      1.0  0.22368  0.00627  0.60002  1.0000
  C   C555      1.0  0.30165  0.17815  0.51579  1.0000
  C   C556      1.0  0.01787  0.10503  0.78037  1.0000
  H   H442      1.0  0.40713  0.14380  0.52995  1.0000
  H   H443      1.0  0.11187  0.11736  0.49157  1.0000
  H   H444      1.0  0.07275  0.16576  0.71169  1.0000
  H   H445      1.0  0.24391  0.99328  0.51574  1.0000
  H   H446      1.0  0.06164  0.09506  0.51531  1.0000
  C   C557      1.0  0.16067  0.99442  0.52324  1.0000
  C   C558      1.0  0.48031  0.00927  0.61378  1.0000
  C   C559      1.0  0.20961  0.99317  0.61069  1.0000
  C   C560      1.0  0.99688  0.98504  0.68655  1.0000
  H   H447      1.0  0.48085  0.05327  0.70709  1.0000
  H   H448      1.0  0.21958  0.01015  0.72325  1.0000
  H   H449      1.0  0.28209  0.00497  0.76116  1.0000
  C   C561      1.0  0.16580  0.01019  0.48731  1.0000
  H   H450      1.0  0.24736  0.05599  0.48665  1.0000
  C   C562      1.0  0.04520  0.17652  0.75761  1.0000
  C   C563      1.0  0.00565  0.15186  0.60962  1.0000
  C   C564      1.0  0.99863  0.02451  0.72592  1.0000
  H   H451      1.0  0.46506  0.17708  0.93580  1.0000
  C   C565      1.0  0.00711  0.98840  0.60493  1.0000
  H   H452      1.0  0.01970  0.16197  0.77520  1.0000
  H   H453      1.0  0.33844  0.99608  0.57447  1.0000
  H   H454      1.0  0.99101  0.17641  0.80220  1.0000
  H   H455      1.0  0.02670  0.06949  0.57252  1.0000
  H   H456      1.0  0.45982  0.18210  0.60322  1.0000
  C   C566      1.0  0.06094  0.16483  0.72534  1.0000
  H   H457      1.0  0.99262  0.05263  0.84602  1.0000
  P   P17       1.0  0.00782  0.14508  0.55020  1.0000
  C   C567      1.0  0.17196  0.99472  0.50333  1.0000
  C   C568      1.0  0.48869  0.16926  0.58580  1.0000
  C   C569      1.0  0.24155  0.00734  0.67323  1.0000
  H   H458      1.0  0.31287  0.03922  0.49662  1.0000
  H   H459      1.0  0.08655  0.98775  0.70801  1.0000
  C   C570      1.0  0.41217  0.17612  0.57631  1.0000
  C   C571      1.0  0.04501  0.16004  0.54037  1.0000
  H   H460      1.0  0.15987  0.99485  0.85007  1.0000
  H   H461      1.0  0.99269  0.17483  0.85013  1.0000
  H   H462      1.0  0.28051  0.99237  0.68847  1.0000
  H   H463      1.0  0.34331  0.01202  0.50335  1.0000
  Fe  Fe42      1.0  0.14795  0.17669  0.52531  1.0000
  C   C572      1.0  0.21392  0.98720  0.68510  1.0000
  H   H464      1.0  0.45948  0.99377  0.73298  1.0000
  C   C573      1.0  0.99588  0.16008  0.86008  1.0000
  C   C574      1.0  0.00865  0.13928  0.67000  1.0000
  C   C575      1.0  0.00909  0.00517  0.75761  1.0000
  C   C576      1.0  0.48409  0.15059  0.65787  1.0000
  H   H465      1.0  0.07426  0.17046  0.53180  1.0000
  C   C577      1.0  0.04945  0.09705  0.52846  1.0000
  S   S78       1.0  0.48286  0.13899  0.75209  1.0000
  H   H466      1.0  0.46520  0.01113  0.60955  1.0000
  C   C578      1.0  0.27623  0.09647  0.48428  1.0000
  C   C579      1.0  0.02988  0.08271  0.56078  1.0000
  H   H467      1.0  0.32130  0.17868  0.48597  1.0000
  C   C580      1.0  0.44353  0.18105  0.54177  1.0000
  H   H468      1.0  0.31680  0.98461  0.67098  1.0000
  H   H469      1.0  0.27661  0.01442  0.62647  1.0000
  S   S79       1.0  0.11316  0.18104  0.53149  1.0000
  H   H470      1.0  0.40046  0.17477  0.59002  1.0000
  H   H471      1.0  0.48636  0.09133  0.66707  1.0000
  H   H472      1.0  0.30578  0.17467  0.58060  1.0000
  C   C581      1.0  0.30699  0.99138  0.58740  1.0000
  C   C582      1.0  0.25145  0.15185  0.48324  1.0000
  S   S80       1.0  0.41063  0.17968  0.64985  1.0000
  H   H473      1.0  0.02819  0.00999  0.64677  1.0000
  C   C583      1.0  0.00292  0.98467  0.58676  1.0000
  P   P18       1.0  0.20365  0.07306  0.48201  1.0000
  C   C584      1.0  0.06023  0.17728  0.73978  1.0000
  H   H474      1.0  0.24599  0.17359  0.59352  1.0000
  C   C585      1.0  0.03114  0.16294  0.76122  1.0000
  H   H475      1.0  0.99947  0.15728  0.94384  1.0000
  H   H476      1.0  0.99191  0.00529  0.65770  1.0000
  H   H477      1.0  0.24516  0.17233  0.52966  1.0000
  H   H478      1.0  0.45062  0.17998  0.73935  1.0000
  C   C586      1.0  0.00531  0.14913  0.70887  1.0000
  H   H479      1.0  0.09416  0.98693  0.66964  1.0000
  H   H480      1.0  0.00223  0.02881  0.70939  1.0000
  H   H481      1.0  0.34043  0.98462  0.53404  1.0000
  C   C587      1.0  0.22510  0.98303  0.79687  1.0000
  C   C588      1.0  0.07660  0.98377  0.76787  1.0000
  C   C589      1.0  0.00179  0.98422  0.80550  1.0000
  H   H482      1.0  0.15976  0.26079  0.44965  1.0000
  C   C590      1.0  0.43635  0.26874  0.07467  1.0000
  S   S81       1.0  0.31545  0.21125  0.44011  1.0000
  C   C591      1.0  0.47819  0.19154  0.07977  1.0000
  C   C592      1.0  0.35705  0.23677  0.39617  1.0000
  Fe  Fe43      1.0  0.08933  0.25170  0.36658  1.0000
  S   S82       1.0  0.10285  0.25926  0.33316  1.0000
  S   S83       1.0  0.11081  0.23090  0.38685  1.0000
  Fe  Fe44      1.0  0.04668  0.27330  0.35925  1.0000
  S   S84       1.0  0.05661  0.28205  0.32529  1.0000
  S   S85       1.0  0.01450  0.28263  0.37617  1.0000
  Fe  Fe45      1.0  0.07480  0.24983  0.32720  1.0000
  S   S86       1.0  0.08233  0.22828  0.30399  1.0000
  Fe  Fe46      1.0  0.08389  0.29078  0.33396  1.0000
  S   S87       1.0  0.09438  0.32008  0.31511  1.0000
  S   S88       1.0  0.06256  0.24013  0.36067  1.0000
  S   S89       1.0  0.07264  0.28417  0.36798  1.0000
  C   C593      1.0  0.22708  0.23633  0.03843  1.0000
  S   S90       1.0  0.12908  0.34298  0.11585  1.0000
  H   H483      1.0  0.35965  0.19780  0.44215  1.0000
  S   S91       1.0  0.11084  0.34544  0.17488  1.0000
  Fe  Fe47      1.0  0.13218  0.26673  0.99295  1.0000
  S   S92       1.0  0.10210  0.28808  0.00118  1.0000
  H   H484      1.0  0.46292  0.20076  0.15594  1.0000
  Fe  Fe48      1.0  0.15774  0.29619  0.00252  1.0000
  S   S93       1.0  0.12952  0.31976  0.01020  1.0000
  S   S94       1.0  0.18990  0.30353  0.99949  1.0000
  Fe  Fe49      1.0  0.11553  0.29236  0.02787  1.0000
  S   S95       1.0  0.09693  0.29519  0.05987  1.0000
  C   C594      1.0  0.35621  0.20138  0.34437  1.0000
  S   S96       1.0  0.14442  0.26866  0.02138  1.0000
  C   C595      1.0  0.36713  0.21783  0.45991  1.0000
  H   H485      1.0  0.03535  0.21666  0.43117  1.0000
  Fe  Fe50      1.0  0.43685  0.33806  0.13408  1.0000
  S   S97       1.0  0.44990  0.31048  0.15547  1.0000
  S   S98       1.0  0.45964  0.35504  0.11071  1.0000
  Fe  Fe51      1.0  0.39252  0.33545  0.15472  1.0000
  S   S99       1.0  0.40250  0.30809  0.17868  1.0000
  C   C596      1.0  0.01822  0.35537  0.35588  1.0000
  Fe  Fe52      1.0  0.42783  0.32504  0.18050  1.0000
  S   S100      1.0  0.44158  0.32216  0.20968  1.0000
  Fe  Fe53      1.0  0.42385  0.29602  0.15184  1.0000
  S   S101      1.0  0.43123  0.26288  0.14623  1.0000
  S   S102      1.0  0.41578  0.35355  0.15913  1.0000
  S   S103      1.0  0.41287  0.32236  0.12791  1.0000
  Fe  Fe54      1.0  0.28632  0.36407  0.06537  1.0000
  S   S104      1.0  0.31827  0.35533  0.07456  1.0000
  Fe  Fe55      1.0  0.24826  0.34801  0.06110  1.0000
  S   S105      1.0  0.22731  0.32394  0.07060  1.0000
  C   C597      1.0  0.26714  0.29687  0.99703  1.0000
  S   S106      1.0  0.28127  0.34353  0.04493  1.0000
  Fe  Fe56      1.0  0.36125  0.19460  0.06279  1.0000
  C   C598      1.0  0.27282  0.30055  0.97565  1.0000
  S   S107      1.0  0.34221  0.21839  0.04204  1.0000
  Fe  Fe57      1.0  0.37493  0.19410  0.10334  1.0000
  S   S108      1.0  0.36812  0.21326  0.12869  1.0000
  S   S109      1.0  0.38829  0.20443  0.07039  1.0000
  S   S110      1.0  0.01498  0.19990  0.26792  1.0000
  P   P19       1.0  0.22231  0.21141  0.46663  1.0000
  C   C599      1.0  0.25614  0.27288  0.06664  1.0000
  C   C600      1.0  0.43726  0.20528  0.36750  1.0000
  H   H486      1.0  0.99077  0.36239  0.30378  1.0000
  C   C601      1.0  0.42142  0.24155  0.36260  1.0000
  C   C602      1.0  0.34698  0.35028  0.13216  1.0000
  C   C603      1.0  0.35930  0.34680  0.11334  1.0000
  C   C604      1.0  0.35015  0.34846  0.09599  1.0000
  C   C605      1.0  0.32859  0.35397  0.09706  1.0000
  S   S111      1.0  0.23889  0.37595  0.03867  1.0000
  H   H487      1.0  0.43858  0.24033  0.19545  1.0000
  H   H488      1.0  0.37591  0.34273  0.11211  1.0000
  H   H489      1.0  0.35989  0.34546  0.08161  1.0000
  H   H490      1.0  0.38643  0.23408  0.00831  1.0000
  C   C606      1.0  0.41302  0.25137  0.13912  1.0000
  C   C607      1.0  0.39217  0.25465  0.14828  1.0000
  C   C608      1.0  0.37836  0.24361  0.14404  1.0000
  C   C609      1.0  0.38527  0.22914  0.13075  1.0000
  C   C610      1.0  0.40591  0.22659  0.12076  1.0000
  C   C611      1.0  0.41984  0.23738  0.12527  1.0000
  H   H491      1.0  0.38683  0.26520  0.15915  1.0000
  H   H492      1.0  0.36228  0.24609  0.15132  1.0000
  H   H493      1.0  0.41141  0.21545  0.11048  1.0000
  H   H494      1.0  0.43604  0.23447  0.11840  1.0000
  C   C612      1.0  0.99231  0.36950  0.28770  1.0000
  H   H495      1.0  0.11680  0.33104  0.44690  1.0000
  H   H496      1.0  0.19788  0.18877  0.45052  1.0000
  C   C613      1.0  0.45569  0.33908  0.21600  1.0000
  H   H497      1.0  0.16448  0.19925  0.43820  1.0000
  H   H498      1.0  0.39719  0.19959  0.42277  1.0000
  C   C614      1.0  0.26215  0.21125  0.41167  1.0000
  H   H499      1.0  0.00884  0.28947  0.33334  1.0000
  C   C615      1.0  0.14217  0.36478  0.03367  1.0000
  C   C616      1.0  0.15966  0.19167  0.31445  1.0000
  H   H500      1.0  0.35750  0.20868  0.31158  1.0000
  H   H501      1.0  0.06029  0.21455  0.23667  1.0000
  H   H502      1.0  0.46857  0.23980  0.99854  1.0000
  C   C617      1.0  0.06052  0.19227  0.21785  1.0000
  C   C618      1.0  0.19900  0.31004  0.01966  1.0000
  C   C619      1.0  0.21470  0.32209  0.01467  1.0000
  C   C620      1.0  0.22320  0.32670  0.03019  1.0000
  C   C621      1.0  0.21610  0.31923  0.05088  1.0000
  C   C622      1.0  0.20022  0.30733  0.05592  1.0000
  C   C623      1.0  0.19160  0.30284  0.04037  1.0000
  H   H503      1.0  0.22057  0.32763  0.99869  1.0000
  H   H504      1.0  0.23553  0.33572  0.02605  1.0000
  H   H505      1.0  0.19455  0.30159  0.07189  1.0000
  H   H506      1.0  0.17945  0.29360  0.04440  1.0000
  H   H507      1.0  0.22843  0.26985  0.00136  1.0000
  C   C624      1.0  0.11933  0.33043  0.10026  1.0000
  C   C625      1.0  0.13243  0.32446  0.08256  1.0000
  C   C626      1.0  0.12561  0.31401  0.06991  1.0000
  C   C627      1.0  0.10575  0.30890  0.07516  1.0000
  C   C628      1.0  0.09274  0.31454  0.09310  1.0000
  C   C629      1.0  0.09937  0.32552  0.10546  1.0000
  H   H508      1.0  0.14799  0.32793  0.07856  1.0000
  H   H509      1.0  0.13587  0.30960  0.05629  1.0000
  H   H510      1.0  0.07737  0.31063  0.09728  1.0000
  H   H511      1.0  0.08919  0.32993  0.11913  1.0000
  H   H512      1.0  0.15717  0.32166  0.38972  1.0000
  H   H513      1.0  0.24049  0.29540  0.11134  1.0000
  H   H514      1.0  0.12369  0.19929  0.45577  1.0000
  Fe  Fe58      1.0  0.11904  0.31352  0.98309  1.0000
  C   C630      1.0  0.37869  0.23205  0.39475  1.0000
  C   C631      1.0  0.99718  0.36031  0.20084  1.0000
  H   H515      1.0  0.24353  0.28122  0.07626  1.0000
  C   C632      1.0  0.06286  0.21990  0.29552  1.0000
  C   C633      1.0  0.04370  0.23264  0.29379  1.0000
  C   C634      1.0  0.02927  0.22638  0.28505  1.0000
  C   C635      1.0  0.03346  0.20696  0.27897  1.0000
  C   C636      1.0  0.05242  0.19398  0.28117  1.0000
  C   C637      1.0  0.06725  0.20063  0.28904  1.0000
  H   H516      1.0  0.04008  0.24738  0.29897  1.0000
  C   C638      1.0  0.23319  0.18746  0.30161  1.0000
  H   H517      1.0  0.03557  0.32273  0.39464  1.0000
  H   H518      1.0  0.48518  0.24352  0.23026  1.0000
  C   C639      1.0  0.35544  0.20158  0.00649  1.0000
  H   H519      1.0  0.38344  0.21140  0.45766  1.0000
  H   H520      1.0  0.14532  0.23525  0.43765  1.0000
  C   C640      1.0  0.11395  0.21127  0.44695  1.0000
  C   C641      1.0  0.11642  0.31483  0.45287  1.0000
  C   C642      1.0  0.13514  0.35978  0.33069  1.0000
  C   C643      1.0  0.12110  0.36823  0.31717  1.0000
  C   C644      1.0  0.10846  0.35592  0.31299  1.0000
  C   C645      1.0  0.10908  0.33524  0.32276  1.0000
  C   C646      1.0  0.12235  0.32695  0.33706  1.0000
  C   C647      1.0  0.13551  0.33911  0.34081  1.0000
  H   H521      1.0  0.36265  0.18883  0.97847  1.0000
  H   H522      1.0  0.09836  0.36235  0.30182  1.0000
  H   H523      1.0  0.12300  0.31100  0.34464  1.0000
  H   H524      1.0  0.14632  0.33238  0.35125  1.0000
  H   H525      1.0  0.46755  0.23495  0.13413  1.0000
  H   H526      1.0  0.28202  0.23312  0.39587  1.0000
  H   H527      1.0  0.45246  0.31863  0.09894  1.0000
  H   H528      1.0  0.47419  0.25914  0.10124  1.0000
  C   C648      1.0  0.08575  0.24045  0.44515  1.0000
  C   C649      1.0  0.08932  0.24254  0.42354  1.0000
  C   C650      1.0  0.10531  0.22898  0.41372  1.0000
  C   C651      1.0  0.11756  0.21340  0.42547  1.0000
  C   C652      1.0  0.19823  0.37877  0.00757  1.0000
  H   H529      1.0  0.07984  0.25464  0.41451  1.0000
  S   S112      1.0  0.34664  0.18659  0.09584  1.0000
  H   H530      1.0  0.99206  0.33256  0.24941  1.0000
  C   C653      1.0  0.11645  0.30108  0.43979  1.0000
  C   C654      1.0  0.47793  0.25022  0.00064  1.0000
  C   C655      1.0  0.33261  0.21868  0.45311  1.0000
  C   C656      1.0  0.35367  0.21002  0.45110  1.0000
  H   H531      1.0  0.47044  0.19888  0.35824  1.0000
  C   C657      1.0  0.39938  0.23761  0.01342  1.0000
  C   C658      1.0  0.19920  0.29168  0.19500  1.0000
  C   C659      1.0  0.19055  0.31013  0.18355  1.0000
  C   C660      1.0  0.17907  0.32616  0.19357  1.0000
  C   C661      1.0  0.17624  0.32391  0.21499  1.0000
  C   C662      1.0  0.18452  0.30529  0.22671  1.0000
  C   C663      1.0  0.19614  0.28922  0.21646  1.0000
  P   P20       1.0  0.17955  0.30112  0.25459  1.0000
  C   C664      1.0  0.20359  0.28749  0.26267  1.0000
  C   C665      1.0  0.17235  0.32523  0.26464  1.0000
  C   C666      1.0  0.18524  0.33058  0.27598  1.0000
  C   C667      1.0  0.17955  0.34895  0.28400  1.0000
  C   C668      1.0  0.16093  0.36207  0.28097  1.0000
  C   C669      1.0  0.14775  0.35670  0.27025  1.0000
  C   C670      1.0  0.15356  0.33859  0.26181  1.0000
  C   C671      1.0  0.20350  0.27233  0.28048  1.0000
  C   C672      1.0  0.22215  0.26234  0.28703  1.0000
  C   C673      1.0  0.24096  0.26751  0.27589  1.0000
  C   C674      1.0  0.24115  0.28282  0.25828  1.0000
  C   C675      1.0  0.22254  0.29286  0.25173  1.0000
  C   C676      1.0  0.15967  0.28499  0.26333  1.0000
  C   C677      1.0  0.16350  0.26498  0.25849  1.0000
  C   C678      1.0  0.14836  0.25233  0.26505  1.0000
  C   C679      1.0  0.12924  0.25952  0.27646  1.0000
  C   C680      1.0  0.12530  0.27932  0.28138  1.0000
  C   C681      1.0  0.14041  0.29194  0.27501  1.0000
  H   H532      1.0  0.20819  0.27926  0.18720  1.0000
  H   H533      1.0  0.19268  0.31207  0.16691  1.0000
  H   H534      1.0  0.17230  0.34043  0.18471  1.0000
  H   H535      1.0  0.16749  0.33678  0.22212  1.0000
  H   H536      1.0  0.20297  0.27476  0.22500  1.0000
  H   H537      1.0  0.19966  0.32069  0.27888  1.0000
  H   H538      1.0  0.18938  0.35303  0.29285  1.0000
  C   C682      1.0  0.44920  0.21549  0.06745  1.0000
  C   C683      1.0  0.44187  0.20390  0.18455  1.0000
  H   H539      1.0  0.14317  0.33502  0.25330  1.0000
  H   H540      1.0  0.18903  0.26846  0.28943  1.0000
  H   H541      1.0  0.22205  0.25063  0.30080  1.0000
  H   H542      1.0  0.25538  0.25982  0.28104  1.0000
  H   H543      1.0  0.25573  0.28707  0.24982  1.0000
  H   H544      1.0  0.22293  0.30502  0.23830  1.0000
  H   H545      1.0  0.17823  0.25902  0.24982  1.0000
  H   H546      1.0  0.15140  0.23689  0.26137  1.0000
  H   H547      1.0  0.11755  0.24968  0.28179  1.0000
  H   H548      1.0  0.11061  0.28485  0.29056  1.0000
  H   H549      1.0  0.13688  0.30678  0.27993  1.0000
  C   C684      1.0  0.42746  0.21125  0.46581  1.0000
  C   C685      1.0  0.15266  0.35466  0.38552  1.0000
  C   C686      1.0  0.18517  0.35067  0.10888  1.0000
  C   C687      1.0  0.29754  0.36144  0.97986  1.0000
  C   C688      1.0  0.46711  0.32226  0.09029  1.0000
  H   H550      1.0  0.23300  0.19740  0.99155  1.0000
  C   C689      1.0  0.41948  0.22065  0.36936  1.0000
  H   H551      1.0  0.01328  0.35434  0.37234  1.0000
  C   C690      1.0  0.02397  0.19775  0.35569  1.0000
  H   H552      1.0  0.41544  0.20601  0.01712  1.0000
  H   H553      1.0  0.30401  0.27716  0.03879  1.0000
  C   C691      1.0  0.00347  0.21440  0.32895  1.0000
  C   C692      1.0  0.47427  0.33944  0.09302  1.0000
  H   H554      1.0  0.01971  0.25076  0.41330  1.0000
  H   H555      1.0  0.04351  0.19729  0.39988  1.0000
  P   P21       1.0  0.26764  0.21877  0.04403  1.0000
  C   C693      1.0  0.31799  0.24017  0.12977  1.0000
  C   C694      1.0  0.27035  0.22927  0.40913  1.0000
  H   H556      1.0  0.34913  0.22950  0.38804  1.0000
  H   H557      1.0  0.40254  0.23044  0.33439  1.0000
  H   H558      1.0  0.19479  0.20357  0.00297  1.0000
  H   H559      1.0  0.40784  0.25364  0.36344  1.0000
  C   C695      1.0  0.19778  0.21885  0.45769  1.0000
  C   C696      1.0  0.01499  0.19670  0.33894  1.0000
  C   C697      1.0  0.11599  0.28010  0.44814  1.0000
  C   C698      1.0  0.24139  0.21829  0.44433  1.0000
  P   P22       1.0  0.39415  0.21368  0.37898  1.0000
  C   C699      1.0  0.44236  0.27278  0.05320  1.0000
  H   H560      1.0  0.99232  0.22845  0.24022  1.0000
  C   C700      1.0  0.99811  0.30108  0.34100  1.0000
  C   C701      1.0  0.24121  0.27784  0.99409  1.0000
  H   H561      1.0  0.38721  0.27023  0.01095  1.0000
  H   H562      1.0  0.06240  0.34106  0.37082  1.0000
  C   C702      1.0  0.37168  0.19488  0.19368  1.0000
  C   C703      1.0  0.09146  0.31344  0.40666  1.0000
  H   H563      1.0  0.11867  0.18613  0.25040  1.0000
  H   H564      1.0  0.12990  0.20288  0.41796  1.0000
  H   H565      1.0  0.07487  0.20229  0.41072  1.0000
  C   C704      1.0  0.19912  0.21702  0.04400  1.0000
  C   C705      1.0  0.43764  0.19637  0.20580  1.0000
  C   C706      1.0  0.39713  0.18833  0.39498  1.0000
  C   C707      1.0  0.34299  0.23852  0.00244  1.0000
  H   H566      1.0  0.30185  0.24270  0.03312  1.0000
  H   H567      1.0  0.01849  0.29070  0.28223  1.0000
  H   H568      1.0  0.16413  0.34103  0.13637  1.0000
  H   H569      1.0  0.43615  0.18903  0.37217  1.0000
  H   H570      1.0  0.44815  0.23337  0.45601  1.0000
  H   H571      1.0  0.09242  0.37735  0.22988  1.0000
  C   C708      1.0  0.20119  0.25276  0.98078  1.0000
  H   H572      1.0  0.07347  0.25096  0.45277  1.0000
  H   H573      1.0  0.30293  0.19472  0.12996  1.0000
  C   C709      1.0  0.09808  0.22477  0.45688  1.0000
  C   C710      1.0  0.28126  0.21412  0.01887  1.0000
  C   C711      1.0  0.15495  0.35261  0.02000  1.0000
  C   C712      1.0  0.38072  0.22085  0.32096  1.0000
  H   H574      1.0  0.24659  0.19484  0.26964  1.0000
  H   H575      1.0  0.00722  0.24922  0.35739  1.0000
  C   C713      1.0  0.07623  0.19292  0.39908  1.0000
  H   H576      1.0  0.13984  0.35853  0.04999  1.0000
  H   H577      1.0  0.47310  0.29670  0.07395  1.0000
  H   H578      1.0  0.38355  0.26163  0.42839  1.0000
  C   C714      1.0  0.01693  0.24484  0.15296  1.0000
  C   C715      1.0  0.24877  0.23706  0.44105  1.0000
  C   C716      1.0  0.34520  0.25065  0.40875  1.0000
  H   H579      1.0  0.39554  0.23365  0.25299  1.0000
  C   C717      1.0  0.14642  0.33546  0.39310  1.0000
  H   H580      1.0  0.99226  0.19690  0.21688  1.0000
  H   H581      1.0  0.99653  0.21337  0.31615  1.0000
  C   C718      1.0  0.46261  0.22883  0.05586  1.0000
  H   H582      1.0  0.48412  0.27741  0.03565  1.0000
  Fe  Fe59      1.0  0.11062  0.35969  0.14172  1.0000
  S   S113      1.0  0.13763  0.23783  0.97785  1.0000
  C   C719      1.0  0.02935  0.29792  0.21181  1.0000
  C   C720      1.0  0.01919  0.28846  0.23051  1.0000
  C   C721      1.0  0.02989  0.27168  0.24240  1.0000
  C   C722      1.0  0.05095  0.26456  0.23583  1.0000
  C   C723      1.0  0.06138  0.27429  0.21721  1.0000
  C   C724      1.0  0.05042  0.29111  0.20531  1.0000
  P   P23       1.0  0.08893  0.26694  0.20917  1.0000
  C   C725      1.0  0.10250  0.28425  0.21617  1.0000
  C   C726      1.0  0.09829  0.24113  0.22194  1.0000
  C   C727      1.0  0.10070  0.23800  0.24262  1.0000
  C   C728      1.0  0.10817  0.21825  0.25273  1.0000
  C   C729      1.0  0.11317  0.20144  0.24239  1.0000
  C   C730      1.0  0.11099  0.20440  0.22179  1.0000
  C   C731      1.0  0.10370  0.22417  0.21154  1.0000
  C   C732      1.0  0.12425  0.28034  0.21304  1.0000
  C   C733      1.0  0.13498  0.29447  0.21689  1.0000
  C   C734      1.0  0.12408  0.31246  0.22411  1.0000
  C   C735      1.0  0.10245  0.31605  0.22796  1.0000
  C   C736      1.0  0.09168  0.30196  0.22411  1.0000
  C   C737      1.0  0.09315  0.26891  0.18149  1.0000
  C   C738      1.0  0.10589  0.28226  0.16848  1.0000
  C   C739      1.0  0.10838  0.28419  0.14710  1.0000
  C   C740      1.0  0.09807  0.27298  0.13850  1.0000
  C   C741      1.0  0.08506  0.25999  0.15130  1.0000
  C   C742      1.0  0.08235  0.25817  0.17269  1.0000
  H   H583      1.0  0.02105  0.31112  0.20273  1.0000
  C   C743      1.0  0.23367  0.19874  0.28165  1.0000
  H   H584      1.0  0.02185  0.26438  0.25683  1.0000
  H   H585      1.0  0.05889  0.25165  0.24546  1.0000
  H   H586      1.0  0.05827  0.29945  0.19130  1.0000
  H   H587      1.0  0.09658  0.25078  0.25105  1.0000
  H   H588      1.0  0.10979  0.21588  0.26874  1.0000
  C   C744      1.0  0.47986  0.27365  0.21143  1.0000
  C   C745      1.0  0.08381  0.37970  0.24494  1.0000
  H   H589      1.0  0.10238  0.22600  0.19557  1.0000
  H   H590      1.0  0.13286  0.26670  0.20699  1.0000
  H   H591      1.0  0.15172  0.29174  0.21376  1.0000
  H   H592      1.0  0.07491  0.30528  0.22698  1.0000
  H   H593      1.0  0.11362  0.29161  0.17460  1.0000
  H   H594      1.0  0.11814  0.29463  0.13714  1.0000
  H   H595      1.0  0.10002  0.27460  0.12189  1.0000
  H   H596      1.0  0.07689  0.25149  0.14459  1.0000
  H   H597      1.0  0.07178  0.24844  0.18238  1.0000
  C   C746      1.0  0.37627  0.25506  0.41895  1.0000
  C   C747      1.0  0.27377  0.28161  0.05759  1.0000
  H   H598      1.0  0.23231  0.25104  0.03406  1.0000
  C   C748      1.0  0.00085  0.23337  0.33543  1.0000
  C   C749      1.0  0.48491  0.28565  0.19212  1.0000
  C   C750      1.0  0.48716  0.36180  0.43723  1.0000
  H   H599      1.0  0.18208  0.33989  0.10042  1.0000
  S   S114      1.0  0.25361  0.36635  0.08326  1.0000
  H   H600      1.0  0.20639  0.37220  0.97696  1.0000
  C   C751      1.0  0.47165  0.33064  0.22761  1.0000
  S   S115      1.0  0.05788  0.34475  0.20691  1.0000
  H   H601      1.0  0.35357  0.24653  0.19066  1.0000
  C   C752      1.0  0.20632  0.23585  0.03851  1.0000
  H   H602      1.0  0.01118  0.23108  0.15239  1.0000
  C   C753      1.0  0.31383  0.25090  0.11045  1.0000
  C   C754      1.0  0.43237  0.22625  0.02512  1.0000
  P   P24       1.0  0.31722  0.27756  0.10191  1.0000
  C   C755      1.0  0.29238  0.29413  0.10742  1.0000
  C   C756      1.0  0.33538  0.28390  0.11504  1.0000
  C   C757      1.0  0.32879  0.28868  0.13495  1.0000
  C   C758      1.0  0.34205  0.29576  0.14430  1.0000
  C   C759      1.0  0.36208  0.29775  0.13403  1.0000
  C   C760      1.0  0.36899  0.29245  0.11451  1.0000
  C   C761      1.0  0.35575  0.28549  0.10504  1.0000
  C   C762      1.0  0.29142  0.31399  0.11154  1.0000
  C   C763      1.0  0.27228  0.32655  0.11656  1.0000
  C   C764      1.0  0.25392  0.31980  0.11658  1.0000
  C   C765      1.0  0.25472  0.30030  0.11198  1.0000
  C   C766      1.0  0.27384  0.28741  0.10761  1.0000
  C   C767      1.0  0.32699  0.28220  0.07461  1.0000
  C   C768      1.0  0.32286  0.30212  0.06303  1.0000
  C   C769      1.0  0.33089  0.30596  0.04198  1.0000
  C   C770      1.0  0.34309  0.28991  0.03234  1.0000
  C   C771      1.0  0.34752  0.27008  0.04385  1.0000
  C   C772      1.0  0.33967  0.26625  0.06492  1.0000
  H   H603      1.0  0.32489  0.24705  0.13919  1.0000
  H   H604      1.0  0.30233  0.24904  0.08333  1.0000
  H   H605      1.0  0.31318  0.28758  0.14296  1.0000
  H   H606      1.0  0.33674  0.30026  0.15928  1.0000
  H   H607      1.0  0.37222  0.30359  0.14116  1.0000
  H   H608      1.0  0.38456  0.29398  0.10665  1.0000
  H   H609      1.0  0.36141  0.28174  0.08981  1.0000
  H   H610      1.0  0.30547  0.31989  0.11073  1.0000
  H   H611      1.0  0.27178  0.34180  0.11979  1.0000
  H   H612      1.0  0.23910  0.32992  0.11952  1.0000
  H   H613      1.0  0.27399  0.27243  0.10408  1.0000
  H   H614      1.0  0.31365  0.31480  0.07025  1.0000
  H   H615      1.0  0.32767  0.32144  0.03321  1.0000
  H   H616      1.0  0.34903  0.29286  0.01597  1.0000
  H   H617      1.0  0.35691  0.25754  0.03652  1.0000
  H   H618      1.0  0.34359  0.25082  0.07358  1.0000
  H   H619      1.0  0.34630  0.21536  0.18110  1.0000
  C   C773      1.0  0.05110  0.32032  0.39801  1.0000
  C   C774      1.0  0.18974  0.20457  0.45046  1.0000
  C   C775      1.0  0.39976  0.25793  0.01506  1.0000
  S   S116      1.0  0.35801  0.34745  0.15458  1.0000
  C   C776      1.0  0.31396  0.22001  0.13681  1.0000
  C   C777      1.0  0.29955  0.22606  0.98479  1.0000
  C   C778      1.0  0.11980  0.20491  0.33497  1.0000
  Fe  Fe60      1.0  0.27203  0.37340  0.02420  1.0000
  H   H620      1.0  0.26985  0.25630  0.42174  1.0000
  C   C779      1.0  0.02980  0.35748  0.31314  1.0000
  C   C780      1.0  0.15672  0.20589  0.32787  1.0000
  C   C781      1.0  0.13666  0.21230  0.33817  1.0000
  P   P25       1.0  0.17857  0.21502  0.33272  1.0000
  C   C782      1.0  0.18400  0.20372  0.35838  1.0000
  C   C783      1.0  0.20036  0.20863  0.31297  1.0000
  C   C784      1.0  0.29834  0.18962  0.99605  1.0000
  C   C785      1.0  0.17519  0.35122  0.12918  1.0000
  H   H621      1.0  0.06266  0.35957  0.24539  1.0000
  C   C786      1.0  0.21728  0.21474  0.27720  1.0000
  C   C787      1.0  0.20062  0.21961  0.29279  1.0000
  C   C788      1.0  0.20325  0.20390  0.36355  1.0000
  C   C789      1.0  0.30139  0.22109  0.10547  1.0000
  C   C790      1.0  0.31618  0.35781  0.11577  1.0000
  C   C791      1.0  0.48465  0.25617  0.11219  1.0000
  H   H622      1.0  0.10967  0.18534  0.31900  1.0000
  C   C792      1.0  0.17413  0.24300  0.33024  1.0000
  C   C793      1.0  0.15689  0.25543  0.32242  1.0000
  C   C794      1.0  0.15315  0.27690  0.32163  1.0000
  C   C795      1.0  0.16718  0.28630  0.32745  1.0000
  C   C796      1.0  0.18484  0.27420  0.33440  1.0000
  C   C797      1.0  0.18828  0.25267  0.33585  1.0000
  H   H623      1.0  0.10435  0.20991  0.34306  1.0000
  P   P26       1.0  0.45268  0.25175  0.03898  1.0000
  H   H624      1.0  0.16444  0.37389  0.23070  1.0000
  C   C798      1.0  0.20718  0.19575  0.38349  1.0000
  H   H625      1.0  0.13409  0.22287  0.34887  1.0000
  C   C799      1.0  0.20264  0.21630  0.99496  1.0000
  C   C800      1.0  0.03070  0.34837  0.21152  1.0000
  H   H626      1.0  0.26717  0.20143  0.40011  1.0000
  H   H627      1.0  0.21746  0.22330  0.26167  1.0000
  H   H628      1.0  0.18781  0.23177  0.28912  1.0000
  H   H629      1.0  0.21549  0.20983  0.35215  1.0000
  C   C801      1.0  0.35756  0.20278  0.98509  1.0000
  C   C802      1.0  0.08630  0.32706  0.38886  1.0000
  C   C803      1.0  0.14272  0.18440  0.31116  1.0000
  C   C804      1.0  0.45860  0.23165  0.35315  1.0000
  H   H630      1.0  0.14622  0.24866  0.31705  1.0000
  H   H631      1.0  0.13918  0.28633  0.31678  1.0000
  H   H632      1.0  0.16429  0.30296  0.32666  1.0000
  H   H633      1.0  0.19568  0.28151  0.33900  1.0000
  H   H634      1.0  0.20197  0.24370  0.34145  1.0000
  C   C805      1.0  0.35480  0.25981  0.42009  1.0000
  S   S117      1.0  0.07672  0.37378  0.14693  1.0000
  C   C806      1.0  0.48180  0.34351  0.23474  1.0000
  C   C807      1.0  0.28872  0.25121  0.04203  1.0000
  H   H635      1.0  0.16791  0.35552  0.37633  1.0000
  H   H636      1.0  0.27476  0.29678  0.06015  1.0000
  C   C808      1.0  0.06616  0.33060  0.38465  1.0000
  H   H637      1.0  0.03018  0.33010  0.24172  1.0000
  H   H638      1.0  0.04467  0.29804  0.42551  1.0000
  H   H639      1.0  0.35908  0.19523  0.37622  1.0000
  H   H640      1.0  0.32845  0.25366  0.41034  1.0000
  C   C809      1.0  0.36504  0.20281  0.36092  1.0000
  C   C810      1.0  0.21281  0.19862  0.04901  1.0000
  H   H641      1.0  0.42519  0.19902  0.15043  1.0000
  H   H642      1.0  0.19584  0.25012  0.03412  1.0000
  C   C811      1.0  0.99935  0.34000  0.23472  1.0000
  C   C812      1.0  0.23403  0.22920  0.97740  1.0000
  H   H643      1.0  0.44235  0.26318  0.34957  1.0000
  C   C813      1.0  0.19851  0.36461  0.09916  1.0000
  H   H644      1.0  0.17008  0.36655  0.15517  1.0000
  C   C814      1.0  0.32535  0.35587  0.13327  1.0000
  H   H645      1.0  0.08210  0.19072  0.29024  1.0000
  C   C815      1.0  0.02091  0.33883  0.23047  1.0000
  H   H646      1.0  0.17461  0.23900  0.99652  1.0000
  H   H647      1.0  0.02633  0.36660  0.18195  1.0000
  C   C816      1.0  0.43231  0.24646  0.02796  1.0000
  P   P27       1.0  0.03518  0.35797  0.28567  1.0000
  Fe  Fe61      1.0  0.11900  0.37491  0.17882  1.0000
  C   C817      1.0  0.04170  0.33159  0.28115  1.0000
  C   C818      1.0  0.06248  0.32195  0.27677  1.0000
  C   C819      1.0  0.06730  0.30141  0.27367  1.0000
  C   C820      1.0  0.05150  0.29017  0.27551  1.0000
  C   C821      1.0  0.03079  0.29946  0.28043  1.0000
  C   C822      1.0  0.02590  0.32010  0.28325  1.0000
  C   C823      1.0  0.03611  0.33933  0.32662  1.0000
  C   C824      1.0  0.03014  0.33820  0.34786  1.0000
  C   C825      1.0  0.29016  0.27064  0.04550  1.0000
  C   C826      1.0  0.48382  0.22374  0.05706  1.0000
  C   C827      1.0  0.35973  0.23409  0.47126  1.0000
  H   H648      1.0  0.24071  0.24718  0.07017  1.0000
  H   H649      1.0  0.09955  0.36377  0.04269  1.0000
  C   C828      1.0  0.27831  0.19882  0.06338  1.0000
  H   H650      1.0  0.07499  0.33008  0.27618  1.0000
  H   H651      1.0  0.08331  0.29406  0.27027  1.0000
  H   H652      1.0  0.05539  0.27410  0.27369  1.0000
  H   H653      1.0  0.22224  0.19537  0.38724  1.0000
  C   C829      1.0  0.25138  0.28549  0.00624  1.0000
  H   H654      1.0  0.04537  0.32591  0.32077  1.0000
  H   H655      1.0  0.03443  0.32378  0.35800  1.0000
  H   H656      1.0  0.18301  0.21671  0.04397  1.0000
  H   H657      1.0  0.24645  0.28339  0.02277  1.0000
  H   H658      1.0  0.30949  0.19513  0.04575  1.0000
  H   H659      1.0  0.09393  0.33011  0.23329  1.0000
  H   H660      1.0  0.34552  0.27003  0.43035  1.0000
  C   C830      1.0  0.47352  0.25877  0.01866  1.0000
  C   C831      1.0  0.41602  0.26233  0.02252  1.0000
  H   H661      1.0  0.43750  0.36739  0.20313  1.0000
  C   C832      1.0  0.42844  0.28507  0.08558  1.0000
  C   C833      1.0  0.42618  0.30551  0.07512  1.0000
  C   C834      1.0  0.43218  0.30968  0.05378  1.0000
  H   H662      1.0  0.34364  0.19274  0.34703  1.0000
  H   H663      1.0  0.41560  0.27807  0.02425  1.0000
  C   C835      1.0  0.32507  0.23458  0.46488  1.0000
  H   H664      1.0  0.42419  0.28188  0.10220  1.0000
  H   H665      1.0  0.42007  0.31818  0.08357  1.0000
  H   H666      1.0  0.43077  0.32558  0.04579  1.0000
  H   H667      1.0  0.44495  0.29694  0.02631  1.0000
  C   C836      1.0  0.38819  0.24122  0.40638  1.0000
  H   H668      1.0  0.07139  0.34734  0.06488  1.0000
  C   C837      1.0  0.38957  0.22236  0.33750  1.0000
  C   C838      1.0  0.48086  0.24259  0.13078  1.0000
  C   C839      1.0  0.17872  0.36555  0.13982  1.0000
  H   H669      1.0  0.47740  0.30165  0.18889  1.0000
  C   C840      1.0  0.02074  0.21681  0.36241  1.0000
  C   C841      1.0  0.07508  0.36094  0.06862  1.0000
  C   C842      1.0  0.28712  0.23037  0.00329  1.0000
  H   H670      1.0  0.13226  0.32388  0.22631  1.0000
  C   C843      1.0  0.14122  0.26579  0.37612  1.0000
  C   C844      1.0  0.15970  0.25642  0.38319  1.0000
  C   C845      1.0  0.16608  0.26439  0.39785  1.0000
  C   C846      1.0  0.15349  0.28116  0.40610  1.0000
  C   C847      1.0  0.13435  0.28993  0.39985  1.0000
  C   C848      1.0  0.12846  0.28237  0.38451  1.0000
  P   P28       1.0  0.11726  0.30990  0.41247  1.0000
  C   C849      1.0  0.12629  0.33440  0.40406  1.0000
  H   H671      1.0  0.38688  0.22768  0.30545  1.0000
  C   C850      1.0  0.32986  0.33767  0.98286  1.0000
  C   C851      1.0  0.11266  0.35283  0.40759  1.0000
  H   H672      1.0  0.13633  0.25967  0.36466  1.0000
  H   H673      1.0  0.16892  0.24284  0.37747  1.0000
  H   H674      1.0  0.18052  0.25720  0.40318  1.0000
  H   H675      1.0  0.15843  0.28702  0.41771  1.0000
  H   H676      1.0  0.11381  0.28878  0.37938  1.0000
  C   C852      1.0  0.30555  0.24115  0.09834  1.0000
  H   H677      1.0  0.33697  0.25239  0.00906  1.0000
  H   H678      1.0  0.09699  0.35242  0.41586  1.0000
  H   H679      1.0  0.47597  0.31403  0.23143  1.0000
  Fe  Fe62      1.0  0.07784  0.36186  0.18056  1.0000
  C   C853      1.0  0.34763  0.21941  0.01523  1.0000
  H   H680      1.0  0.99199  0.24709  0.32759  1.0000
  H   H681      1.0  0.21732  0.34212  0.19970  1.0000
  H   H682      1.0  0.43953  0.27567  0.19893  1.0000
  C   C854      1.0  0.44027  0.29340  0.04284  1.0000
  S   S118      1.0  0.31329  0.18424  0.39212  1.0000
  C   C855      1.0  0.19203  0.18723  0.39843  1.0000
  C   C856      1.0  0.24081  0.21803  0.04408  1.0000
  C   C857      1.0  0.24773  0.20572  0.42920  1.0000
  H   H683      1.0  0.19450  0.36359  0.01427  1.0000
  C   C858      1.0  0.07632  0.30290  0.41979  1.0000
  C   C859      1.0  0.01515  0.25142  0.17177  1.0000
  C   C860      1.0  0.39817  0.18618  0.41590  1.0000
  C   C861      1.0  0.02652  0.25584  0.13470  1.0000
  C   C862      1.0  0.03465  0.27328  0.13514  1.0000
  C   C863      1.0  0.03342  0.27956  0.15388  1.0000
  C   C864      1.0  0.02394  0.26852  0.17214  1.0000
  H   H684      1.0  0.00979  0.32708  0.28699  1.0000
  H   H685      1.0  0.40475  0.23737  0.40613  1.0000
  C   C865      1.0  0.02590  0.21922  0.20453  1.0000
  C   C866      1.0  0.03595  0.22435  0.21851  1.0000
  C   C867      1.0  0.05315  0.21089  0.22520  1.0000
  H   H686      1.0  0.39724  0.26918  0.25625  1.0000
  C   C868      1.0  0.05095  0.18729  0.20347  1.0000
  C   C869      1.0  0.03379  0.20078  0.19670  1.0000
  H   H687      1.0  0.31291  0.35553  0.00604  1.0000
  H   H688      1.0  0.21038  0.35610  0.16452  1.0000
  H   H689      1.0  0.28265  0.24632  0.00548  1.0000
  C   C870      1.0  0.01247  0.37378  0.34260  1.0000
  H   H690      1.0  0.46830  0.28041  0.22315  1.0000
  P   P29       1.0  0.00392  0.23672  0.19557  1.0000
  H   H691      1.0  0.04215  0.28174  0.12099  1.0000
  H   H692      1.0  0.04006  0.29286  0.15429  1.0000
  H   H693      1.0  0.02358  0.27322  0.18658  1.0000
  H   H694      1.0  0.24335  0.24766  0.45186  1.0000
  C   C871      1.0  0.01917  0.21954  0.42959  1.0000
  H   H695      1.0  0.03014  0.23843  0.22468  1.0000
  C   C872      1.0  0.47884  0.30982  0.07620  1.0000
  C   C873      1.0  0.16885  0.19517  0.37365  1.0000
  H   H696      1.0  0.01416  0.18892  0.44460  1.0000
  H   H697      1.0  0.11584  0.26920  0.43841  1.0000
  H   H698      1.0  0.00314  0.29450  0.23602  1.0000
  H   H699      1.0  0.43269  0.21926  0.06725  1.0000
  H   H700      1.0  0.41908  0.29022  0.22930  1.0000
  H   H701      1.0  0.19358  0.25091  0.46115  1.0000
  H   H702      1.0  0.21081  0.36540  0.22539  1.0000
  C   C874      1.0  0.25453  0.25360  0.06297  1.0000
  C   C875      1.0  0.20695  0.36635  0.17566  1.0000
  H   H703      1.0  0.19212  0.26819  0.97839  1.0000
  C   C876      1.0  0.38189  0.21319  0.35763  1.0000
  H   H704      1.0  0.43662  0.20029  0.25616  1.0000
  C   C877      1.0  0.01883  0.35934  0.19670  1.0000
  C   C878      1.0  0.21118  0.35841  0.19554  1.0000
  C   C879      1.0  0.41573  0.22180  0.01835  1.0000
  C   C880      1.0  0.19124  0.23629  0.99137  1.0000
  C   C881      1.0  0.36412  0.21025  0.32439  1.0000
  S   S119      1.0  0.15328  0.37409  0.33414  1.0000
  C   C882      1.0  0.20212  0.37890  0.10979  1.0000
  C   C883      1.0  0.21643  0.19207  0.31711  1.0000
  C   C884      1.0  0.44999  0.36062  0.21166  1.0000
  H   H705      1.0  0.09781  0.33499  0.37817  1.0000
  H   H706      1.0  0.44493  0.21372  0.02866  1.0000
  C   C885      1.0  0.11585  0.30767  0.47398  1.0000
  C   C886      1.0  0.16819  0.24515  0.44974  1.0000
  H   H707      1.0  0.29548  0.21359  0.09578  1.0000
  C   C887      1.0  0.30554  0.21052  0.12474  1.0000
  H   H708      1.0  0.01448  0.23632  0.28361  1.0000
  C   C888      1.0  0.26591  0.19241  0.08224  1.0000
  C   C889      1.0  0.31327  0.35176  0.99115  1.0000
  H   H709      1.0  0.31568  0.35870  0.14773  1.0000
  C   C890      1.0  0.01034  0.23879  0.41965  1.0000
  C   C891      1.0  0.01825  0.37487  0.32130  1.0000
  C   C892      1.0  0.45705  0.19673  0.07889  1.0000
  C   C893      1.0  0.29941  0.18997  0.05988  1.0000
  H   H710      1.0  0.31803  0.21156  0.15136  1.0000
  H   H711      1.0  0.09275  0.24619  0.97736  1.0000
  H   H712      1.0  0.24408  0.18466  0.05258  1.0000
  H   H713      1.0  0.43151  0.21682  0.17739  1.0000
  H   H714      1.0  0.11490  0.19133  0.21379  1.0000
  C   C894      1.0  0.16003  0.23074  0.44304  1.0000
  C   C895      1.0  0.27037  0.24311  0.04974  1.0000
  C   C896      1.0  0.05624  0.30635  0.41544  1.0000
  H   H715      1.0  0.07985  0.29198  0.43337  1.0000
  C   C897      1.0  0.18721  0.23938  0.45659  1.0000
  H   H716      1.0  0.27465  0.30322  0.00643  1.0000
  C   C898      1.0  0.22410  0.21283  0.98841  1.0000
  C   C899      1.0  0.28647  0.19376  0.01487  1.0000
  H   H717      1.0  0.44665  0.18611  0.08683  1.0000
  S   S120      1.0  0.14213  0.37189  0.19979  1.0000
  C   C900      1.0  0.00720  0.20397  0.43721  1.0000
  H   H718      1.0  0.43782  0.25305  0.08307  1.0000
  C   C901      1.0  0.00945  0.23455  0.35219  1.0000
  H   H719      1.0  0.16208  0.33702  0.02577  1.0000
  C   C902      1.0  0.47553  0.36503  0.23107  1.0000
  C   C903      1.0  0.26353  0.24228  0.42374  1.0000
  H   H720      1.0  0.30881  0.24143  0.46656  1.0000
  H   H721      1.0  0.02666  0.21814  0.37565  1.0000
  C   C904      1.0  0.09123  0.37024  0.05611  1.0000
  H   H722      1.0  0.38318  0.24399  0.20770  1.0000
  C   C905      1.0  0.15825  0.36034  0.99891  1.0000
  C   C906      1.0  0.43038  0.26619  0.21097  1.0000
  C   C907      1.0  0.41879  0.27445  0.22804  1.0000
  C   C908      1.0  0.40647  0.26256  0.24323  1.0000
  C   C909      1.0  0.40569  0.24239  0.24136  1.0000
  C   C910      1.0  0.41753  0.23380  0.22439  1.0000
  C   C911      1.0  0.42976  0.24599  0.20909  1.0000
  P   P30       1.0  0.41470  0.20838  0.22146  1.0000
  C   C912      1.0  0.41027  0.19302  0.24703  1.0000
  C   C913      1.0  0.39300  0.21085  0.20861  1.0000
  H   H723      1.0  0.29959  0.36213  0.11680  1.0000
  H   H724      1.0  0.15659  0.37633  0.28719  1.0000
  C   C914      1.0  0.35900  0.21403  0.18920  1.0000
  C   C915      1.0  0.36315  0.23158  0.19453  1.0000
  C   C916      1.0  0.38010  0.23006  0.20414  1.0000
  C   C917      1.0  0.45675  0.21080  0.35952  1.0000
  H   H725      1.0  0.13312  0.36680  0.26822  1.0000
  H   H726      1.0  0.41795  0.21847  0.45420  1.0000
  H   H727      1.0  0.17498  0.18574  0.30683  1.0000
  C   C918      1.0  0.23363  0.19907  0.04890  1.0000
  C   C919      1.0  0.99793  0.30125  0.36177  1.0000
  C   C920      1.0  0.30511  0.20575  0.98111  1.0000
  C   C921      1.0  0.44093  0.24701  0.35464  1.0000
  C   C922      1.0  0.45960  0.19485  0.17230  1.0000
  C   C923      1.0  0.17089  0.21051  0.44321  1.0000
  H   H728      1.0  0.02778  0.37757  0.24388  1.0000
  H   H729      1.0  0.45375  0.18931  0.12246  1.0000
  C   C924      1.0  0.11545  0.27302  0.46922  1.0000
  H   H730      1.0  0.24975  0.19946  0.08551  1.0000
  H   H731      1.0  0.02782  0.25077  0.12019  1.0000
  H   H732      1.0  0.20566  0.36464  0.08317  1.0000
  H   H733      1.0  0.34225  0.33049  0.99142  1.0000
  H   H734      1.0  0.48321  0.37824  0.40678  1.0000
  C   C925      1.0  0.38879  0.19332  0.20311  1.0000
  S   S121      1.0  0.48622  0.38208  0.24139  1.0000
  C   C926      1.0  0.14892  0.38046  0.99151  1.0000
  H   H735      1.0  0.35897  0.18677  0.01629  1.0000
  H   H736      1.0  0.16807  0.35065  0.98839  1.0000
  C   C927      1.0  0.45953  0.37343  0.21951  1.0000
  C   C928      1.0  0.01190  0.36996  0.27521  1.0000
  C   C929      1.0  0.42756  0.18396  0.14616  1.0000
  H   H737      1.0  0.47371  0.23591  0.34697  1.0000
  H   H738      1.0  0.02649  0.19662  0.18565  1.0000
  C   C930      1.0  0.06410  0.36880  0.08615  1.0000
  C   C931      1.0  0.19274  0.37903  0.13042  1.0000
  C   C932      1.0  0.44445  0.21973  0.46688  1.0000
  C   C933      1.0  0.17289  0.18703  0.39350  1.0000
  C   C934      1.0  0.20766  0.37151  0.20995  1.0000
  C   C935      1.0  0.12280  0.19103  0.32142  1.0000
  H   H739      1.0  0.05191  0.36126  0.09605  1.0000
  C   C936      1.0  0.34581  0.23981  0.98106  1.0000
  H   H740      1.0  0.15389  0.19450  0.37050  1.0000
  H   H741      1.0  0.47088  0.36106  0.44185  1.0000
  C   C937      1.0  0.42351  0.19225  0.26090  1.0000
  C   C938      1.0  0.99026  0.25314  0.21393  1.0000
  C   C939      1.0  0.05855  0.19038  0.39261  1.0000
  S   S122      1.0  0.27729  0.37973  0.98971  1.0000
  H   H742      1.0  0.10955  0.18532  0.39556  1.0000
  C   C940      1.0  0.05611  0.37212  0.27364  1.0000
  H   H743      1.0  0.45230  0.33544  0.46852  1.0000
  H   H744      1.0  0.24166  0.19157  0.43097  1.0000
  C   C941      1.0  0.11895  0.37200  0.39991  1.0000
  C   C942      1.0  0.48664  0.27133  0.02150  1.0000
  C   C943      1.0  0.01301  0.37800  0.25413  1.0000
  C   C944      1.0  0.13890  0.37291  0.38876  1.0000
  C   C945      1.0  0.06697  0.36961  0.25384  1.0000
  H   H745      1.0  0.23770  0.37919  0.12639  1.0000
  C   C946      1.0  0.98939  0.24275  0.41786  1.0000
  H   H746      1.0  0.38244  0.18309  0.24371  1.0000
  H   H747      1.0  0.20728  0.18398  0.05287  1.0000
  Fe  Fe63      1.0  0.31961  0.18318  0.42412  1.0000
  C   C947      1.0  0.09584  0.18342  0.39051  1.0000
  C   C948      1.0  0.33846  0.24209  0.47408  1.0000
  Fe  Fe64      1.0  0.40272  0.27569  0.53219  1.0000
  S   S123      1.0  0.37701  0.28090  0.55881  1.0000
  S   S124      1.0  0.43602  0.27647  0.53440  1.0000
  Fe  Fe65      1.0  0.37475  0.26124  0.50813  1.0000
  S   S125      1.0  0.34710  0.26621  0.53314  1.0000
  Fe  Fe66      1.0  0.35782  0.29556  0.53435  1.0000
  S   S126      1.0  0.33389  0.32353  0.54146  1.0000
  Fe  Fe67      1.0  0.36860  0.25140  0.55560  1.0000
  S   S127      1.0  0.35684  0.22780  0.58227  1.0000
  S   S128      1.0  0.38407  0.29216  0.50742  1.0000
  S   S129      1.0  0.39565  0.24469  0.53085  1.0000
  H   H748      1.0  0.38929  0.21036  0.90357  1.0000
  C   C949      1.0  0.99130  0.27649  0.70090  1.0000
  C   C950      1.0  0.42454  0.19473  0.54276  1.0000
  C   C951      1.0  0.48175  0.28037  0.48934  1.0000
  Fe  Fe68      1.0  0.05613  0.19972  0.86769  1.0000
  S   S130      1.0  0.03425  0.22450  0.85087  1.0000
  S   S131      1.0  0.04509  0.19174  0.90151  1.0000
  H   H749      1.0  0.17468  0.29219  0.92106  1.0000
  S   S132      1.0  0.47222  0.34962  0.55324  1.0000
  Fe  Fe69      1.0  0.31110  0.28951  0.91009  1.0000
  S   S133      1.0  0.33262  0.31260  0.90046  1.0000
  S   S134      1.0  0.27783  0.29686  0.90543  1.0000
  Fe  Fe70      1.0  0.34352  0.25517  0.92863  1.0000
  S   S135      1.0  0.36777  0.27519  0.91936  1.0000
  S   S136      1.0  0.35273  0.22288  0.94596  1.0000
  Fe  Fe71      1.0  0.34258  0.29965  0.93108  1.0000
  S   S137      1.0  0.35123  0.31526  0.95348  1.0000
  Fe  Fe72      1.0  0.35563  0.28577  0.88982  1.0000
  S   S138      1.0  0.37632  0.28777  0.85900  1.0000
  S   S139      1.0  0.31871  0.27913  0.94200  1.0000
  S   S140      1.0  0.33356  0.26329  0.89767  1.0000
  C   C952      1.0  0.29828  0.35686  0.96040  1.0000
  C   C953      1.0  0.41376  0.27433  0.93573  1.0000
  H   H750      1.0  0.47018  0.27176  0.49900  1.0000
  C   C954      1.0  0.43613  0.18893  0.97122  1.0000
  H   H751      1.0  0.26731  0.29579  0.94699  1.0000
  S   S141      1.0  0.45470  0.35836  0.73363  1.0000
  S   S142      1.0  0.39975  0.36804  0.76674  1.0000
  Fe  Fe73      1.0  0.01824  0.36348  0.76340  1.0000
  C   C955      1.0  0.01452  0.34525  0.86918  1.0000
  C   C956      1.0  0.46888  0.29211  0.84501  1.0000
  Fe  Fe74      1.0  0.04480  0.32832  0.78692  1.0000
  S   S143      1.0  0.03852  0.34272  0.81522  1.0000
  S   S144      1.0  0.06719  0.29820  0.78613  1.0000
  H   H752      1.0  0.24753  0.37251  0.96347  1.0000
  H   H753      1.0  0.99878  0.28846  0.69044  1.0000
  Fe  Fe75      1.0  0.07876  0.18737  0.90458  1.0000
  H   H754      1.0  0.25727  0.21864  0.48207  1.0000
  S   S145      1.0  0.05246  0.35704  0.76481  1.0000
  C   C957      1.0  0.48281  0.29420  0.68520  1.0000
  H   H755      1.0  0.27622  0.22128  0.53611  1.0000
  C   C958      1.0  0.45033  0.19289  0.72656  1.0000
  C   C959      1.0  0.41809  0.22444  0.96786  1.0000
  C   C960      1.0  0.47933  0.23275  0.89869  1.0000
  H   H756      1.0  0.39469  0.20351  0.56097  1.0000
  C   C961      1.0  0.06749  0.27471  0.88286  1.0000
  C   C962      1.0  0.05009  0.19314  0.51931  1.0000
  C   C963      1.0  0.39019  0.35285  0.83397  1.0000
  C   C964      1.0  0.38202  0.34731  0.85479  1.0000
  C   C965      1.0  0.37774  0.32731  0.86259  1.0000
  C   C966      1.0  0.38167  0.31278  0.84953  1.0000
  C   C967      1.0  0.39008  0.31820  0.82875  1.0000
  C   C968      1.0  0.39432  0.33825  0.82097  1.0000
  H   H757      1.0  0.37893  0.35856  0.86483  1.0000
  H   H758      1.0  0.37176  0.32306  0.87874  1.0000
  H   H759      1.0  0.39333  0.30692  0.81866  1.0000
  H   H760      1.0  0.40106  0.34223  0.80502  1.0000
  C   C969      1.0  0.27046  0.31511  0.88429  1.0000
  C   C970      1.0  0.24932  0.32130  0.88327  1.0000
  C   C971      1.0  0.24280  0.33638  0.86701  1.0000
  C   C972      1.0  0.25745  0.34481  0.85130  1.0000
  C   C973      1.0  0.27861  0.33860  0.85225  1.0000
  C   C974      1.0  0.28511  0.32381  0.86880  1.0000
  H   H761      1.0  0.23792  0.31463  0.89528  1.0000
  H   H762      1.0  0.22646  0.34123  0.86648  1.0000
  H   H763      1.0  0.28998  0.34519  0.84016  1.0000
  H   H764      1.0  0.30145  0.31884  0.86937  1.0000
  C   C975      1.0  0.33717  0.34430  0.69713  1.0000
  C   C976      1.0  0.22367  0.22454  0.48693  1.0000
  C   C977      1.0  0.46587  0.35187  0.48523  1.0000
  H   H765      1.0  0.41876  0.30184  0.88517  1.0000
  H   H766      1.0  0.27875  0.25259  0.95622  1.0000
  C   C978      1.0  0.44150  0.32828  0.65401  1.0000
  C   C979      1.0  0.12015  0.34804  0.86848  1.0000
  S   S146      1.0  0.10627  0.33799  0.95825  1.0000
  H   H767      1.0  0.48095  0.31063  0.68532  1.0000
  C   C980      1.0  0.07812  0.25674  0.89360  1.0000
  C   C981      1.0  0.45770  0.36210  0.70665  1.0000
  H   H768      1.0  0.12658  0.19843  0.92810  1.0000
  H   H769      1.0  0.25979  0.36450  0.74686  1.0000
  H   H770      1.0  0.42681  0.37901  0.70537  1.0000
  S   S147      1.0  0.14841  0.29221  0.97374  1.0000
  H   H771      1.0  0.40384  0.23551  0.96672  1.0000
  H   H772      1.0  0.42877  0.29424  0.69762  1.0000
  H   H773      1.0  0.07736  0.32027  0.94086  1.0000
  S   S148      1.0  0.00171  0.37809  0.73635  1.0000
  H   H774      1.0  0.40874  0.18785  0.47969  1.0000
  C   C982      1.0  0.12591  0.35139  0.94369  1.0000
  H   H775      1.0  0.47127  0.27688  0.55248  1.0000
  C   C983      1.0  0.28925  0.19621  0.55815  1.0000
  H   H776      1.0  0.41556  0.19972  0.92639  1.0000
  C   C984      1.0  0.35920  0.19852  0.54009  1.0000
  C   C985      1.0  0.34021  0.33887  0.67757  1.0000
  H   H777      1.0  0.13886  0.38110  0.89676  1.0000
  C   C986      1.0  0.04393  0.24471  0.83298  1.0000
  C   C987      1.0  0.02992  0.26218  0.82614  1.0000
  C   C988      1.0  0.03701  0.27880  0.81204  1.0000
  C   C989      1.0  0.05813  0.27760  0.80401  1.0000
  C   C990      1.0  0.07211  0.25971  0.81012  1.0000
  C   C991      1.0  0.06508  0.24341  0.82494  1.0000
  H   H778      1.0  0.01352  0.26288  0.83185  1.0000
  H   H779      1.0  0.02607  0.29237  0.80719  1.0000
  H   H780      1.0  0.08842  0.25864  0.80367  1.0000
  H   H781      1.0  0.07592  0.22980  0.82998  1.0000
  C   C992      1.0  0.08825  0.22829  0.95589  1.0000
  H   H782      1.0  0.28647  0.36478  0.95142  1.0000
  H   H783      1.0  0.00677  0.27687  0.72552  1.0000
  C   C993      1.0  0.26540  0.24612  0.90520  1.0000
  H   H784      1.0  0.01982  0.24780  0.78844  1.0000
  C   C994      1.0  0.06246  0.23254  0.75442  1.0000
  C   C995      1.0  0.37224  0.21513  0.60088  1.0000
  C   C996      1.0  0.39160  0.22002  0.60064  1.0000
  C   C997      1.0  0.40352  0.20910  0.61567  1.0000
  C   C998      1.0  0.39612  0.19325  0.63079  1.0000
  H   H785      1.0  0.38847  0.24357  0.87895  1.0000
  C   C999      1.0  0.36479  0.19953  0.61621  1.0000
  H   H786      1.0  0.39745  0.23206  0.58884  1.0000
  H   H787      1.0  0.41854  0.21277  0.61543  1.0000
  C   C1000     1.0  0.24310  0.22602  0.49071  1.0000
  C   C1001     1.0  0.29012  0.24085  0.92808  1.0000
  C   C1002     1.0  0.44488  0.29691  0.54106  1.0000
  C   C1003     1.0  0.46313  0.29256  0.54953  1.0000
  C   C1004     1.0  0.47119  0.30845  0.55414  1.0000
  C   C1005     1.0  0.46127  0.32898  0.54996  1.0000
  C   C1006     1.0  0.44290  0.33337  0.54175  1.0000
  C   C1007     1.0  0.43483  0.31746  0.53712  1.0000
  H   H788      1.0  0.25862  0.37507  0.78027  1.0000
  H   H789      1.0  0.41715  0.19840  0.72912  1.0000
  H   H790      1.0  0.43486  0.34914  0.53894  1.0000
  H   H791      1.0  0.42101  0.32116  0.53025  1.0000
  H   H792      1.0  0.00126  0.31328  0.84050  1.0000
  H   H793      1.0  0.41638  0.35277  0.47907  1.0000
  P   P31       1.0  0.42618  0.28598  0.62684  1.0000
  C   C1008     1.0  0.34275  0.34508  0.54547  1.0000
  C   C1009     1.0  0.36246  0.34927  0.53604  1.0000
  H   H794      1.0  0.00641  0.33472  0.73097  1.0000
  H   H795      1.0  0.06237  0.22566  0.72471  1.0000
  H   H796      1.0  0.37275  0.33885  0.52660  1.0000
  C   C1010     1.0  0.02341  0.27736  0.90122  1.0000
  C   C1011     1.0  0.05032  0.23867  0.77233  1.0000
  C   C1012     1.0  0.46373  0.37084  0.66341  1.0000
  C   C1013     1.0  0.46879  0.21560  0.69919  1.0000
  H   H797      1.0  0.41653  0.22830  0.70029  1.0000
  C   C1014     1.0  0.35238  0.22187  0.97236  1.0000
  H   H798      1.0  0.05255  0.26519  0.96958  1.0000
  C   C1015     1.0  0.03134  0.23379  0.74098  1.0000
  C   C1016     1.0  0.36184  0.36238  0.90934  1.0000
  C   C1017     1.0  0.02872  0.24273  0.77449  1.0000
  H   H799      1.0  0.34974  0.19585  0.61659  1.0000
  H   H800      1.0  0.17667  0.32960  0.91512  1.0000
  C   C1018     1.0  0.20293  0.32470  0.93036  1.0000
  C   C1019     1.0  0.30315  0.19033  0.57216  1.0000
  C   C1020     1.0  0.40902  0.19243  0.56004  1.0000
  C   C1021     1.0  0.38730  0.33827  0.60515  1.0000
  H   H801      1.0  0.46630  0.30902  0.49884  1.0000
  C   C1022     1.0  0.39906  0.32312  0.61767  1.0000
  C   C1023     1.0  0.43880  0.31745  0.63951  1.0000
  C   C1024     1.0  0.17474  0.31349  0.86954  1.0000
  C   C1025     1.0  0.41104  0.30543  0.61030  1.0000
  C   C1026     1.0  0.01903  0.24060  0.75868  1.0000
  H   H802      1.0  0.25944  0.23920  0.50752  1.0000
  C   C1027     1.0  0.48731  0.26789  0.60254  1.0000
  C   C1028     1.0  0.20351  0.32124  0.84242  1.0000
  H   H803      1.0  0.33865  0.36568  0.87803  1.0000
  H   H804      1.0  0.32471  0.30233  0.69839  1.0000
  H   H805      1.0  0.20009  0.26638  0.93864  1.0000
  H   H806      1.0  0.19048  0.23116  0.49752  1.0000
  C   C1029     1.0  0.21703  0.19249  0.53867  1.0000
  C   C1030     1.0  0.44903  0.25823  0.60140  1.0000
  H   H807      1.0  0.47851  0.26517  0.86643  1.0000
  C   C1031     1.0  0.37419  0.33673  0.69661  1.0000
  C   C1032     1.0  0.20560  0.23332  0.49908  1.0000
  H   H808      1.0  0.41826  0.35875  0.61462  1.0000
  C   C1033     1.0  0.27210  0.36484  0.77374  1.0000
  C   C1034     1.0  0.43302  0.29907  0.87427  1.0000
  S   S149      1.0  0.24953  0.36243  0.83001  1.0000
  H   H809      1.0  0.43990  0.32856  0.68610  1.0000
  C   C1035     1.0  0.31383  0.20481  0.57543  1.0000
  C   C1036     1.0  0.22634  0.24720  0.51649  1.0000
  H   H810      1.0  0.30543  0.23842  0.97344  1.0000
  H   H811      1.0  0.02431  0.23163  0.72871  1.0000
  H   H812      1.0  0.44647  0.34316  0.64892  1.0000
  H   H813      1.0  0.44165  0.32419  0.62332  1.0000
  C   C1037     1.0  0.38982  0.26904  0.63992  1.0000
  S   S150      1.0  0.08117  0.20533  0.92945  1.0000
  S   S151      1.0  0.01132  0.33380  0.78341  1.0000
  C   C1038     1.0  0.46733  0.24744  0.59154  1.0000
  H   H814      1.0  0.35458  0.21499  0.51020  1.0000
  C   C1039     1.0  0.46907  0.27853  0.61265  1.0000
  C   C1040     1.0  0.42843  0.28996  0.66690  1.0000
  H   H815      1.0  0.41900  0.28921  0.58432  1.0000
  C   C1041     1.0  0.06278  0.30767  0.92179  1.0000
  H   H816      1.0  0.23480  0.26154  0.91559  1.0000
  H   H817      1.0  0.06026  0.20416  0.51178  1.0000
  C   C1042     1.0  0.37668  0.18868  0.63113  1.0000
  H   H818      1.0  0.28498  0.30950  0.96848  1.0000
  C   C1043     1.0  0.28610  0.37270  0.88695  1.0000
  C   C1044     1.0  0.21765  0.21399  0.56305  1.0000
  C   C1045     1.0  0.23862  0.20582  0.56314  1.0000
  H   H819      1.0  0.00403  0.24331  0.88258  1.0000
  H   H820      1.0  0.43438  0.25408  0.60091  1.0000
  C   C1046     1.0  0.38201  0.38266  0.68454  1.0000
  H   H821      1.0  0.26211  0.34098  0.94841  1.0000
  H   H822      1.0  0.42200  0.20746  0.53028  1.0000
  H   H823      1.0  0.11570  0.31834  0.48404  1.0000
  C   C1047     1.0  0.15763  0.37240  0.92037  1.0000
  H   H824      1.0  0.39722  0.31558  0.56289  1.0000
  C   C1048     1.0  0.46155  0.36657  0.49822  1.0000
  C   C1049     1.0  0.21712  0.31016  0.94087  1.0000
  C   C1050     1.0  0.32953  0.35872  0.55770  1.0000
  H   H825      1.0  0.00683  0.29343  0.92607  1.0000
  H   H826      1.0  0.19044  0.21312  0.55119  1.0000
  H   H827      1.0  0.20964  0.22528  0.57266  1.0000
  H   H828      1.0  0.24661  0.21081  0.57311  1.0000
  C   C1051     1.0  0.09752  0.21470  0.94193  1.0000
  Fe  Fe76      1.0  0.21809  0.38186  0.83781  1.0000
  C   C1052     1.0  0.05296  0.23014  0.73873  1.0000
  C   C1053     1.0  0.20111  0.28262  0.93641  1.0000
  H   H829      1.0  0.29547  0.24664  0.54184  1.0000
  C   C1054     1.0  0.03043  0.35654  0.86030  1.0000
  H   H830      1.0  0.09843  0.34128  0.84148  1.0000
  C   C1055     1.0  0.24663  0.35142  0.92226  1.0000
  C   C1056     1.0  0.43168  0.27952  0.92230  1.0000
  C   C1057     1.0  0.22249  0.24916  0.97284  1.0000
  H   H831      1.0  0.16936  0.30727  0.88540  1.0000
  C   C1058     1.0  0.02246  0.26314  0.88901  1.0000
  C   C1059     1.0  0.33038  0.33280  0.96359  1.0000
  C   C1060     1.0  0.43148  0.20336  0.72088  1.0000
  P   P32       1.0  0.23502  0.26988  0.95698  1.0000
  C   C1061     1.0  0.30040  0.32571  0.68650  1.0000
  H   H832      1.0  0.24895  0.32868  0.70693  1.0000
  H   H833      1.0  0.19295  0.25189  0.52271  1.0000
  H   H834      1.0  0.35700  0.21254  0.54639  1.0000
  H   H835      1.0  0.47301  0.26864  0.92955  1.0000
  H   H836      1.0  0.47104  0.24578  0.54580  1.0000
  C   C1062     1.0  0.26276  0.29280  0.96350  1.0000
  C   C1063     1.0  0.44973  0.27385  0.61213  1.0000
  C   C1064     1.0  0.05260  0.29180  0.92050  1.0000
  H   H837      1.0  0.20671  0.30708  0.87360  1.0000
  H   H838      1.0  0.40926  0.37960  0.50111  1.0000
  C   C1065     1.0  0.40048  0.37343  0.89161  1.0000
  P   P33       1.0  0.46349  0.18507  0.51947  1.0000
  C   C1066     1.0  0.32599  0.32504  0.64468  1.0000
  C   C1067     1.0  0.10023  0.23594  0.96655  1.0000
  C   C1068     1.0  0.45351  0.30932  0.84095  1.0000
  C   C1069     1.0  0.42322  0.37404  0.58300  1.0000
  H   H839      1.0  0.06439  0.29249  0.85246  1.0000
  H   H840      1.0  0.26180  0.24468  0.89073  1.0000
  H   H841      1.0  0.07369  0.37238  0.89139  1.0000
  C   C1070     1.0  0.12410  0.36245  0.92387  1.0000
  C   C1071     1.0  0.46640  0.27837  0.86374  1.0000
  H   H842      1.0  0.33426  0.35196  0.62273  1.0000
  C   C1072     1.0  0.48383  0.21042  0.65163  1.0000
  H   H843      1.0  0.31500  0.20253  0.96681  1.0000
  C   C1073     1.0  0.44843  0.28174  0.87854  1.0000
  H   H844      1.0  0.41320  0.34160  0.90222  1.0000
  C   C1074     1.0  0.30892  0.38176  0.66431  1.0000
  C   C1075     1.0  0.12113  0.37306  0.80100  1.0000
  P   P34       1.0  0.04561  0.29011  0.89644  1.0000
  H   H845      1.0  0.45205  0.30221  0.91272  1.0000
  Fe  Fe77      1.0  0.42818  0.38023  0.74879  1.0000
  C   C1076     1.0  0.47963  0.35866  0.67336  1.0000
  H   H846      1.0  0.33245  0.25456  0.48275  1.0000
  H   H847      1.0  0.11473  0.28123  0.49852  1.0000
  H   H848      1.0  0.40089  0.31507  0.96129  1.0000
  H   H849      1.0  0.36231  0.25516  0.64888  1.0000
  C   C1077     1.0  0.30543  0.36465  0.65742  1.0000
  C   C1078     1.0  0.29743  0.23094  0.55039  1.0000
  H   H850      1.0  0.21993  0.32159  0.83740  1.0000
  C   C1079     1.0  0.42905  0.35685  0.48414  1.0000
  H   H851      1.0  0.05766  0.24071  0.78443  1.0000
  H   H852      1.0  0.27236  0.34623  0.67879  1.0000
  H   H853      1.0  0.31496  0.33864  0.93741  1.0000
  H   H854      1.0  0.37781  0.34737  0.57562  1.0000
  H   H855      1.0  0.99164  0.27910  0.85675  1.0000
  H   H856      1.0  0.40771  0.26084  0.93499  1.0000
  C   C1080     1.0  0.23336  0.36744  0.91213  1.0000
  C   C1081     1.0  0.43117  0.22017  0.70462  1.0000
  H   H857      1.0  0.46673  0.23514  0.58363  1.0000
  C   C1082     1.0  0.03968  0.31589  0.88166  1.0000
  C   C1083     1.0  0.27487  0.25069  0.94213  1.0000
  H   H858      1.0  0.99993  0.18734  0.52565  1.0000
  H   H859      1.0  0.02300  0.21248  0.50895  1.0000
  H   H860      1.0  0.20348  0.34105  0.92807  1.0000
  H   H861      1.0  0.07357  0.25206  0.91003  1.0000
  H   H862      1.0  0.09553  0.36418  0.79199  1.0000
  C   C1084     1.0  0.09458  0.24422  0.88316  1.0000
  H   H863      1.0  0.37860  0.35217  0.61075  1.0000
  C   C1085     1.0  0.47947  0.30164  0.48902  1.0000
  C   C1086     1.0  0.99327  0.34380  0.72434  1.0000
  C   C1087     1.0  0.46777  0.21949  0.53433  1.0000
  H   H864      1.0  0.22945  0.36596  0.89777  1.0000
  H   H865      1.0  0.37900  0.33197  0.91851  1.0000
  H   H866      1.0  0.02694  0.37203  0.85165  1.0000
  S   S152      1.0  0.37781  0.24425  0.48079  1.0000
  H   H867      1.0  0.99866  0.35200  0.86742  1.0000
  C   C1088     1.0  0.00646  0.28235  0.91664  1.0000
  H   H868      1.0  0.06606  0.31960  0.90878  1.0000
  C   C1089     1.0  0.05099  0.34743  0.86154  1.0000
  C   C1090     1.0  0.48645  0.25239  0.59195  1.0000
  C   C1091     1.0  0.47661  0.35431  0.69500  1.0000
  S   S153      1.0  0.39527  0.37802  0.82471  1.0000
  C   C1092     1.0  0.16075  0.32194  0.85584  1.0000
  H   H869      1.0  0.27361  0.36634  0.88404  1.0000
  C   C1093     1.0  0.43852  0.29765  0.92325  1.0000
  C   C1094     1.0  0.01908  0.32504  0.87985  1.0000
  H   H870      1.0  0.06328  0.35607  0.85397  1.0000
  C   C1095     1.0  0.42765  0.31026  0.93748  1.0000
  C   C1096     1.0  0.28868  0.35744  0.78440  1.0000
  H   H871      1.0  0.44931  0.23950  0.68143  1.0000
  H   H872      1.0  0.39890  0.32549  0.63302  1.0000
  P   P35       1.0  0.13316  0.32250  0.86404  1.0000
  C   C1097     1.0  0.12828  0.30522  0.88827  1.0000
  C   C1098     1.0  0.12380  0.31527  0.84380  1.0000
  C   C1099     1.0  0.13459  0.29793  0.83515  1.0000
  C   C1100     1.0  0.12812  0.29271  0.81880  1.0000
  C   C1101     1.0  0.11075  0.30466  0.81110  1.0000
  C   C1102     1.0  0.09986  0.32184  0.81971  1.0000
  C   C1103     1.0  0.10652  0.32734  0.83578  1.0000
  C   C1104     1.0  0.12966  0.31148  0.90643  1.0000
  C   C1105     1.0  0.12574  0.29861  0.92540  1.0000
  C   C1106     1.0  0.12047  0.27936  0.92649  1.0000
  C   C1107     1.0  0.11903  0.27293  0.90856  1.0000
  C   C1108     1.0  0.12277  0.28586  0.88944  1.0000
  H   H873      1.0  0.30568  0.23525  0.93141  1.0000
  C   C1109     1.0  0.36852  0.36743  0.53816  1.0000
  H   H874      1.0  0.09233  0.33749  0.88615  1.0000
  H   H875      1.0  0.14816  0.28861  0.84089  1.0000
  H   H876      1.0  0.13655  0.27940  0.81208  1.0000
  H   H877      1.0  0.10565  0.30062  0.79847  1.0000
  H   H878      1.0  0.08645  0.33111  0.81362  1.0000
  H   H879      1.0  0.38871  0.28321  0.95976  1.0000
  H   H880      1.0  0.13384  0.32634  0.90596  1.0000
  H   H881      1.0  0.12671  0.30361  0.93932  1.0000
  H   H882      1.0  0.11748  0.26948  0.94130  1.0000
  H   H883      1.0  0.11504  0.25786  0.90963  1.0000
  H   H884      1.0  0.12130  0.28067  0.87579  1.0000
  H   H885      1.0  0.07921  0.22992  0.75268  1.0000
  C   C1110     1.0  0.44459  0.37774  0.67508  1.0000
  C   C1111     1.0  0.04913  0.19230  0.81312  1.0000
  P   P36       1.0  0.99113  0.24704  0.76074  1.0000
  S   S154      1.0  0.09391  0.22223  0.48386  1.0000
  C   C1112     1.0  0.14356  0.35093  0.95180  1.0000
  C   C1113     1.0  0.43139  0.30076  0.68139  1.0000
  H   H886      1.0  0.47775  0.24869  0.71765  1.0000
  C   C1114     1.0  0.04901  0.27643  0.93791  1.0000
  C   C1115     1.0  0.46970  0.24975  0.90841  1.0000
  C   C1116     1.0  0.43194  0.29836  0.64582  1.0000
  C   C1117     1.0  0.47836  0.23479  0.53578  1.0000
  C   C1118     1.0  0.41026  0.30275  0.59043  1.0000
  H   H887      1.0  0.41542  0.37768  0.88454  1.0000
  H   H888      1.0  0.04745  0.20852  0.81392  1.0000
  H   H889      1.0  0.47028  0.29015  0.62101  1.0000
  C   C1119     1.0  0.44941  0.34694  0.47835  1.0000
  C   C1120     1.0  0.41137  0.26578  0.63910  1.0000
  S   S155      1.0  0.08946  0.19699  0.87041  1.0000
  H   H890      1.0  0.13237  0.36042  0.79550  1.0000
  C   C1121     1.0  0.45078  0.19414  0.49728  1.0000
  C   C1122     1.0  0.42157  0.24642  0.64782  1.0000
  C   C1123     1.0  0.40007  0.23882  0.88886  1.0000
  C   C1124     1.0  0.40059  0.22010  0.90266  1.0000
  C   C1125     1.0  0.41536  0.21416  0.91559  1.0000
  C   C1126     1.0  0.42941  0.22713  0.91497  1.0000
  C   C1127     1.0  0.42880  0.24614  0.90132  1.0000
  C   C1128     1.0  0.41404  0.25185  0.88822  1.0000
  H   H891      1.0  0.08242  0.18693  0.80948  1.0000
  C   C1129     1.0  0.47990  0.25559  0.92190  1.0000
  S   S156      1.0  0.14950  0.19334  0.49262  1.0000
  C   C1130     1.0  0.11534  0.28678  0.48215  1.0000
  H   H892      1.0  0.44039  0.22254  0.92547  1.0000
  H   H893      1.0  0.41285  0.26652  0.87779  1.0000
  H   H894      1.0  0.04183  0.26360  0.93723  1.0000
  C   C1131     1.0  0.02910  0.19778  0.51771  1.0000
  C   C1132     1.0  0.45457  0.19539  0.97192  1.0000
  C   C1133     1.0  0.26552  0.32301  0.70504  1.0000
  C   C1134     1.0  0.29477  0.29840  0.71611  1.0000
  C   C1135     1.0  0.27343  0.30579  0.71860  1.0000
  H   H895      1.0  0.07157  0.23265  0.95868  1.0000
  S   S157      1.0  0.18853  0.37025  0.85218  1.0000
  H   H896      1.0  0.38159  0.28375  0.63317  1.0000
  C   C1136     1.0  0.30666  0.36420  0.88009  1.0000
  S   S158      1.0  0.46723  0.37843  0.63655  1.0000
  C   C1137     1.0  0.39801  0.31774  0.57813  1.0000
  C   C1138     1.0  0.32513  0.30389  0.64715  1.0000
  C   C1139     1.0  0.33103  0.29370  0.63018  1.0000
  C   C1140     1.0  0.33777  0.30454  0.61066  1.0000
  C   C1141     1.0  0.33874  0.32552  0.60812  1.0000
  C   C1142     1.0  0.33313  0.33571  0.62504  1.0000
  C   C1143     1.0  0.09987  0.35071  0.87966  1.0000
  H   H897      1.0  0.42108  0.36107  0.57691  1.0000
  H   H898      1.0  0.43822  0.24348  0.64706  1.0000
  H   H899      1.0  0.38738  0.33660  0.70360  1.0000
  C   C1144     1.0  0.28541  0.23866  0.90954  1.0000
  H   H900      1.0  0.26302  0.29813  0.73099  1.0000
  C   C1145     1.0  0.33104  0.37484  0.78803  1.0000
  H   H901      1.0  0.31979  0.29522  0.66206  1.0000
  H   H902      1.0  0.33019  0.27744  0.63202  1.0000
  H   H903      1.0  0.34213  0.29675  0.59743  1.0000
  H   H904      1.0  0.34379  0.33389  0.59293  1.0000
  C   C1146     1.0  0.45608  0.21124  0.48254  1.0000
  C   C1147     1.0  0.38689  0.33562  0.58533  1.0000
  C   C1148     1.0  0.99551  0.27010  0.72093  1.0000
  H   H905      1.0  0.41847  0.21529  0.66298  1.0000
  C   C1149     1.0  0.38161  0.32894  0.74979  1.0000
  C   C1150     1.0  0.38565  0.30805  0.74803  1.0000
  C   C1151     1.0  0.37181  0.29506  0.75908  1.0000
  C   C1152     1.0  0.35403  0.30292  0.77208  1.0000
  C   C1153     1.0  0.35011  0.32381  0.77432  1.0000
  C   C1154     1.0  0.36384  0.33685  0.76274  1.0000
  P   P37       1.0  0.32694  0.33393  0.79091  1.0000
  C   C1155     1.0  0.30601  0.34378  0.77649  1.0000
  C   C1156     1.0  0.32005  0.31349  0.81192  1.0000
  C   C1157     1.0  0.29954  0.30983  0.81762  1.0000
  C   C1158     1.0  0.29435  0.29421  0.83411  1.0000
  C   C1159     1.0  0.30954  0.28213  0.84503  1.0000
  C   C1160     1.0  0.33002  0.28539  0.83922  1.0000
  C   C1161     1.0  0.33530  0.30096  0.82272  1.0000
  C   C1162     1.0  0.20696  0.24496  0.51352  1.0000
  C   C1163     1.0  0.44973  0.22639  0.69393  1.0000
  H   H906      1.0  0.46879  0.22205  0.96988  1.0000
  H   H907      1.0  0.30529  0.19251  0.51768  1.0000
  C   C1164     1.0  0.30663  0.33780  0.75761  1.0000
  C   C1165     1.0  0.33171  0.35529  0.80067  1.0000
  H   H908      1.0  0.29734  0.23142  0.89846  1.0000
  C   C1166     1.0  0.18778  0.31824  0.92302  1.0000
  H   H909      1.0  0.47316  0.28621  0.71789  1.0000
  C   C1167     1.0  0.15914  0.36179  0.94037  1.0000
  C   C1168     1.0  0.33628  0.35278  0.82051  1.0000
  H   H910      1.0  0.39230  0.33907  0.74119  1.0000
  H   H911      1.0  0.39955  0.30195  0.73814  1.0000
  H   H912      1.0  0.37495  0.27884  0.75774  1.0000
  H   H913      1.0  0.34346  0.29263  0.78051  1.0000
  H   H914      1.0  0.36105  0.35312  0.76369  1.0000
  H   H915      1.0  0.28732  0.31936  0.80989  1.0000
  H   H916      1.0  0.27836  0.29207  0.83898  1.0000
  H   H917      1.0  0.30535  0.27056  0.85828  1.0000
  H   H918      1.0  0.34179  0.27610  0.84776  1.0000
  H   H919      1.0  0.35124  0.30347  0.81871  1.0000
  H   H920      1.0  0.14540  0.36379  0.85210  1.0000
  H   H921      1.0  0.31998  0.37991  0.67440  1.0000
  H   H922      1.0  0.47803  0.19918  0.62596  1.0000
  H   H923      1.0  0.28781  0.36213  0.79903  1.0000
  H   H924      1.0  0.31981  0.32728  0.75120  1.0000
  C   C1169     1.0  0.43648  0.23108  0.96801  1.0000
  Fe  Fe78      1.0  0.11519  0.19446  0.49783  1.0000
  C   C1170     1.0  0.31090  0.22511  0.56461  1.0000
  C   C1171     1.0  0.29002  0.34533  0.74692  1.0000
  H   H925      1.0  0.33710  0.33797  0.83070  1.0000
  H   H926      1.0  0.45530  0.31990  0.82639  1.0000
  H   H927      1.0  0.34705  0.35783  0.91657  1.0000
  C   C1172     1.0  0.01606  0.18344  0.52727  1.0000
  C   C1173     1.0  0.05524  0.27714  0.95625  1.0000
  C   C1174     1.0  0.10018  0.37508  0.79909  1.0000
  C   C1175     1.0  0.12180  0.22976  0.96372  1.0000
  H   H928      1.0  0.38069  0.22091  0.66376  1.0000
  H   H929      1.0  0.22849  0.31553  0.94669  1.0000
  H   H930      1.0  0.31012  0.35132  0.87190  1.0000
  C   C1176     1.0  0.25008  0.25580  0.91938  1.0000
  H   H931      1.0  0.48320  0.19032  0.72056  1.0000
  C   C1177     1.0  0.46893  0.19886  0.71572  1.0000
  H   H932      1.0  0.11044  0.36287  0.91758  1.0000
  H   H933      1.0  0.00804  0.20531  0.78154  1.0000
  H   H934      1.0  0.42318  0.27527  0.67223  1.0000
  H   H935      1.0  0.32785  0.37704  0.77259  1.0000
  H   H936      1.0  0.22737  0.25611  0.52778  1.0000
  H   H937      1.0  0.25313  0.33751  0.91586  1.0000
  C   C1178     1.0  0.24886  0.19058  0.55128  1.0000
  H   H938      1.0  0.20850  0.18714  0.52945  1.0000
  C   C1179     1.0  0.33595  0.37643  0.56053  1.0000
  H   H939      1.0  0.48539  0.30484  0.56039  1.0000
  H   H940      1.0  0.07065  0.29324  0.97135  1.0000
  C   C1180     1.0  0.43770  0.32004  0.67495  1.0000
  C   C1181     1.0  0.37877  0.25292  0.64893  1.0000
  C   C1182     1.0  0.38908  0.23364  0.65740  1.0000
  C   C1183     1.0  0.41044  0.23045  0.65693  1.0000
  C   C1184     1.0  0.05564  0.32710  0.87195  1.0000
  C   C1185     1.0  0.10046  0.24942  0.86189  1.0000
  H   H941      1.0  0.29044  0.34057  0.73245  1.0000
  H   H942      1.0  0.45241  0.21921  0.54331  1.0000
  C   C1186     1.0  0.11914  0.20890  0.93870  1.0000
  C   C1187     1.0  0.40977  0.30500  0.95070  1.0000
  C   C1188     1.0  0.14013  0.37268  0.91206  1.0000
  H   H943      1.0  0.39299  0.32740  0.66907  1.0000
  C   C1189     1.0  0.08930  0.37045  0.88268  1.0000
  C   C1190     1.0  0.47847  0.28042  0.70352  1.0000
  H   H944      1.0  0.25061  0.22614  0.97220  1.0000
  H   H945      1.0  0.31426  0.35555  0.56499  1.0000
  C   C1191     1.0  0.00481  0.25408  0.89222  1.0000
  H   H946      1.0  0.19535  0.33658  0.81305  1.0000
  H   H947      1.0  0.48268  0.28937  0.83356  1.0000
  C   C1192     1.0  0.45469  0.21663  0.96992  1.0000
  C   C1193     1.0  0.27275  0.35880  0.75500  1.0000
  P   P38       1.0  0.31810  0.33863  0.66630  1.0000
  C   C1194     1.0  0.35410  0.34330  0.70656  1.0000
  C   C1195     1.0  0.37996  0.34767  0.91063  1.0000
  H   H948      1.0  0.32456  0.20035  0.58626  1.0000
  C   C1196     1.0  0.24440  0.23756  0.50522  1.0000
  C   C1197     1.0  0.28659  0.21657  0.54719  1.0000
  C   C1198     1.0  0.42502  0.37193  0.49661  1.0000
  H   H949      1.0  0.31919  0.23633  0.56715  1.0000
  H   H950      1.0  0.11298  0.23949  0.85377  1.0000
  C   C1199     1.0  0.37736  0.33156  0.67708  1.0000
  C   C1200     1.0  0.27891  0.33292  0.68901  1.0000
  H   H951      1.0  0.36324  0.32873  0.65236  1.0000
  Fe  Fe79      1.0  0.00577  0.35130  0.80948  1.0000
  P   P39       1.0  0.44482  0.26415  0.90282  1.0000
  Fe  Fe80      1.0  0.04424  0.37184  0.79316  1.0000
  C   C1201     1.0  0.29151  0.36784  0.64365  1.0000
  C   C1202     1.0  0.20682  0.20717  0.55096  1.0000
  H   H952      1.0  0.07167  0.32005  0.87240  1.0000
  C   C1203     1.0  0.13113  0.21621  0.94969  1.0000
  H   H953      1.0  0.43654  0.24741  0.96695  1.0000
  C   C1204     1.0  0.25164  0.35332  0.94072  1.0000
  C   C1205     1.0  0.18677  0.29721  0.92620  1.0000
  C   C1206     1.0  0.43565  0.31282  0.85561  1.0000
  H   H954      1.0  0.01632  0.19248  0.81945  1.0000
  H   H955      1.0  0.28872  0.35493  0.63794  1.0000
  C   C1207     1.0  0.24327  0.37116  0.94922  1.0000
  C   C1208     1.0  0.40291  0.28699  0.94988  1.0000
  H   H956      1.0  0.07153  0.18735  0.73725  1.0000
  H   H957      1.0  0.04475  0.18613  0.76882  1.0000
  C   C1209     1.0  0.06921  0.30817  0.94006  1.0000
  C   C1210     1.0  0.19603  0.31319  0.86285  1.0000
  H   H958      1.0  0.10247  0.23022  0.89159  1.0000
  C   C1211     1.0  0.48117  0.25920  0.70331  1.0000
  H   H959      1.0  0.15790  0.33709  0.82461  1.0000
  H   H960      1.0  0.34221  0.25464  0.97143  1.0000
  C   C1212     1.0  0.21642  0.28895  0.94388  1.0000
  H   H961      1.0  0.09386  0.27075  0.83454  1.0000
  C   C1213     1.0  0.12979  0.36536  0.86065  1.0000
  C   C1214     1.0  0.36045  0.33258  0.66757  1.0000
  H   H962      1.0  0.03513  0.25911  0.87683  1.0000
  C   C1215     1.0  0.30820  0.30827  0.70011  1.0000
  H   H963      1.0  0.32172  0.34956  0.70496  1.0000
  C   C1216     1.0  0.08970  0.26703  0.85106  1.0000
  C   C1217     1.0  0.16842  0.33000  0.83535  1.0000
  H   H964      1.0  0.42372  0.32610  0.85234  1.0000
  C   C1218     1.0  0.34026  0.36957  0.82737  1.0000
  H   H965      1.0  0.47189  0.22807  0.88804  1.0000
  C   C1219     1.0  0.24700  0.28118  0.97263  1.0000
  H   H966      1.0  0.46892  0.20809  0.66071  1.0000
  C   C1220     1.0  0.31450  0.34223  0.95241  1.0000
  H   H967      1.0  0.35173  0.34823  0.72129  1.0000
  C   C1221     1.0  0.07306  0.27948  0.86138  1.0000
  C   C1222     1.0  0.18970  0.32964  0.82869  1.0000
  C   C1223     1.0  0.39924  0.35313  0.90158  1.0000
  H   H968      1.0  0.38967  0.37881  0.71476  1.0000
  H   H969      1.0  0.17262  0.36156  0.94691  1.0000
  H   H970      1.0  0.43283  0.32437  0.93801  1.0000
  H   H971      1.0  0.00644  0.31664  0.88633  1.0000
  C   C1224     1.0  0.06545  0.29291  0.95728  1.0000
  H   H972      1.0  0.14776  0.21125  0.94736  1.0000
  C   C1225     1.0  0.25475  0.25828  0.93796  1.0000
  H   H973      1.0  0.47377  0.36979  0.50454  1.0000
  H   H974      1.0  0.46868  0.21859  0.48344  1.0000
  C   C1226     1.0  0.43396  0.18541  0.49580  1.0000
  C   C1227     1.0  0.32283  0.37241  0.88359  1.0000
  C   C1228     1.0  0.35797  0.19990  0.51950  1.0000
  H   H975      1.0  0.34433  0.36749  0.84238  1.0000
  H   H976      1.0  0.30089  0.28499  0.72657  1.0000
  H   H977      1.0  0.14511  0.34233  0.96701  1.0000
  S   S159      1.0  0.48513  0.33123  0.60904  1.0000
  H   H978      1.0  0.40363  0.19835  0.96920  1.0000
  H   H979      1.0  0.38358  0.37082  0.53049  1.0000
  C   C1229     1.0  0.44128  0.37680  0.50363  1.0000
  C   C1230     1.0  0.42228  0.19402  0.48018  1.0000
  C   C1231     1.0  0.47716  0.20475  0.52173  1.0000
  S   S160      1.0  0.01078  0.38142  0.78937  1.0000
  C   C1232     1.0  0.35532  0.38105  0.55040  1.0000
  C   C1233     1.0  0.42181  0.37261  0.60416  1.0000
  C   C1234     1.0  0.41794  0.20340  0.96939  1.0000
  H   H980      1.0  0.39638  0.37336  0.67851  1.0000
  C   C1235     1.0  0.99141  0.20682  0.78346  1.0000
  S   S161      1.0  0.16433  0.18472  0.54772  1.0000
  C   C1236     1.0  0.44157  0.37339  0.69660  1.0000
  C   C1237     1.0  0.03156  0.18325  0.81597  1.0000
  C   C1238     1.0  0.23793  0.18414  0.53884  1.0000
  H   H981      1.0  0.17418  0.18427  0.58672  1.0000
  C   C1239     1.0  0.22736  0.18419  0.47732  1.0000
  C   C1240     1.0  0.36289  0.38260  0.89860  1.0000
  C   C1241     1.0  0.48867  0.25155  0.68479  1.0000
  H   H982      1.0  0.48911  0.34544  0.70273  1.0000
  H   H983      1.0  0.19558  0.18295  0.49224  1.0000
  C   C1242     1.0  0.48892  0.20523  0.63194  1.0000
  H   H984      1.0  0.11493  0.25684  0.47558  1.0000
  H   H985      1.0  0.36041  0.18317  0.49497  1.0000
  Fe  Fe81      1.0  0.29247  0.55057  0.36051  1.0000
  S   S162      1.0  0.28270  0.52533  0.38663  1.0000
  S   S163      1.0  0.32656  0.54970  0.34573  1.0000
  H   H986      1.0  0.47242  0.56347  0.34258  1.0000
  S   S164      1.0  0.23566  0.55054  0.38719  1.0000
  C   C1243     1.0  0.47155  0.45083  0.31232  1.0000
  Fe  Fe82      1.0  0.26284  0.55180  0.40104  1.0000
  S   S165      1.0  0.25518  0.55587  0.43437  1.0000
  Fe  Fe83      1.0  0.25607  0.52605  0.37036  1.0000
  S   S166      1.0  0.24142  0.49748  0.37151  1.0000
  C   C1244     1.0  0.00223  0.53650  0.18919  1.0000
  S   S167      1.0  0.26753  0.54910  0.34314  1.0000
  Fe  Fe84      1.0  0.17438  0.44620  0.31018  1.0000
  S   S168      1.0  0.15271  0.43289  0.33763  1.0000
  S   S169      1.0  0.20099  0.46352  0.30956  1.0000
  Fe  Fe85      1.0  0.14866  0.43849  0.27989  1.0000
  S   S170      1.0  0.12480  0.42592  0.30534  1.0000
  S   S171      1.0  0.14281  0.44400  0.24701  1.0000
  Fe  Fe86      1.0  0.12730  0.45146  0.32087  1.0000
  S   S172      1.0  0.09988  0.46984  0.33848  1.0000
  Fe  Fe87      1.0  0.15211  0.40823  0.31960  1.0000
  S   S173      1.0  0.14860  0.46582  0.29431  1.0000
  S   S174      1.0  0.17628  0.41971  0.29322  1.0000
  H   H987      1.0  0.32503  0.55364  0.44705  1.0000
  C   C1245     1.0  0.22691  0.54321  0.21540  1.0000
  H   H988      1.0  0.01326  0.38906  0.31117  1.0000
  C   C1246     1.0  0.09183  0.49342  0.15891  1.0000
  Fe  Fe88      1.0  0.08827  0.40108  0.15232  1.0000
  S   S175      1.0  0.07436  0.43432  0.14215  1.0000
  H   H989      1.0  0.21600  0.46342  0.26457  1.0000
  C   C1247     1.0  0.48831  0.46095  0.22841  1.0000
  H   H990      1.0  0.15150  0.53388  0.34839  1.0000
  S   S176      1.0  0.03985  0.54272  0.29327  1.0000
  H   H991      1.0  0.10288  0.40028  0.24876  1.0000
  Fe  Fe89      1.0  0.13337  0.51276  0.07631  1.0000
  S   S177      1.0  0.13861  0.50441  0.10886  1.0000
  S   S178      1.0  0.12217  0.48814  0.06565  1.0000
  Fe  Fe90      1.0  0.14884  0.55379  0.06963  1.0000
  S   S179      1.0  0.15492  0.54845  0.10190  1.0000
  Fe  Fe91      1.0  0.16860  0.51614  0.09640  1.0000
  S   S180      1.0  0.20001  0.49911  0.10296  1.0000
  Fe  Fe92      1.0  0.12434  0.53751  0.11059  1.0000
  S   S181      1.0  0.09696  0.54580  0.13487  1.0000
  S   S182      1.0  0.16439  0.52219  0.06352  1.0000
  S   S183      1.0  0.11706  0.54526  0.07861  1.0000
  H   H992      1.0  0.09142  0.49906  0.14270  1.0000
  H   H993      1.0  0.05771  0.45476  0.17925  1.0000
  C   C1248     1.0  0.13620  0.39280  0.00520  1.0000
  C   C1249     1.0  0.16294  0.54099  0.35211  1.0000
  S   S184      1.0  0.21875  0.42029  0.06064  1.0000
  C   C1250     1.0  0.33103  0.54930  0.39504  1.0000
  H   H994      1.0  0.18786  0.51610  0.34448  1.0000
  C   C1251     1.0  0.48202  0.40054  0.15435  1.0000
  C   C1252     1.0  0.21521  0.44259  0.07150  1.0000
  C   C1253     1.0  0.23082  0.44799  0.07914  1.0000
  C   C1254     1.0  0.22647  0.46576  0.08842  1.0000
  C   C1255     1.0  0.20647  0.47766  0.09039  1.0000
  C   C1256     1.0  0.19123  0.47238  0.08230  1.0000
  C   C1257     1.0  0.19563  0.45511  0.07274  1.0000
  H   H995      1.0  0.24608  0.43850  0.07800  1.0000
  H   H996      1.0  0.23847  0.47015  0.09422  1.0000
  H   H997      1.0  0.17578  0.48132  0.08379  1.0000
  H   H998      1.0  0.18344  0.45123  0.06693  1.0000
  H   H999      1.0  0.43762  0.43083  0.09675  1.0000
  C   C1258     1.0  0.10067  0.55661  0.15500  1.0000
  C   C1259     1.0  0.12038  0.55879  0.15709  1.0000
  H   H1000     1.0  0.33308  0.49971  0.45478  1.0000
  H   H1001     1.0  0.13376  0.55401  0.14597  1.0000
  C   C1260     1.0  0.15010  0.39617  0.09031  1.0000
  C   C1261     1.0  0.08816  0.44883  0.12095  1.0000
  C   C1262     1.0  0.10428  0.43927  0.10738  1.0000
  C   C1263     1.0  0.11477  0.45137  0.09041  1.0000
  C   C1264     1.0  0.10930  0.47302  0.08709  1.0000
  C   C1265     1.0  0.09344  0.48255  0.10088  1.0000
  C   C1266     1.0  0.08270  0.47046  0.11760  1.0000
  H   H1002     1.0  0.10865  0.42259  0.10994  1.0000
  H   H1003     1.0  0.12744  0.44399  0.08016  1.0000
  H   H1004     1.0  0.08921  0.49925  0.09847  1.0000
  H   H1005     1.0  0.07018  0.47790  0.12801  1.0000
  C   C1267     1.0  0.08385  0.48995  0.32495  1.0000
  C   C1268     1.0  0.09078  0.49992  0.30500  1.0000
  C   C1269     1.0  0.07763  0.51666  0.29520  1.0000
  C   C1270     1.0  0.05734  0.52281  0.30510  1.0000
  C   C1271     1.0  0.05041  0.51255  0.32483  1.0000
  C   C1272     1.0  0.06372  0.49647  0.33485  1.0000
  H   H1006     1.0  0.10630  0.49486  0.29727  1.0000
  H   H1007     1.0  0.08300  0.52463  0.27995  1.0000
  H   H1008     1.0  0.03473  0.51720  0.33251  1.0000
  H   H1009     1.0  0.05828  0.48884  0.35025  1.0000
  C   C1273     1.0  0.14151  0.42340  0.23514  1.0000
  H   H1010     1.0  0.02495  0.45366  0.24181  1.0000
  C   C1274     1.0  0.12800  0.41092  0.21000  1.0000
  C   C1275     1.0  0.12860  0.42683  0.22040  1.0000
  H   H1011     1.0  0.11767  0.41353  0.19903  1.0000
  H   H1012     1.0  0.11892  0.44176  0.21715  1.0000
  C   C1276     1.0  0.22957  0.48902  0.35402  1.0000
  C   C1277     1.0  0.23239  0.49687  0.33288  1.0000
  C   C1278     1.0  0.22325  0.48912  0.31965  1.0000
  C   C1279     1.0  0.21085  0.47367  0.32733  1.0000
  C   C1280     1.0  0.20763  0.46618  0.34852  1.0000
  C   C1281     1.0  0.21719  0.47357  0.36167  1.0000
  H   H1013     1.0  0.24208  0.50850  0.32666  1.0000
  H   H1014     1.0  0.22607  0.49494  0.30329  1.0000
  H   H1015     1.0  0.19839  0.45414  0.35470  1.0000
  H   H1016     1.0  0.21511  0.46713  0.37791  1.0000
  C   C1282     1.0  0.27341  0.56305  0.44567  1.0000
  C   C1283     1.0  0.29461  0.55629  0.43991  1.0000
  C   C1284     1.0  0.30877  0.55992  0.45084  1.0000
  H   H1017     1.0  0.29989  0.54740  0.42767  1.0000
  H   H1018     1.0  0.02769  0.56668  0.00282  1.0000
  H   H1019     1.0  0.02588  0.40474  0.20949  1.0000
  C   C1285     1.0  0.36089  0.56844  0.33926  1.0000
  C   C1286     1.0  0.33928  0.57050  0.34559  1.0000
  H   H1020     1.0  0.19090  0.38930  0.03658  1.0000
  P   P40       1.0  0.99576  0.52459  0.12044  1.0000
  H   H1021     1.0  0.36945  0.55440  0.33424  1.0000
  H   H1022     1.0  0.02777  0.45352  0.14837  1.0000
  C   C1287     1.0  0.03618  0.52236  0.19805  1.0000
  P   P41       1.0  0.45918  0.51431  0.30365  1.0000
  C   C1288     1.0  0.43039  0.51220  0.34022  1.0000
  C   C1289     1.0  0.41045  0.51273  0.35190  1.0000
  C   C1290     1.0  0.45748  0.52981  0.27838  1.0000
  C   C1291     1.0  0.45780  0.55114  0.27465  1.0000
  C   C1292     1.0  0.19602  0.39338  0.02015  1.0000
  C   C1293     1.0  0.21108  0.40307  0.97788  1.0000
  H   H1023     1.0  0.21230  0.43291  0.98408  1.0000
  C   C1294     1.0  0.45484  0.52068  0.26236  1.0000
  H   H1024     1.0  0.44351  0.50938  0.34808  1.0000
  H   H1025     1.0  0.40824  0.51068  0.36852  1.0000
  H   H1026     1.0  0.45970  0.55878  0.28652  1.0000
  C   C1295     1.0  0.05568  0.47810  0.27925  1.0000
  C   C1296     1.0  0.02507  0.46462  0.13457  1.0000
  C   C1297     1.0  0.46859  0.47255  0.23387  1.0000
  H   H1027     1.0  0.45547  0.57955  0.25264  1.0000
  H   H1028     1.0  0.08990  0.41184  0.01383  1.0000
  C   C1298     1.0  0.45553  0.56305  0.25531  1.0000
  C   C1299     1.0  0.18842  0.57633  0.41487  1.0000
  C   C1300     1.0  0.47804  0.54874  0.33740  1.0000
  H   H1029     1.0  0.00160  0.55817  0.04723  1.0000
  H   H1030     1.0  0.00701  0.48452  0.20546  1.0000
  H   H1031     1.0  0.19977  0.42406  0.02153  1.0000
  H   H1032     1.0  0.99790  0.56913  0.10968  1.0000
  C   C1301     1.0  0.13509  0.40358  0.05926  1.0000
  C   C1302     1.0  0.04826  0.44770  0.19287  1.0000
  H   H1033     1.0  0.25630  0.50908  0.46956  1.0000
  C   C1303     1.0  0.08308  0.46331  0.01509  1.0000
  H   H1034     1.0  0.14683  0.56850  0.39976  1.0000
  C   C1304     1.0  0.15043  0.41535  0.04935  1.0000
  C   C1305     1.0  0.03404  0.45941  0.11530  1.0000
  H   H1035     1.0  0.14045  0.55527  0.26722  1.0000
  H   H1036     1.0  0.02794  0.56753  0.32689  1.0000
  C   C1306     1.0  0.10415  0.42506  0.03276  1.0000
  C   C1307     1.0  0.03021  0.41932  0.20986  1.0000
  C   C1308     1.0  0.05908  0.56753  0.04866  1.0000
  C   C1309     1.0  0.26119  0.47661  0.99895  1.0000
  H   H1037     1.0  0.17636  0.41068  0.08862  1.0000
  Fe  Fe93      1.0  0.24621  0.39439  0.05931  1.0000
  H   H1038     1.0  0.23838  0.53806  0.20276  1.0000
  C   C1310     1.0  0.22640  0.56236  0.22074  1.0000
  C   C1311     1.0  0.45338  0.55378  0.23941  1.0000
  C   C1312     1.0  0.47865  0.40903  0.17220  1.0000
  H   H1039     1.0  0.17834  0.48790  0.38355  1.0000
  C   C1313     1.0  0.47876  0.43221  0.25477  1.0000
  C   C1314     1.0  0.16999  0.51086  0.46822  1.0000
  C   C1315     1.0  0.09833  0.57549  0.42762  1.0000
  H   H1040     1.0  0.12954  0.40846  0.99917  1.0000
  H   H1041     1.0  0.15038  0.38826  0.10599  1.0000
  S   S185      1.0  0.08620  0.39038  0.18639  1.0000
  C   C1316     1.0  0.36761  0.54256  0.45835  1.0000
  H   H1042     1.0  0.07183  0.44560  0.99792  1.0000
  C   C1317     1.0  0.06901  0.38625  0.09098  1.0000
  C   C1318     1.0  0.34036  0.56159  0.40336  1.0000
  H   H1043     1.0  0.21832  0.53736  0.28350  1.0000
  C   C1319     1.0  0.27305  0.50664  0.46680  1.0000
  H   H1044     1.0  0.03895  0.55850  0.36098  1.0000
  C   C1320     1.0  0.02407  0.42828  0.22757  1.0000
  H   H1045     1.0  0.06812  0.56120  0.16788  1.0000
  H   H1046     1.0  0.08179  0.56795  0.02086  1.0000
  C   C1321     1.0  0.16939  0.46589  0.16999  1.0000
  C   C1322     1.0  0.16985  0.47925  0.15105  1.0000
  C   C1323     1.0  0.16628  0.50063  0.15035  1.0000
  C   C1324     1.0  0.16267  0.50867  0.16845  1.0000
  C   C1325     1.0  0.16359  0.49531  0.18740  1.0000
  C   C1326     1.0  0.16626  0.47385  0.18816  1.0000
  P   P42       1.0  0.15965  0.50568  0.21073  1.0000
  C   C1327     1.0  0.17691  0.49101  0.22791  1.0000
  C   C1328     1.0  0.16638  0.53120  0.20504  1.0000
  C   C1329     1.0  0.15461  0.54683  0.21567  1.0000
  H   H1047     1.0  0.14124  0.50349  0.38547  1.0000
  C   C1330     1.0  0.21184  0.56880  0.23731  1.0000
  C   C1331     1.0  0.20897  0.46762  0.23401  1.0000
  C   C1332     1.0  0.19504  0.47775  0.22077  1.0000
  C   C1333     1.0  0.13248  0.50735  0.22175  1.0000
  C   C1334     1.0  0.12570  0.49601  0.24109  1.0000
  C   C1335     1.0  0.10462  0.49831  0.24954  1.0000
  C   C1336     1.0  0.09019  0.51224  0.23893  1.0000
  C   C1337     1.0  0.09670  0.52299  0.21938  1.0000
  C   C1338     1.0  0.11773  0.52039  0.21072  1.0000
  H   H1048     1.0  0.17129  0.44942  0.17059  1.0000
  H   H1049     1.0  0.17273  0.47315  0.13687  1.0000
  H   H1050     1.0  0.16633  0.51103  0.13573  1.0000
  H   H1051     1.0  0.15928  0.52531  0.16752  1.0000
  H   H1052     1.0  0.16561  0.46332  0.20281  1.0000
  H   H1053     1.0  0.14101  0.54407  0.22708  1.0000
  H   H1054     1.0  0.99568  0.39120  0.22945  1.0000
  H   H1055     1.0  0.22272  0.45710  0.22861  1.0000
  H   H1056     1.0  0.19868  0.47535  0.20499  1.0000
  H   H1057     1.0  0.13650  0.48530  0.24973  1.0000
  H   H1058     1.0  0.09953  0.48934  0.26438  1.0000
  H   H1059     1.0  0.07400  0.51475  0.24586  1.0000
  C   C1339     1.0  0.46691  0.54215  0.32540  1.0000
  H   H1060     1.0  0.10822  0.38621  0.40215  1.0000
  C   C1340     1.0  0.14102  0.39178  0.21362  1.0000
  S   S186      1.0  0.27401  0.57681  0.37611  1.0000
  H   H1061     1.0  0.01178  0.54351  0.98953  1.0000
  H   H1062     1.0  0.03847  0.46980  0.08258  1.0000
  H   H1063     1.0  0.46451  0.48822  0.22590  1.0000
  H   H1064     1.0  0.16630  0.45869  0.97998  1.0000
  C   C1341     1.0  0.28351  0.50780  0.44649  1.0000
  C   C1342     1.0  0.30511  0.50503  0.44217  1.0000
  C   C1343     1.0  0.99485  0.38583  0.24584  1.0000
  H   H1065     1.0  0.45425  0.38999  0.21684  1.0000
  C   C1344     1.0  0.19881  0.38742  0.17020  1.0000
  C   C1345     1.0  0.17079  0.49697  0.39540  1.0000
  C   C1346     1.0  0.03027  0.57375  0.35629  1.0000
  C   C1347     1.0  0.99701  0.51672  0.19447  1.0000
  C   C1348     1.0  0.03001  0.44692  0.22797  1.0000
  C   C1349     1.0  0.07884  0.39551  0.27505  1.0000
  H   H1066     1.0  0.27473  0.51156  0.43403  1.0000
  H   H1067     1.0  0.31303  0.50634  0.42635  1.0000
  H   H1068     1.0  0.19738  0.40280  0.21558  1.0000
  C   C1350     1.0  0.44012  0.55837  0.38738  1.0000
  C   C1351     1.0  0.11111  0.48294  0.18696  1.0000
  C   C1352     1.0  0.13015  0.57091  0.40292  1.0000
  H   H1069     1.0  0.45139  0.46307  0.08025  1.0000
  C   C1353     1.0  0.43331  0.51523  0.31862  1.0000
  H   H1070     1.0  0.44959  0.47388  0.32679  1.0000
  H   H1071     1.0  0.38268  0.52176  0.31320  1.0000
  C   C1354     1.0  0.20526  0.47120  0.25422  1.0000
  H   H1072     1.0  0.14357  0.38777  0.38213  1.0000
  H   H1073     1.0  0.12549  0.48025  0.19263  1.0000
  H   H1074     1.0  0.06054  0.39234  0.10458  1.0000
  H   H1075     1.0  0.29006  0.42831  0.00757  1.0000
  H   H1076     1.0  0.01470  0.42085  0.24105  1.0000
  H   H1077     1.0  0.12388  0.52460  0.41245  1.0000
  C   C1355     1.0  0.14986  0.50582  0.39645  1.0000
  C   C1356     1.0  0.45900  0.44365  0.25982  1.0000
  C   C1357     1.0  0.45396  0.46391  0.24950  1.0000
  C   C1358     1.0  0.16505  0.41806  0.06004  1.0000
  H   H1078     1.0  0.21505  0.53268  0.35114  1.0000
  H   H1079     1.0  0.15123  0.42222  0.03327  1.0000
  H   H1080     1.0  0.12460  0.49259  0.15537  1.0000
  H   H1081     1.0  0.11861  0.53016  0.28701  1.0000
  C   C1359     1.0  0.45411  0.43096  0.09447  1.0000
  C   C1360     1.0  0.30192  0.57144  0.46680  1.0000
  C   C1361     1.0  0.04238  0.45667  0.21070  1.0000
  C   C1362     1.0  0.26650  0.57437  0.46179  1.0000
  S   S187      1.0  0.08291  0.57838  0.26781  1.0000
  C   C1363     1.0  0.19738  0.55630  0.24837  1.0000
  H   H1082     1.0  0.16017  0.50554  0.25375  1.0000
  H   H1083     1.0  0.44767  0.43677  0.27177  1.0000
  H   H1084     1.0  0.43868  0.47281  0.25353  1.0000
  C   C1364     1.0  0.04238  0.49442  0.26955  1.0000
  C   C1365     1.0  0.10532  0.44344  0.03895  1.0000
  H   H1085     1.0  0.05129  0.52480  0.19940  1.0000
  C   C1366     1.0  0.23021  0.55457  0.30033  1.0000
  H   H1086     1.0  0.17686  0.42708  0.05227  1.0000
  S   S188      1.0  0.12205  0.38794  0.14509  1.0000
  H   H1087     1.0  0.03355  0.50653  0.27789  1.0000
  C   C1367     1.0  0.10547  0.57299  0.18841  1.0000
  H   H1088     1.0  0.19823  0.49275  0.40827  1.0000
  H   H1089     1.0  0.46601  0.42176  0.17478  1.0000
  C   C1368     1.0  0.08133  0.44503  0.00926  1.0000
  H   H1090     1.0  0.21174  0.39020  0.10165  1.0000
  H   H1091     1.0  0.20397  0.53644  0.99196  1.0000
  H   H1092     1.0  0.03375  0.57137  0.07398  1.0000
  C   C1369     1.0  0.15749  0.56009  0.35900  1.0000
  C   C1370     1.0  0.18206  0.49983  0.40954  1.0000
  H   H1093     1.0  0.19827  0.56052  0.01628  1.0000
  H   H1094     1.0  0.19361  0.52335  0.18248  1.0000
  H   H1095     1.0  0.08861  0.40931  0.08227  1.0000
  C   C1371     1.0  0.47460  0.52365  0.31759  1.0000
  C   C1372     1.0  0.48727  0.48377  0.28518  1.0000
  C   C1373     1.0  0.22752  0.57299  0.30780  1.0000
  C   C1374     1.0  0.09052  0.55055  0.32722  1.0000
  C   C1375     1.0  0.09792  0.53809  0.34443  1.0000
  C   C1376     1.0  0.11031  0.54546  0.35458  1.0000
  H   H1096     1.0  0.13805  0.56821  0.17571  1.0000
  Fe  Fe94      1.0  0.24845  0.57344  0.36108  1.0000
  H   H1097     1.0  0.00666  0.48807  0.15112  1.0000
  C   C1377     1.0  0.99113  0.55343  0.06119  1.0000
  H   H1098     1.0  0.16894  0.47980  0.46471  1.0000
  P   P43       1.0  0.37204  0.56943  0.42018  1.0000
  P   P44       1.0  0.19595  0.39831  0.14393  1.0000
  P   P45       1.0  0.05014  0.48061  0.21165  1.0000
  C   C1378     1.0  0.11579  0.56514  0.34723  1.0000
  C   C1379     1.0  0.01924  0.49343  0.09883  1.0000
  H   H1099     1.0  0.31681  0.55590  0.38906  1.0000
  C   C1380     1.0  0.18362  0.53093  0.34958  1.0000
  C   C1381     1.0  0.16482  0.40864  0.08054  1.0000
  H   H1100     1.0  0.07744  0.44985  0.27608  1.0000
  H   H1101     1.0  0.45116  0.52547  0.23062  1.0000
  C   C1382     1.0  0.07403  0.48344  0.19386  1.0000
  H   H1102     1.0  0.45407  0.50437  0.26488  1.0000
  H   H1103     1.0  0.08062  0.54508  0.31954  1.0000
  H   H1104     1.0  0.09390  0.52278  0.34991  1.0000
  H   H1105     1.0  0.11560  0.53586  0.36817  1.0000
  C   C1383     1.0  0.18968  0.47251  0.98704  1.0000
  H   H1106     1.0  0.15151  0.38642  0.97514  1.0000
  C   C1384     1.0  0.23790  0.39519  0.12677  1.0000
  C   C1385     1.0  0.03114  0.50238  0.20312  1.0000
  H   H1107     1.0  0.12438  0.38338  0.08745  1.0000
  C   C1386     1.0  0.08973  0.39263  0.25555  1.0000
  C   C1387     1.0  0.18398  0.53536  0.19046  1.0000
  H   H1108     1.0  0.46153  0.39880  0.10794  1.0000
  H   H1109     1.0  0.39153  0.55933  0.37938  1.0000
  H   H1110     1.0  0.01547  0.54108  0.07894  1.0000
  C   C1388     1.0  0.47863  0.47430  0.18210  1.0000
  C   C1389     1.0  0.27662  0.44032  0.00567  1.0000
  C   C1390     1.0  0.45300  0.53259  0.24294  1.0000
  C   C1391     1.0  0.11058  0.48981  0.16604  1.0000
  C   C1392     1.0  0.25667  0.40256  0.12043  1.0000
  H   H1111     1.0  0.08545  0.53341  0.21097  1.0000
  C   C1393     1.0  0.23976  0.45026  0.00557  1.0000
  C   C1394     1.0  0.39865  0.56581  0.40707  1.0000
  C   C1395     1.0  0.46246  0.47123  0.31441  1.0000
  P   P46       1.0  0.11673  0.40027  0.04475  1.0000
  H   H1112     1.0  0.07503  0.47808  0.00823  1.0000
  H   H1113     1.0  0.04670  0.42222  0.17876  1.0000
  H   H1114     1.0  0.16435  0.40145  0.25020  1.0000
  C   C1396     1.0  0.15997  0.56652  0.21126  1.0000
  H   H1115     1.0  0.05921  0.49315  0.16690  1.0000
  P   P47       1.0  0.13151  0.57474  0.36050  1.0000
  H   H1116     1.0  0.02563  0.55476  0.18722  1.0000
  C   C1397     1.0  0.09165  0.42594  0.01821  1.0000
  C   C1398     1.0  0.25750  0.42286  0.12174  1.0000
  C   C1399     1.0  0.02930  0.53037  0.13598  1.0000
  H   H1117     1.0  0.07404  0.45086  0.24014  1.0000
  H   H1118     1.0  0.05440  0.38731  0.29947  1.0000
  C   C1400     1.0  0.08340  0.56284  0.16945  1.0000
  H   H1119     1.0  0.08366  0.40533  0.28337  1.0000
  C   C1401     1.0  0.06709  0.46248  0.26855  1.0000
  C   C1402     1.0  0.19564  0.40051  0.18467  1.0000
  C   C1403     1.0  0.20852  0.41775  0.99057  1.0000
  C   C1404     1.0  0.14081  0.51427  0.30650  1.0000
  H   H1120     1.0  0.01738  0.50421  0.08477  1.0000
  C   C1405     1.0  0.20540  0.38364  0.98645  1.0000
  S   S189      1.0  0.05087  0.57510  0.23758  1.0000
  C   C1406     1.0  0.24169  0.47120  0.00066  1.0000
  C   C1407     1.0  0.31635  0.50140  0.45818  1.0000
  P   P48       1.0  0.21962  0.49111  0.99583  1.0000
  C   C1408     1.0  0.21713  0.50972  0.01252  1.0000
  H   H1121     1.0  0.05719  0.47763  0.29504  1.0000
  C   C1409     1.0  0.04207  0.42916  0.19250  1.0000
  C   C1410     1.0  0.19896  0.54012  0.35341  1.0000
  C   C1411     1.0  0.07362  0.49019  0.17272  1.0000
  C   C1412     1.0  0.19799  0.53721  0.24286  1.0000
  C   C1413     1.0  0.20861  0.53067  0.00676  1.0000
  C   C1414     1.0  0.20551  0.54450  0.02045  1.0000
  C   C1415     1.0  0.21113  0.53765  0.03985  1.0000
  C   C1416     1.0  0.21984  0.51693  0.04563  1.0000
  C   C1417     1.0  0.22271  0.50297  0.03212  1.0000
  C   C1418     1.0  0.19626  0.47996  0.00213  1.0000
  C   C1419     1.0  0.18457  0.47846  0.02207  1.0000
  C   C1420     1.0  0.16637  0.47013  0.02668  1.0000
  C   C1421     1.0  0.15960  0.46333  0.01146  1.0000
  H   H1122     1.0  0.47087  0.46383  0.19428  1.0000
  H   H1123     1.0  0.47595  0.49801  0.13263  1.0000
  H   H1124     1.0  0.11399  0.44324  0.05080  1.0000
  C   C1422     1.0  0.03118  0.47381  0.09747  1.0000
  H   H1125     1.0  0.45194  0.56311  0.22440  1.0000
  H   H1126     1.0  0.22484  0.44573  0.00799  1.0000
  H   H1127     1.0  0.20250  0.55840  0.17436  1.0000
  C   C1423     1.0  0.11997  0.57149  0.42319  1.0000
  C   C1424     1.0  0.21568  0.55154  0.28966  1.0000
  H   H1128     1.0  0.48832  0.40691  0.20114  1.0000
  H   H1129     1.0  0.20821  0.54830  0.05061  1.0000
  H   H1130     1.0  0.22379  0.51156  0.06086  1.0000
  H   H1131     1.0  0.22875  0.48681  0.03730  1.0000
  H   H1132     1.0  0.18931  0.48380  0.03413  1.0000
  H   H1133     1.0  0.15741  0.46912  0.04209  1.0000
  H   H1134     1.0  0.14520  0.45739  0.01502  1.0000
  C   C1425     1.0  0.41599  0.51853  0.30894  1.0000
  C   C1426     1.0  0.09295  0.47996  0.20085  1.0000
  C   C1427     1.0  0.23630  0.47453  0.46128  1.0000
  C   C1428     1.0  0.18914  0.55517  0.18591  1.0000
  H   H1135     1.0  0.21325  0.51564  0.22259  1.0000
  H   H1136     1.0  0.20546  0.56651  0.36261  1.0000
  H   H1137     1.0  0.45231  0.55159  0.32220  1.0000
  H   H1138     1.0  0.18786  0.52649  0.30411  1.0000
  C   C1429     1.0  0.19362  0.55915  0.36005  1.0000
  H   H1139     1.0  0.45793  0.47490  0.16140  1.0000
  C   C1430     1.0  0.05247  0.47997  0.23802  1.0000
  H   H1140     1.0  0.09048  0.57661  0.44322  1.0000
  C   C1431     1.0  0.20115  0.41289  0.01166  1.0000
  C   C1432     1.0  0.46191  0.44908  0.08513  1.0000
  C   C1433     1.0  0.13380  0.52937  0.29060  1.0000
  C   C1434     1.0  0.47140  0.48034  0.16335  1.0000
  C   C1435     1.0  0.06529  0.46325  0.24812  1.0000
  H   H1141     1.0  0.09391  0.47533  0.21697  1.0000
  C   C1436     1.0  0.25717  0.43489  0.00780  1.0000
  C   C1437     1.0  0.04074  0.49539  0.24902  1.0000
  C   C1438     1.0  0.21966  0.40835  0.13371  1.0000
  C   C1439     1.0  0.04318  0.54201  0.13876  1.0000
  C   C1440     1.0  0.17354  0.41836  0.14154  1.0000
  C   C1441     1.0  0.17288  0.52761  0.30003  1.0000
  H   H1142     1.0  0.27206  0.42854  0.11688  1.0000
  H   H1143     1.0  0.23757  0.57203  0.21232  1.0000
  C   C1442     1.0  0.21275  0.53060  0.22653  1.0000
  C   C1443     1.0  0.48158  0.49330  0.14712  1.0000
  C   C1444     1.0  0.16051  0.51311  0.31089  1.0000
  C   C1445     1.0  0.17274  0.43230  0.12295  1.0000
  C   C1446     1.0  0.15478  0.44679  0.12009  1.0000
  C   C1447     1.0  0.13763  0.44770  0.13591  1.0000
  C   C1448     1.0  0.13823  0.43378  0.15442  1.0000
  C   C1449     1.0  0.15603  0.41894  0.15716  1.0000
  C   C1450     1.0  0.01139  0.49969  0.20144  1.0000
  C   C1451     1.0  0.01047  0.56129  0.11781  1.0000
  C   C1452     1.0  0.39608  0.51891  0.32070  1.0000
  C   C1453     1.0  0.14627  0.54365  0.27944  1.0000
  C   C1454     1.0  0.23954  0.43582  0.12932  1.0000
  C   C1455     1.0  0.22064  0.42870  0.13510  1.0000
  C   C1456     1.0  0.08579  0.57113  0.18601  1.0000
  H   H1144     1.0  0.18736  0.52727  0.25152  1.0000
  C   C1457     1.0  0.17353  0.49470  0.24811  1.0000
  C   C1458     1.0  0.17138  0.46429  0.99170  1.0000
  C   C1459     1.0  0.41461  0.56844  0.41632  1.0000
  H   H1145     1.0  0.19006  0.41689  0.18061  1.0000
  C   C1460     1.0  0.27861  0.46119  0.00144  1.0000
  C   C1461     1.0  0.47016  0.48786  0.30072  1.0000
  H   H1146     1.0  0.13108  0.50328  0.31532  1.0000
  H   H1147     1.0  0.45611  0.55582  0.37974  1.0000
  H   H1148     1.0  0.18590  0.43164  0.11055  1.0000
  H   H1149     1.0  0.15399  0.45718  0.10551  1.0000
  H   H1150     1.0  0.12372  0.45894  0.13367  1.0000
  H   H1151     1.0  0.12465  0.43425  0.16639  1.0000
  H   H1152     1.0  0.15599  0.40775  0.17125  1.0000
  H   H1153     1.0  0.18501  0.48819  0.27657  1.0000
  H   H1154     1.0  0.21216  0.57554  0.45497  1.0000
  H   H1155     1.0  0.24016  0.45157  0.13039  1.0000
  H   H1156     1.0  0.20691  0.43903  0.14085  1.0000
  H   H1157     1.0  0.37778  0.51668  0.35114  1.0000
  C   C1462     1.0  0.42431  0.55616  0.37783  1.0000
  C   C1463     1.0  0.17303  0.56899  0.36304  1.0000
  H   H1158     1.0  0.09616  0.47656  0.03491  1.0000
  C   C1464     1.0  0.01317  0.48422  0.13601  1.0000
  H   H1159     1.0  0.44747  0.56730  0.41343  1.0000
  C   C1465     1.0  0.13529  0.39353  0.07971  1.0000
  H   H1160     1.0  0.03158  0.51400  0.14210  1.0000
  C   C1466     1.0  0.35885  0.55327  0.41098  1.0000
  C   C1467     1.0  0.37165  0.56207  0.44768  1.0000
  C   C1468     1.0  0.09699  0.57828  0.39156  1.0000
  C   C1469     1.0  0.18770  0.48497  0.26110  1.0000
  H   H1161     1.0  0.03040  0.50828  0.24189  1.0000
  H   H1162     1.0  0.12254  0.52865  0.19548  1.0000
  H   H1163     1.0  0.41772  0.52092  0.29236  1.0000
  C   C1470     1.0  0.21659  0.48673  0.46143  1.0000
  C   C1471     1.0  0.39331  0.51602  0.34215  1.0000
  C   C1472     1.0  0.34014  0.52876  0.39393  1.0000
  C   C1473     1.0  0.35855  0.52030  0.40149  1.0000
  C   C1474     1.0  0.36791  0.53251  0.40996  1.0000
  H   H1164     1.0  0.42803  0.55195  0.36268  1.0000
  S   S190      1.0  0.27916  0.39380  0.04309  1.0000
  C   C1475     1.0  0.40361  0.56034  0.38740  1.0000
  C   C1476     1.0  0.01007  0.49882  0.11814  1.0000
  H   H1165     1.0  0.05594  0.53457  0.14680  1.0000
  H   H1166     1.0  0.36404  0.53162  0.45056  1.0000
  H   H1167     1.0  0.27064  0.39251  0.11462  1.0000
  C   C1477     1.0  0.43524  0.56474  0.40648  1.0000
  H   H1168     1.0  0.24371  0.54277  0.30266  1.0000
  Fe  Fe95      1.0  0.05167  0.56958  0.27139  1.0000
  H   H1169     1.0  0.33302  0.51960  0.38687  1.0000
  H   H1170     1.0  0.36568  0.50442  0.40046  1.0000
  H   H1171     1.0  0.38242  0.52594  0.41534  1.0000
  C   C1478     1.0  0.14010  0.51762  0.41165  1.0000
  C   C1479     1.0  0.09500  0.46248  0.03002  1.0000
  C   C1480     1.0  0.17233  0.51161  0.42495  1.0000
  C   C1481     1.0  0.15128  0.52049  0.42584  1.0000
  P   P49       1.0  0.18618  0.51628  0.44337  1.0000
  C   C1482     1.0  0.19067  0.54263  0.43715  1.0000
  H   H1172     1.0  0.47200  0.40675  0.14304  1.0000
  P   P50       1.0  0.18053  0.56338  0.27133  1.0000
  H   H1173     1.0  0.46570  0.43800  0.32297  1.0000
  H   H1174     1.0  0.25548  0.41872  0.01134  1.0000
  C   C1483     1.0  0.16572  0.54326  0.28442  1.0000
  H   H1175     1.0  0.17829  0.55041  0.40877  1.0000
  C   C1484     1.0  0.20076  0.54982  0.44975  1.0000
  C   C1485     1.0  0.20421  0.57022  0.44519  1.0000
  C   C1486     1.0  0.37539  0.57614  0.45867  1.0000
  C   C1487     1.0  0.15406  0.40409  0.23917  1.0000
  C   C1488     1.0  0.19813  0.56683  0.28668  1.0000
  C   C1489     1.0  0.21142  0.50004  0.44346  1.0000
  C   C1490     1.0  0.22659  0.50150  0.42566  1.0000
  C   C1491     1.0  0.24615  0.48902  0.42544  1.0000
  C   C1492     1.0  0.25101  0.47550  0.44322  1.0000
  C   C1493     1.0  0.15405  0.38849  0.22816  1.0000
  C   C1494     1.0  0.18493  0.55590  0.41940  1.0000
  C   C1495     1.0  0.04089  0.56319  0.13092  1.0000
  H   H1176     1.0  0.14351  0.52971  0.43753  1.0000
  C   C1496     1.0  0.02175  0.53934  0.19109  1.0000
  H   H1177     1.0  0.29361  0.46541  0.00020  1.0000
  C   C1497     1.0  0.46759  0.41291  0.10080  1.0000
  H   H1178     1.0  0.04359  0.44433  0.11425  1.0000
  C   C1498     1.0  0.01297  0.53985  0.12521  1.0000
  H   H1179     1.0  0.20608  0.53968  0.46307  1.0000
  C   C1499     1.0  0.12276  0.56698  0.17382  1.0000
  H   H1180     1.0  0.06944  0.55694  0.05807  1.0000
  H   H1181     1.0  0.16622  0.50090  0.32275  1.0000
  C   C1500     1.0  0.02443  0.57288  0.12058  1.0000
  H   H1182     1.0  0.22322  0.51212  0.41182  1.0000
  H   H1183     1.0  0.25754  0.48993  0.41139  1.0000
  H   H1184     1.0  0.26626  0.46601  0.44303  1.0000
  H   H1185     1.0  0.26291  0.49275  0.99556  1.0000
  H   H1186     1.0  0.99108  0.54969  0.18381  1.0000
  C   C1501     1.0  0.08499  0.39576  0.07836  1.0000
  C   C1502     1.0  0.11873  0.57413  0.38696  1.0000
  H   H1187     1.0  0.41127  0.57343  0.43104  1.0000
  H   H1188     1.0  0.05202  0.57194  0.13279  1.0000
  H   H1189     1.0  0.48261  0.41651  0.26281  1.0000
  C   C1503     1.0  0.09643  0.38761  0.06103  1.0000
  C   C1504     1.0  0.06603  0.57372  0.02768  1.0000
  H   H1190     1.0  0.07755  0.57896  0.08050  1.0000
  C   C1505     1.0  0.09560  0.57025  0.32010  1.0000
  C   C1506     1.0  0.17712  0.57076  0.19630  1.0000
  H   H1191     1.0  0.12879  0.56973  0.43540  1.0000
  C   C1507     1.0  0.03898  0.57551  0.05758  1.0000
  C   C1508     1.0  0.99893  0.54362  0.07914  1.0000
  C   C1509     1.0  0.00425  0.55946  0.98967  1.0000
  C   C1510     1.0  0.28075  0.57917  0.47190  1.0000
  C   C1511     1.0  0.06217  0.38524  0.28413  1.0000
  H   H1192     1.0  0.15031  0.57866  0.21904  1.0000
  H   H1193     1.0  0.33309  0.57758  0.40360  1.0000
  H   H1194     1.0  0.25006  0.57920  0.46657  1.0000
  H   H1195     1.0  0.12328  0.57757  0.03578  1.0000
  C   C1512     1.0  0.13240  0.38483  0.02638  1.0000
  H   H1196     1.0  0.48891  0.46323  0.07451  1.0000
  H   H1197     1.0  0.12059  0.38399  0.30920  1.0000
  C   C1513     1.0  0.48325  0.44907  0.08186  1.0000
  H   H1198     1.0  0.00315  0.38708  0.34880  1.0000
  C   C1514     1.0  0.01324  0.57271  0.99720  1.0000
  C   C1515     1.0  0.20007  0.39259  0.20444  1.0000
  H   H1199     1.0  0.23898  0.57547  0.31575  1.0000
  C   C1516     1.0  0.10809  0.57758  0.33008  1.0000
  C   C1517     1.0  0.08686  0.57900  0.41179  1.0000
  H   H1200     1.0  0.07240  0.57586  0.19704  1.0000
  C   C1518     1.0  0.48835  0.44692  0.29663  1.0000
  H   H1201     1.0  0.08948  0.58016  0.30712  1.0000
  C   C1519     1.0  0.02415  0.57886  0.33705  1.0000
  H   H1202     1.0  0.08784  0.58178  0.37942  1.0000
  S   S191      1.0  0.10889  0.58187  0.20996  1.0000
  C   C1520     1.0  0.48887  0.41291  0.09780  1.0000
  H   H1203     1.0  0.14408  0.58270  0.29669  1.0000
  S   S192      1.0  0.15912  0.58254  0.05014  1.0000
  C   C1521     1.0  0.16393  0.49137  0.47459  1.0000
  C   C1522     1.0  0.35942  0.39721  0.71295  1.0000
  Fe  Fe96      1.0  0.15208  0.54259  0.58186  1.0000
  S   S193      1.0  0.16469  0.52599  0.55488  1.0000
  S   S194      1.0  0.11860  0.54227  0.59712  1.0000
  Fe  Fe97      1.0  0.19277  0.55701  0.57912  1.0000
  S   S195      1.0  0.20814  0.54193  0.55203  1.0000
  C   C1523     1.0  0.48881  0.49317  0.64460  1.0000
  Fe  Fe98      1.0  0.17827  0.55454  0.54028  1.0000
  C   C1524     1.0  0.03423  0.40002  0.68737  1.0000
  Fe  Fe99      1.0  0.19340  0.51500  0.56934  1.0000
  S   S196      1.0  0.21205  0.48255  0.57060  1.0000
  S   S197      1.0  0.17966  0.52920  0.59752  1.0000
  Fe  Fe100     1.0  0.35270  0.41871  0.58029  1.0000
  S   S198      1.0  0.33107  0.40736  0.60867  1.0000
  S   S199      1.0  0.36300  0.40429  0.55155  1.0000
  Fe  Fe101     1.0  0.36280  0.45244  0.59979  1.0000
  S   S200      1.0  0.34237  0.44323  0.62969  1.0000
  S   S201      1.0  0.38001  0.47952  0.59248  1.0000
  Fe  Fe102     1.0  0.35576  0.41058  0.62519  1.0000
  C   C1525     1.0  0.23036  0.51469  0.50573  1.0000
  Fe  Fe103     1.0  0.31963  0.44129  0.61013  1.0000
  S   S202      1.0  0.28726  0.45880  0.61933  1.0000
  S   S203      1.0  0.37799  0.41994  0.59676  1.0000
  S   S204      1.0  0.33947  0.45237  0.58040  1.0000
  S   S205      1.0  0.41073  0.40881  0.73179  1.0000
  C   C1526     1.0  0.45720  0.51292  0.72944  1.0000
  Fe  Fe104     1.0  0.41149  0.42363  0.75839  1.0000
  S   S206      1.0  0.41527  0.45679  0.75420  1.0000
  S   S207      1.0  0.38170  0.41506  0.77658  1.0000
  Fe  Fe105     1.0  0.40848  0.54687  0.65997  1.0000
  H   H1204     1.0  0.01760  0.41215  0.84293  1.0000
  S   S208      1.0  0.40134  0.51445  0.66449  1.0000
  H   H1205     1.0  0.46319  0.52675  0.67721  1.0000
  H   H1206     1.0  0.46744  0.46745  0.69455  1.0000
  H   H1207     1.0  0.20245  0.56688  0.71208  1.0000
  S   S209      1.0  0.41188  0.55935  0.68726  1.0000
  S   S210      1.0  0.43602  0.55943  0.64028  1.0000
  Fe  Fe106     1.0  0.29564  0.51530  0.83708  1.0000
  S   S211      1.0  0.31634  0.52742  0.85253  1.0000
  S   S212      1.0  0.27706  0.49069  0.85607  1.0000
  Fe  Fe107     1.0  0.31531  0.53531  0.79424  1.0000
  S   S213      1.0  0.33768  0.54838  0.80607  1.0000
  Fe  Fe108     1.0  0.34170  0.51770  0.82710  1.0000
  S   S214      1.0  0.37215  0.49765  0.83221  1.0000
  Fe  Fe109     1.0  0.31032  0.55731  0.83025  1.0000
  S   S215      1.0  0.32166  0.50384  0.81326  1.0000
  H   H1208     1.0  0.46863  0.42484  0.75142  1.0000
  C   C1527     1.0  0.34265  0.54896  0.72500  1.0000
  H   H1209     1.0  0.42153  0.45813  0.59074  1.0000
  Fe  Fe110     1.0  0.19814  0.42712  0.83670  1.0000
  S   S216      1.0  0.20387  0.40569  0.81374  1.0000
  S   S217      1.0  0.20613  0.45964  0.82645  1.0000
  S   S218      1.0  0.21048  0.57430  0.59265  1.0000
  H   H1210     1.0  0.38740  0.55751  0.90373  1.0000
  C   C1528     1.0  0.19236  0.44599  0.93675  1.0000
  H   H1211     1.0  0.14704  0.47152  0.49867  1.0000
  S   S219      1.0  0.16620  0.41937  0.85078  1.0000
  S   S220      1.0  0.21437  0.40375  0.85957  1.0000
  H   H1212     1.0  0.44991  0.56835  0.86517  1.0000
  C   C1529     1.0  0.46481  0.52225  0.70940  1.0000
  H   H1213     1.0  0.19844  0.52785  0.50399  1.0000
  C   C1530     1.0  0.46740  0.42854  0.50043  1.0000
  C   C1531     1.0  0.43398  0.49827  0.71557  1.0000
  C   C1532     1.0  0.11296  0.40377  0.81646  1.0000
  C   C1533     1.0  0.09199  0.40578  0.81456  1.0000
  C   C1534     1.0  0.33514  0.39154  0.79493  1.0000
  H   H1214     1.0  0.27618  0.42001  0.63928  1.0000
  H   H1215     1.0  0.11779  0.41515  0.82276  1.0000
  C   C1535     1.0  0.25849  0.48171  0.84644  1.0000
  C   C1536     1.0  0.24651  0.49481  0.83264  1.0000
  C   C1537     1.0  0.23043  0.48789  0.82693  1.0000
  C   C1538     1.0  0.22658  0.46758  0.83429  1.0000
  C   C1539     1.0  0.23890  0.45432  0.84774  1.0000
  C   C1540     1.0  0.25457  0.46144  0.85398  1.0000
  H   H1216     1.0  0.24916  0.51052  0.82694  1.0000
  H   H1217     1.0  0.22076  0.49846  0.81693  1.0000
  H   H1218     1.0  0.23623  0.43867  0.85352  1.0000
  H   H1219     1.0  0.26376  0.45114  0.86461  1.0000
  H   H1220     1.0  0.08081  0.41866  0.81965  1.0000
  H   H1221     1.0  0.25354  0.48551  0.96010  1.0000
  H   H1222     1.0  0.46882  0.46036  0.73149  1.0000
  C   C1541     1.0  0.45359  0.50167  0.63813  1.0000
  C   C1542     1.0  0.48246  0.42837  0.62906  1.0000
  H   H1223     1.0  0.04918  0.42097  0.75854  1.0000
  C   C1543     1.0  0.40244  0.46770  0.77594  1.0000
  C   C1544     1.0  0.39282  0.48854  0.77354  1.0000
  C   C1545     1.0  0.38256  0.49740  0.79081  1.0000
  C   C1546     1.0  0.38301  0.48586  0.81058  1.0000
  C   C1547     1.0  0.39272  0.46505  0.81302  1.0000
  C   C1548     1.0  0.40197  0.45583  0.79570  1.0000
  H   H1224     1.0  0.39292  0.49772  0.75829  1.0000
  H   H1225     1.0  0.37467  0.51331  0.78889  1.0000
  H   H1226     1.0  0.39296  0.45602  0.82830  1.0000
  H   H1227     1.0  0.40928  0.43971  0.79764  1.0000
  H   H1228     1.0  0.29011  0.45941  0.49524  1.0000
  C   C1549     1.0  0.04784  0.41507  0.65259  1.0000
  C   C1550     1.0  0.44210  0.50714  0.69567  1.0000
  H   H1229     1.0  0.02543  0.42884  0.63290  1.0000
  C   C1551     1.0  0.38704  0.48821  0.61254  1.0000
  C   C1552     1.0  0.39628  0.50593  0.60793  1.0000
  C   C1553     1.0  0.40053  0.51433  0.62369  1.0000
  C   C1554     1.0  0.39595  0.50474  0.64419  1.0000
  C   C1555     1.0  0.38742  0.48659  0.64872  1.0000
  C   C1556     1.0  0.38298  0.47832  0.63298  1.0000
  H   H1230     1.0  0.39987  0.51333  0.59210  1.0000
  H   H1231     1.0  0.40735  0.52818  0.61999  1.0000
  H   H1232     1.0  0.38382  0.47916  0.66455  1.0000
  H   H1233     1.0  0.37602  0.46455  0.63670  1.0000
  H   H1234     1.0  0.43813  0.38797  0.51387  1.0000
  C   C1557     1.0  0.33152  0.55376  0.74393  1.0000
  H   H1235     1.0  0.47066  0.43990  0.62251  1.0000
  C   C1558     1.0  0.34472  0.40632  0.70025  1.0000
  C   C1559     1.0  0.34864  0.40354  0.67970  1.0000
  H   H1236     1.0  0.33035  0.41556  0.70628  1.0000
  H   H1237     1.0  0.33728  0.41051  0.66992  1.0000
  C   C1560     1.0  0.48056  0.45850  0.57546  1.0000
  C   C1561     1.0  0.23423  0.47672  0.58240  1.0000
  C   C1562     1.0  0.23947  0.49134  0.59151  1.0000
  C   C1563     1.0  0.25646  0.48596  0.60194  1.0000
  C   C1564     1.0  0.26847  0.46602  0.60313  1.0000
  C   C1565     1.0  0.26360  0.45158  0.59351  1.0000
  C   C1566     1.0  0.24655  0.45695  0.58312  1.0000
  H   H1238     1.0  0.23010  0.50663  0.59087  1.0000
  H   H1239     1.0  0.26004  0.49715  0.60948  1.0000
  H   H1240     1.0  0.27251  0.43606  0.59466  1.0000
  H   H1241     1.0  0.24261  0.44560  0.57604  1.0000
  H   H1242     1.0  0.23444  0.43566  0.91176  1.0000
  H   H1243     1.0  0.43944  0.53617  0.78485  1.0000
  C   C1567     1.0  0.08498  0.56486  0.61840  1.0000
  C   C1568     1.0  0.10658  0.56164  0.61194  1.0000
  S   S221      1.0  0.17771  0.38557  0.90664  1.0000
  H   H1244     1.0  0.36389  0.50205  0.90769  1.0000
  H   H1245     1.0  0.07581  0.55558  0.61400  1.0000
  H   H1246     1.0  0.21078  0.46268  0.52764  1.0000
  S   S222      1.0  0.28730  0.54610  0.81677  1.0000
  C   C1569     1.0  0.03305  0.42626  0.75690  1.0000
  C   C1570     1.0  0.02559  0.42133  0.74104  1.0000
  C   C1571     1.0  0.45531  0.42375  0.53740  1.0000
  C   C1572     1.0  0.05112  0.40445  0.67213  1.0000
  H   H1247     1.0  0.26576  0.39621  0.90250  1.0000
  H   H1248     1.0  0.36391  0.52234  0.48777  1.0000
  C   C1573     1.0  0.31354  0.58141  0.59187  1.0000
  C   C1574     1.0  0.00926  0.42747  0.83786  1.0000
  H   H1249     1.0  0.47076  0.39601  0.55479  1.0000
  C   C1575     1.0  0.44819  0.58009  0.73797  1.0000
  H   H1250     1.0  0.24019  0.46439  0.47521  1.0000
  H   H1251     1.0  0.00251  0.41889  0.81149  1.0000
  H   H1252     1.0  0.44326  0.44966  0.51540  1.0000
  C   C1576     1.0  0.29788  0.39794  0.90063  1.0000
  H   H1253     1.0  0.06675  0.39923  0.67535  1.0000
  C   C1577     1.0  0.99123  0.43905  0.75342  1.0000
  C   C1578     1.0  0.46658  0.41567  0.70429  1.0000
  C   C1579     1.0  0.46670  0.46699  0.65472  1.0000
  C   C1580     1.0  0.07520  0.58026  0.63026  1.0000
  C   C1581     1.0  0.24371  0.43615  0.92297  1.0000
  C   C1582     1.0  0.23966  0.42534  0.94322  1.0000
  C   C1583     1.0  0.24200  0.50421  0.93380  1.0000
  H   H1254     1.0  0.37035  0.44543  0.53584  1.0000
  C   C1584     1.0  0.35326  0.56346  0.71094  1.0000
  H   H1255     1.0  0.03589  0.41208  0.73043  1.0000
  H   H1256     1.0  0.16689  0.54110  0.47658  1.0000
  H   H1257     1.0  0.19426  0.53418  0.93399  1.0000
  C   C1585     1.0  0.44302  0.47662  0.79978  1.0000
  H   H1258     1.0  0.30389  0.38895  0.74093  1.0000
  C   C1586     1.0  0.20724  0.52373  0.93986  1.0000
  C   C1587     1.0  0.24060  0.49645  0.95489  1.0000
  C   C1588     1.0  0.22251  0.50246  0.96873  1.0000
  H   H1259     1.0  0.43934  0.55321  0.73239  1.0000
  C   C1589     1.0  0.18417  0.56120  0.69180  1.0000
  P   P51       1.0  0.46337  0.44082  0.66627  1.0000
  H   H1260     1.0  0.00224  0.57661  0.61810  1.0000
  C   C1590     1.0  0.25251  0.42546  0.95711  1.0000
  H   H1261     1.0  0.30553  0.48269  0.71558  1.0000
  H   H1262     1.0  0.99510  0.47535  0.85100  1.0000
  C   C1591     1.0  0.46613  0.54129  0.81612  1.0000
  C   C1592     1.0  0.99835  0.44312  0.77002  1.0000
  H   H1263     1.0  0.42241  0.48303  0.82771  1.0000
  C   C1593     1.0  0.29832  0.40164  0.65784  1.0000
  H   H1264     1.0  0.38000  0.43061  0.67097  1.0000
  C   C1594     1.0  0.20232  0.49508  0.51567  1.0000
  C   C1595     1.0  0.43112  0.48956  0.81322  1.0000
  C   C1596     1.0  0.15836  0.44595  0.92972  1.0000
  H   H1265     1.0  0.40037  0.42291  0.54921  1.0000
  C   C1597     1.0  0.16140  0.42441  0.93537  1.0000
  H   H1266     1.0  0.47631  0.53213  0.70676  1.0000
  H   H1267     1.0  0.24998  0.53694  0.56751  1.0000
  C   C1598     1.0  0.16301  0.52574  0.48114  1.0000
  H   H1268     1.0  0.46787  0.51299  0.83829  1.0000
  C   C1599     1.0  0.38108  0.51323  0.87819  1.0000
  C   C1600     1.0  0.37255  0.51387  0.89881  1.0000
  C   C1601     1.0  0.37499  0.52990  0.90785  1.0000
  C   C1602     1.0  0.38595  0.54530  0.89628  1.0000
  C   C1603     1.0  0.39461  0.54482  0.87548  1.0000
  C   C1604     1.0  0.39195  0.52866  0.86653  1.0000
  P   P52       1.0  0.40769  0.56540  0.85993  1.0000
  H   H1269     1.0  0.29930  0.55075  0.72297  1.0000
  H   H1270     1.0  0.42408  0.38781  0.62836  1.0000
  H   H1271     1.0  0.10624  0.57658  0.50795  1.0000
  C   C1605     1.0  0.99074  0.51594  0.76751  1.0000
  C   C1606     1.0  0.15069  0.52087  0.50036  1.0000
  H   H1272     1.0  0.37590  0.56010  0.83815  1.0000
  C   C1607     1.0  0.28611  0.41417  0.72290  1.0000
  H   H1273     1.0  0.46632  0.43738  0.48517  1.0000
  H   H1274     1.0  0.37899  0.50090  0.87114  1.0000
  S   S223      1.0  0.38497  0.57393  0.64942  1.0000
  C   C1608     1.0  0.99335  0.49472  0.77558  1.0000
  C   C1609     1.0  0.99673  0.46311  0.84225  1.0000
  H   H1275     1.0  0.23549  0.52948  0.50005  1.0000
  C   C1610     1.0  0.01058  0.41771  0.66383  1.0000
  C   C1611     1.0  0.46984  0.40540  0.53973  1.0000
  H   H1276     1.0  0.46078  0.57158  0.79750  1.0000
  H   H1277     1.0  0.28292  0.51597  0.70517  1.0000
  C   C1612     1.0  0.33979  0.38888  0.81459  1.0000
  H   H1278     1.0  0.28397  0.40560  0.85054  1.0000
  H   H1279     1.0  0.30125  0.41489  0.66288  1.0000
  H   H1280     1.0  0.36821  0.53053  0.92380  1.0000
  H   H1281     1.0  0.00331  0.52437  0.76579  1.0000
  H   H1282     1.0  0.39799  0.52803  0.85046  1.0000
  C   C1613     1.0  0.45432  0.43543  0.51763  1.0000
  H   H1283     1.0  0.36471  0.39961  0.85496  1.0000
  C   C1614     1.0  0.28423  0.50252  0.48304  1.0000
  H   H1284     1.0  0.44094  0.51292  0.63257  1.0000
  S   S224      1.0  0.05901  0.39520  0.80292  1.0000
  H   H1285     1.0  0.43463  0.49431  0.74764  1.0000
  H   H1286     1.0  0.19866  0.47300  0.97167  1.0000
  H   H1287     1.0  0.24841  0.57754  0.69028  1.0000
  C   C1615     1.0  0.22942  0.38704  0.93950  1.0000
  H   H1288     1.0  0.14465  0.53354  0.70716  1.0000
  H   H1289     1.0  0.43612  0.52537  0.86161  1.0000
  C   C1616     1.0  0.42982  0.51099  0.80768  1.0000
  C   C1617     1.0  0.38902  0.54951  0.56443  1.0000
  H   H1290     1.0  0.99903  0.42384  0.72697  1.0000
  C   C1618     1.0  0.00724  0.44330  0.84904  1.0000
  H   H1291     1.0  0.34340  0.40168  0.81978  1.0000
  C   C1619     1.0  0.13886  0.57406  0.50810  1.0000
  C   C1620     1.0  0.16752  0.55227  0.69027  1.0000
  C   C1621     1.0  0.46860  0.42780  0.73501  1.0000
  P   P53       1.0  0.16181  0.55256  0.66528  1.0000
  C   C1622     1.0  0.18088  0.53214  0.65525  1.0000
  C   C1623     1.0  0.13577  0.54816  0.66722  1.0000
  C   C1624     1.0  0.13157  0.53496  0.65558  1.0000
  C   C1625     1.0  0.11122  0.53227  0.65667  1.0000
  H   H1292     1.0  0.12197  0.57040  0.68744  1.0000
  H   H1293     1.0  0.22416  0.57866  0.54849  1.0000
  C   C1626     1.0  0.25483  0.57370  0.63689  1.0000
  C   C1627     1.0  0.19857  0.53653  0.64097  1.0000
  C   C1628     1.0  0.21315  0.52046  0.63340  1.0000
  C   C1629     1.0  0.21052  0.49989  0.64052  1.0000
  C   C1630     1.0  0.19336  0.49536  0.65532  1.0000
  C   C1631     1.0  0.17867  0.51140  0.66279  1.0000
  H   H1294     1.0  0.20396  0.45468  0.93755  1.0000
  C   C1632     1.0  0.12084  0.58042  0.49924  1.0000
  S   S225      1.0  0.43172  0.39625  0.77373  1.0000
  C   C1633     1.0  0.43849  0.57760  0.87497  1.0000
  H   H1295     1.0  0.16930  0.56685  0.62063  1.0000
  H   H1296     1.0  0.14564  0.53222  0.51043  1.0000
  H   H1297     1.0  0.42180  0.48919  0.71793  1.0000
  H   H1298     1.0  0.42029  0.52093  0.81802  1.0000
  C   C1634     1.0  0.42145  0.44414  0.68321  1.0000
  C   C1635     1.0  0.47263  0.50756  0.63704  1.0000
  C   C1636     1.0  0.42773  0.39208  0.56959  1.0000
  H   H1299     1.0  0.14377  0.52734  0.64500  1.0000
  H   H1300     1.0  0.10804  0.52258  0.64713  1.0000
  H   H1301     1.0  0.43202  0.38653  0.66747  1.0000
  H   H1302     1.0  0.32564  0.38685  0.56994  1.0000
  S   S226      1.0  0.35371  0.39944  0.73896  1.0000
  H   H1303     1.0  0.20106  0.55231  0.63544  1.0000
  H   H1304     1.0  0.22627  0.52399  0.62167  1.0000
  H   H1305     1.0  0.22166  0.48743  0.63450  1.0000
  H   H1306     1.0  0.19135  0.47941  0.66082  1.0000
  H   H1307     1.0  0.16548  0.50762  0.67431  1.0000
  C   C1637     1.0  0.46767  0.41173  0.72524  1.0000
  H   H1308     1.0  0.37776  0.58184  0.48823  1.0000
  C   C1638     1.0  0.46803  0.45172  0.70272  1.0000
  C   C1639     1.0  0.11833  0.57374  0.61754  1.0000
  H   H1309     1.0  0.09691  0.57938  0.57191  1.0000
  H   H1310     1.0  0.99381  0.49750  0.67268  1.0000
  C   C1640     1.0  0.46706  0.43562  0.69277  1.0000
  C   C1641     1.0  0.44093  0.53530  0.84726  1.0000
  C   C1642     1.0  0.28518  0.47427  0.52186  1.0000
  C   C1643     1.0  0.28864  0.47156  0.54215  1.0000
  C   C1644     1.0  0.29983  0.45295  0.55099  1.0000
  C   C1645     1.0  0.30778  0.43695  0.53973  1.0000
  C   C1646     1.0  0.30419  0.43937  0.51966  1.0000
  C   C1647     1.0  0.29283  0.45788  0.51079  1.0000
  H   H1311     1.0  0.40011  0.54760  0.55049  1.0000
  C   C1648     1.0  0.27091  0.53652  0.66046  1.0000
  C   C1649     1.0  0.26908  0.55304  0.54208  1.0000
  C   C1650     1.0  0.25899  0.53659  0.55220  1.0000
  C   C1651     1.0  0.25970  0.52012  0.54221  1.0000
  H   H1312     1.0  0.24782  0.46385  0.52380  1.0000
  H   H1313     1.0  0.28280  0.48357  0.55135  1.0000
  H   H1314     1.0  0.30220  0.45088  0.56671  1.0000
  H   H1315     1.0  0.31667  0.42264  0.54658  1.0000
  H   H1316     1.0  0.31024  0.42685  0.51102  1.0000
  C   C1652     1.0  0.32995  0.52912  0.68250  1.0000
  H   H1317     1.0  0.40683  0.41950  0.64240  1.0000
  P   P54       1.0  0.29174  0.55585  0.68104  1.0000
  C   C1653     1.0  0.38241  0.38820  0.89035  1.0000
  H   H1318     1.0  0.25094  0.50797  0.54981  1.0000
  C   C1654     1.0  0.28005  0.55291  0.52212  1.0000
  C   C1655     1.0  0.24454  0.49670  0.51131  1.0000
  H   H1319     1.0  0.18595  0.49458  0.51808  1.0000
  C   C1656     1.0  0.45492  0.56114  0.81098  1.0000
  H   H1320     1.0  0.39990  0.54975  0.79779  1.0000
  H   H1321     1.0  0.47523  0.48042  0.59610  1.0000
  H   H1322     1.0  0.42885  0.39278  0.55325  1.0000
  H   H1323     1.0  0.48051  0.53617  0.80632  1.0000
  C   C1657     1.0  0.18962  0.55994  0.71098  1.0000
  C   C1658     1.0  0.33377  0.49367  0.70059  1.0000
  H   H1324     1.0  0.26807  0.56616  0.54943  1.0000
  H   H1325     1.0  0.18217  0.39690  0.94565  1.0000
  P   P55       1.0  0.21923  0.41009  0.95051  1.0000
  H   H1326     1.0  0.35932  0.50901  0.68489  1.0000
  H   H1327     1.0  0.25039  0.41640  0.97245  1.0000
  H   H1328     1.0  0.43634  0.50485  0.68267  1.0000
  H   H1329     1.0  0.34368  0.47922  0.70542  1.0000
  H   H1330     1.0  0.22653  0.52384  0.90992  1.0000
  C   C1659     1.0  0.17868  0.54949  0.72871  1.0000
  C   C1660     1.0  0.26864  0.43690  0.95109  1.0000
  H   H1331     1.0  0.38931  0.44609  0.69730  1.0000
  C   C1661     1.0  0.27713  0.43514  0.72067  1.0000
  C   C1662     1.0  0.43664  0.56805  0.82380  1.0000
  C   C1663     1.0  0.30825  0.53129  0.68801  1.0000
  S   S227      1.0  0.16386  0.57193  0.56620  1.0000
  C   C1664     1.0  0.43698  0.43763  0.66720  1.0000
  C   C1665     1.0  0.17997  0.41363  0.94152  1.0000
  H   H1332     1.0  0.00595  0.46068  0.64657  1.0000
  H   H1333     1.0  0.26925  0.44224  0.70780  1.0000
  C   C1666     1.0  0.17378  0.45676  0.93056  1.0000
  C   C1667     1.0  0.30597  0.50007  0.47855  1.0000
  H   H1334     1.0  0.38371  0.40386  0.88260  1.0000
  H   H1335     1.0  0.14415  0.45420  0.92449  1.0000
  C   C1668     1.0  0.01958  0.43742  0.77114  1.0000
  C   C1669     1.0  0.99094  0.45147  0.81252  1.0000
  H   H1336     1.0  0.05857  0.58275  0.63511  1.0000
  H   H1337     1.0  0.48747  0.58007  0.76267  1.0000
  H   H1338     1.0  0.28494  0.45668  0.92636  1.0000
  H   H1339     1.0  0.21489  0.39769  0.91244  1.0000
  C   C1670     1.0  0.42955  0.55521  0.84207  1.0000
  C   C1671     1.0  0.14496  0.50137  0.50670  1.0000
  C   C1672     1.0  0.42509  0.38910  0.61192  1.0000
  H   H1340     1.0  0.06099  0.41800  0.64062  1.0000
  C   C1673     1.0  0.43126  0.40876  0.57723  1.0000
  C   C1674     1.0  0.42994  0.40707  0.59856  1.0000
  P   P56       1.0  0.43776  0.43179  0.55962  1.0000
  C   C1675     1.0  0.45009  0.44622  0.57190  1.0000
  H   H1341     1.0  0.19303  0.56897  0.67811  1.0000
  C   C1676     1.0  0.01407  0.40652  0.68321  1.0000
  H   H1342     1.0  0.00804  0.48687  0.78004  1.0000
  H   H1343     1.0  0.31149  0.40233  0.96958  1.0000
  C   C1677     1.0  0.44706  0.47057  0.59488  1.0000
  C   C1678     1.0  0.43802  0.45822  0.58630  1.0000
  C   C1679     1.0  0.41502  0.44823  0.55092  1.0000
  C   C1680     1.0  0.41344  0.46990  0.54689  1.0000
  C   C1681     1.0  0.39623  0.48259  0.53944  1.0000
  C   C1682     1.0  0.38070  0.47377  0.53549  1.0000
  C   C1683     1.0  0.38242  0.45227  0.53889  1.0000
  C   C1684     1.0  0.39948  0.43952  0.54658  1.0000
  C   C1685     1.0  0.48231  0.42468  0.65034  1.0000
  C   C1686     1.0  0.39410  0.55788  0.57958  1.0000
  H   H1344     1.0  0.43268  0.41941  0.60506  1.0000
  H   H1345     1.0  0.25594  0.49949  0.92317  1.0000
  H   H1346     1.0  0.02586  0.44104  0.78322  1.0000
  H   H1347     1.0  0.01388  0.44021  0.86293  1.0000
  H   H1348     1.0  0.19128  0.52008  0.97112  1.0000
  C   C1687     1.0  0.16585  0.58025  0.62812  1.0000
  C   C1688     1.0  0.02767  0.42141  0.64834  1.0000
  H   H1349     1.0  0.42530  0.47713  0.54969  1.0000
  H   H1350     1.0  0.39472  0.49926  0.53721  1.0000
  H   H1351     1.0  0.36726  0.48358  0.52999  1.0000
  C   C1689     1.0  0.27548  0.56316  0.70426  1.0000
  C   C1690     1.0  0.22538  0.51790  0.92630  1.0000
  C   C1691     1.0  0.33205  0.45479  0.85371  1.0000
  C   C1692     1.0  0.34612  0.44964  0.83634  1.0000
  C   C1693     1.0  0.34253  0.42046  0.87289  1.0000
  C   C1694     1.0  0.33004  0.44019  0.87185  1.0000
  H   H1352     1.0  0.32800  0.56921  0.86760  1.0000
  C   C1695     1.0  0.09886  0.55681  0.68001  1.0000
  C   C1696     1.0  0.44054  0.51954  0.78877  1.0000
  P   P57       1.0  0.33944  0.40135  0.89608  1.0000
  C   C1697     1.0  0.48592  0.47290  0.65328  1.0000
  C   C1698     1.0  0.33356  0.41269  0.91904  1.0000
  C   C1699     1.0  0.34059  0.43092  0.91926  1.0000
  C   C1700     1.0  0.33660  0.43910  0.93741  1.0000
  C   C1701     1.0  0.32600  0.42889  0.95552  1.0000
  C   C1702     1.0  0.31941  0.41049  0.95549  1.0000
  C   C1703     1.0  0.32321  0.40240  0.93734  1.0000
  H   H1353     1.0  0.32258  0.47010  0.85305  1.0000
  H   H1354     1.0  0.34781  0.46100  0.82233  1.0000
  H   H1355     1.0  0.31868  0.44434  0.88496  1.0000
  H   H1356     1.0  0.42506  0.45116  0.69479  1.0000
  C   C1704     1.0  0.39622  0.58054  0.78001  1.0000
  C   C1705     1.0  0.29953  0.51446  0.70016  1.0000
  H   H1357     1.0  0.34938  0.43866  0.90552  1.0000
  H   H1358     1.0  0.34203  0.45318  0.93750  1.0000
  C   C1706     1.0  0.44142  0.50118  0.73243  1.0000
  C   C1707     1.0  0.40107  0.44137  0.68469  1.0000
  S   S228      1.0  0.31992  0.57408  0.48132  1.0000
  C   C1708     1.0  0.27155  0.56533  0.74041  1.0000
  C   C1709     1.0  0.27583  0.55517  0.66266  1.0000
  C   C1710     1.0  0.45370  0.48509  0.78083  1.0000
  C   C1711     1.0  0.25983  0.44763  0.91700  1.0000
  H   H1359     1.0  0.44309  0.42290  0.64027  1.0000
  Fe  Fe111     1.0  0.17340  0.39574  0.82959  1.0000
  H   H1360     1.0  0.44352  0.46002  0.80383  1.0000
  H   H1361     1.0  0.08608  0.56610  0.68859  1.0000
  H   H1362     1.0  0.00132  0.40218  0.69500  1.0000
  H   H1363     1.0  0.31487  0.49687  0.49084  1.0000
  C   C1712     1.0  0.37133  0.55127  0.49031  1.0000
  H   H1364     1.0  0.26274  0.45612  0.90139  1.0000
  C   C1713     1.0  0.39844  0.55900  0.78280  1.0000
  H   H1365     1.0  0.34630  0.58231  0.88927  1.0000
  C   C1714     1.0  0.28123  0.53623  0.51223  1.0000
  C   C1715     1.0  0.45248  0.50664  0.77516  1.0000
  H   H1366     1.0  0.13487  0.57136  0.61245  1.0000
  C   C1716     1.0  0.41101  0.42647  0.65370  1.0000
  C   C1717     1.0  0.36698  0.39111  0.67206  1.0000
  C   C1718     1.0  0.47678  0.57405  0.75641  1.0000
  H   H1367     1.0  0.14964  0.41591  0.93441  1.0000
  S   S229      1.0  0.18077  0.57032  0.50705  1.0000
  S   S230      1.0  0.46722  0.57109  0.68001  1.0000
  H   H1368     1.0  0.28968  0.53663  0.49666  1.0000
  C   C1719     1.0  0.26770  0.57377  0.65070  1.0000
  H   H1369     1.0  0.03671  0.39108  0.70231  1.0000
  C   C1720     1.0  0.39823  0.54941  0.76639  1.0000
  C   C1721     1.0  0.39527  0.56139  0.74732  1.0000
  H   H1370     1.0  0.46502  0.40323  0.69712  1.0000
  H   H1371     1.0  0.40014  0.53271  0.76845  1.0000
  H   H1372     1.0  0.39451  0.55401  0.73472  1.0000
  H   H1373     1.0  0.25439  0.52207  0.64483  1.0000
  C   C1722     1.0  0.08547  0.39151  0.80580  1.0000
  H   H1374     1.0  0.07904  0.54186  0.66890  1.0000
  C   C1723     1.0  0.45906  0.52831  0.83419  1.0000
  C   C1724     1.0  0.25126  0.57591  0.74022  1.0000
  H   H1375     1.0  0.36183  0.55959  0.69639  1.0000
  H   H1376     1.0  0.43750  0.47987  0.60586  1.0000
  H   H1377     1.0  0.13816  0.56523  0.52355  1.0000
  C   C1725     1.0  0.29640  0.40504  0.73942  1.0000
  H   H1378     1.0  0.12688  0.39834  0.85761  1.0000
  C   C1726     1.0  0.48288  0.39857  0.52258  1.0000
  C   C1727     1.0  0.36750  0.53720  0.47957  1.0000
  P   P58       1.0  0.27139  0.49840  0.50957  1.0000
  C   C1728     1.0  0.46879  0.44779  0.72375  1.0000
  H   H1379     1.0  0.13546  0.49773  0.52165  1.0000
  H   H1380     1.0  0.25889  0.57826  0.58365  1.0000
  C   C1729     1.0  0.46506  0.54484  0.74915  1.0000
  C   C1730     1.0  0.23741  0.47783  0.51881  1.0000
  C   C1731     1.0  0.27229  0.44801  0.93107  1.0000
  C   C1732     1.0  0.35585  0.41510  0.85504  1.0000
  H   H1381     1.0  0.29420  0.41128  0.90821  1.0000
  S   S231      1.0  0.31703  0.53592  0.76050  1.0000
  C   C1733     1.0  0.44978  0.55874  0.73939  1.0000
  H   H1382     1.0  0.43554  0.47738  0.64794  1.0000
  C   C1734     1.0  0.35792  0.42976  0.83698  1.0000
  C   C1735     1.0  0.25807  0.53651  0.64654  1.0000
  H   H1383     1.0  0.27806  0.56212  0.75441  1.0000
  Fe  Fe112     1.0  0.38259  0.39765  0.75150  1.0000
  C   C1736     1.0  0.00477  0.42799  0.73912  1.0000
  Fe  Fe113     1.0  0.18334  0.39420  0.87207  1.0000
  H   H1384     1.0  0.99813  0.49468  0.62467  1.0000
  C   C1737     1.0  0.15695  0.54133  0.70806  1.0000
  H   H1385     1.0  0.40902  0.56262  0.57742  1.0000
  P   P59       1.0  0.46698  0.51723  0.75094  1.0000
  C   C1738     1.0  0.47152  0.44617  0.56680  1.0000
  H   H1386     1.0  0.24040  0.55513  0.62370  1.0000
  H   H1387     1.0  0.33738  0.54183  0.67367  1.0000
  C   C1739     1.0  0.25013  0.55508  0.63470  1.0000
  C   C1740     1.0  0.23442  0.48946  0.77664  1.0000
  C   C1741     1.0  0.23800  0.50872  0.76531  1.0000
  C   C1742     1.0  0.25807  0.51135  0.75559  1.0000
  C   C1743     1.0  0.27459  0.49478  0.75726  1.0000
  C   C1744     1.0  0.27119  0.47547  0.76903  1.0000
  C   C1745     1.0  0.25093  0.47294  0.77861  1.0000
  P   P60       1.0  0.29181  0.45326  0.76948  1.0000
  C   C1746     1.0  0.28881  0.43790  0.75160  1.0000
  C   C1747     1.0  0.31712  0.46083  0.76202  1.0000
  C   C1748     1.0  0.33282  0.45019  0.74880  1.0000
  C   C1749     1.0  0.35259  0.45543  0.74351  1.0000
  C   C1750     1.0  0.35675  0.47172  0.75093  1.0000
  C   C1751     1.0  0.34123  0.48259  0.76392  1.0000
  C   C1752     1.0  0.32150  0.47714  0.76955  1.0000
  C   C1753     1.0  0.29765  0.41683  0.75374  1.0000
  H   H1388     1.0  0.46265  0.47485  0.77046  1.0000
  C   C1754     1.0  0.27852  0.44701  0.73492  1.0000
  C   C1755     1.0  0.28950  0.43816  0.79525  1.0000
  C   C1756     1.0  0.27608  0.42359  0.80130  1.0000
  C   C1757     1.0  0.27420  0.41187  0.82114  1.0000
  C   C1758     1.0  0.28560  0.41459  0.83515  1.0000
  C   C1759     1.0  0.29880  0.42916  0.82939  1.0000
  C   C1760     1.0  0.30075  0.44094  0.80955  1.0000
  H   H1389     1.0  0.21889  0.48728  0.78431  1.0000
  H   H1390     1.0  0.22522  0.52160  0.76420  1.0000
  H   H1391     1.0  0.26089  0.52624  0.74682  1.0000
  H   H1392     1.0  0.28993  0.49721  0.74936  1.0000
  H   H1393     1.0  0.24771  0.45824  0.78766  1.0000
  H   H1394     1.0  0.32998  0.43775  0.74256  1.0000
  H   H1395     1.0  0.36473  0.44672  0.73373  1.0000
  H   H1396     1.0  0.37204  0.47587  0.74663  1.0000
  H   H1397     1.0  0.34452  0.49528  0.76963  1.0000
  H   H1398     1.0  0.30969  0.48571  0.77972  1.0000
  H   H1399     1.0  0.30601  0.40969  0.76619  1.0000
  H   H1400     1.0  0.27168  0.46327  0.73280  1.0000
  H   H1401     1.0  0.26687  0.42137  0.79081  1.0000
  Fe  Fe114     1.0  0.43742  0.57478  0.66670  1.0000
  H   H1402     1.0  0.33519  0.40643  0.78485  1.0000
  H   H1403     1.0  0.30733  0.43150  0.84040  1.0000
  H   H1404     1.0  0.31091  0.45224  0.80564  1.0000
  H   H1405     1.0  0.37073  0.54732  0.50680  1.0000
  C   C1761     1.0  0.32687  0.53556  0.52985  1.0000
  C   C1762     1.0  0.32603  0.51475  0.53109  1.0000
  C   C1763     1.0  0.32624  0.50130  0.54989  1.0000
  C   C1764     1.0  0.32753  0.50858  0.56747  1.0000
  C   C1765     1.0  0.32767  0.52967  0.56640  1.0000
  C   C1766     1.0  0.32727  0.54313  0.54745  1.0000
  P   P61       1.0  0.32953  0.53971  0.58858  1.0000
  C   C1767     1.0  0.32340  0.52144  0.61200  1.0000
  C   C1768     1.0  0.35515  0.54610  0.58535  1.0000
  C   C1769     1.0  0.36055  0.55433  0.60056  1.0000
  C   C1770     1.0  0.37989  0.56020  0.59763  1.0000
  C   C1771     1.0  0.45742  0.51923  0.69259  1.0000
  C   C1772     1.0  0.31742  0.57626  0.64880  1.0000
  C   C1773     1.0  0.36974  0.54342  0.56736  1.0000
  C   C1774     1.0  0.30460  0.51392  0.61632  1.0000
  C   C1775     1.0  0.29986  0.49963  0.63418  1.0000
  C   C1776     1.0  0.31380  0.49258  0.64788  1.0000
  C   C1777     1.0  0.33250  0.49985  0.64371  1.0000
  C   C1778     1.0  0.33735  0.51414  0.62588  1.0000
  C   C1779     1.0  0.30948  0.56248  0.58933  1.0000
  C   C1780     1.0  0.28960  0.56160  0.58626  1.0000
  H   H1406     1.0  0.32683  0.54593  0.51528  1.0000
  H   H1407     1.0  0.32517  0.50909  0.51749  1.0000
  H   H1408     1.0  0.32559  0.48519  0.55071  1.0000
  H   H1409     1.0  0.32850  0.49776  0.58175  1.0000
  H   H1410     1.0  0.32759  0.55945  0.54621  1.0000
  H   H1411     1.0  0.34981  0.55625  0.61468  1.0000
  H   H1412     1.0  0.38397  0.56664  0.60932  1.0000
  H   H1413     1.0  0.28762  0.56583  0.51434  1.0000
  C   C1781     1.0  0.20572  0.51592  0.96094  1.0000
  H   H1414     1.0  0.36647  0.53656  0.55557  1.0000
  H   H1415     1.0  0.29383  0.51845  0.60567  1.0000
  H   H1416     1.0  0.28556  0.49359  0.63716  1.0000
  H   H1417     1.0  0.31035  0.48111  0.66144  1.0000
  H   H1418     1.0  0.34354  0.49398  0.65405  1.0000
  H   H1419     1.0  0.35227  0.51885  0.62286  1.0000
  H   H1420     1.0  0.28618  0.54760  0.58325  1.0000
  H   H1421     1.0  0.48131  0.43664  0.55619  1.0000
  C   C1782     1.0  0.20935  0.51383  0.50787  1.0000
  C   C1783     1.0  0.39583  0.43264  0.66989  1.0000
  C   C1784     1.0  0.48161  0.41007  0.50289  1.0000
  C   C1785     1.0  0.21636  0.47706  0.52094  1.0000
  C   C1786     1.0  0.00087  0.43143  0.81985  1.0000
  C   C1787     1.0  0.15775  0.57896  0.49686  1.0000
  C   C1788     1.0  0.31225  0.49566  0.70622  1.0000
  H   H1422     1.0  0.17142  0.47346  0.92616  1.0000
  H   H1423     1.0  0.26366  0.40084  0.82575  1.0000
  C   C1789     1.0  0.34260  0.51043  0.68891  1.0000
  C   C1790     1.0  0.28355  0.55885  0.72256  1.0000
  C   C1791     1.0  0.19577  0.42427  0.94176  1.0000
  H   H1424     1.0  0.34312  0.53395  0.72126  1.0000
  H   H1425     1.0  0.36871  0.42567  0.82343  1.0000
  C   C1792     1.0  0.46829  0.47089  0.58931  1.0000
  C   C1793     1.0  0.43157  0.42872  0.65242  1.0000
  C   C1794     1.0  0.37529  0.57072  0.47985  1.0000
  C   C1795     1.0  0.27122  0.51957  0.52233  1.0000
  H   H1426     1.0  0.46727  0.39627  0.73401  1.0000
  C   C1796     1.0  0.45056  0.48147  0.64696  1.0000
  H   H1427     1.0  0.32226  0.57703  0.76325  1.0000
  H   H1428     1.0  0.27700  0.52195  0.66929  1.0000
  C   C1797     1.0  0.24299  0.58015  0.72211  1.0000
  H   H1429     1.0  0.32314  0.43504  0.96966  1.0000
  C   C1798     1.0  0.27406  0.57912  0.58618  1.0000
  C   C1799     1.0  0.09487  0.54320  0.66886  1.0000
  H   H1430     1.0  0.24204  0.58092  0.75411  1.0000
  H   H1431     1.0  0.15414  0.53175  0.74093  1.0000
  C   C1800     1.0  0.11923  0.55932  0.67920  1.0000
  C   C1801     1.0  0.16241  0.54014  0.72723  1.0000
  H   H1432     1.0  0.18293  0.54843  0.74357  1.0000
  C   C1802     1.0  0.47851  0.55268  0.75774  1.0000
  H   H1433     1.0  0.31519  0.56564  0.63971  1.0000
  H   H1434     1.0  0.47469  0.52338  0.63061  1.0000
  C   C1803     1.0  0.16215  0.57791  0.64964  1.0000
  H   H1435     1.0  0.09091  0.40297  0.87704  1.0000
  H   H1436     1.0  0.28534  0.40507  0.71169  1.0000
  H   H1437     1.0  0.27849  0.43682  0.96193  1.0000
  C   C1804     1.0  0.25504  0.57384  0.70416  1.0000
  C   C1805     1.0  0.30783  0.57517  0.66952  1.0000
  C   C1806     1.0  0.28427  0.40459  0.64441  1.0000
  C   C1807     1.0  0.33098  0.57318  0.74875  1.0000
  C   C1808     1.0  0.15153  0.48663  0.49379  1.0000
  C   C1809     1.0  0.11925  0.38507  0.86378  1.0000
  C   C1810     1.0  0.12770  0.38736  0.80968  1.0000
  C   C1811     1.0  0.09900  0.38765  0.87470  1.0000
  C   C1812     1.0  0.99229  0.46420  0.63946  1.0000
  C   C1813     1.0  0.37632  0.57642  0.83616  1.0000
  C   C1814     1.0  0.41712  0.57877  0.87581  1.0000
  C   C1815     1.0  0.31858  0.38930  0.89390  1.0000
  H   H1438     1.0  0.27038  0.39015  0.62646  1.0000
  C   C1816     1.0  0.28171  0.38953  0.89729  1.0000
  S   S232      1.0  0.37074  0.38504  0.64745  1.0000
  C   C1817     1.0  0.37827  0.38580  0.70498  1.0000
  H   H1439     1.0  0.31833  0.38794  0.93765  1.0000
  Fe  Fe115     1.0  0.40168  0.38648  0.79021  1.0000
  C   C1818     1.0  0.22493  0.38533  0.92062  1.0000
  C   C1819     1.0  0.28098  0.38773  0.63720  1.0000
  H   H1440     1.0  0.20562  0.48584  0.47566  1.0000
  S   S233      1.0  0.15461  0.38452  0.81054  1.0000
  C   C1820     1.0  0.21552  0.75012  0.97728  1.0000
  Fe  Fe116     1.0  0.45122  0.61421  0.31809  1.0000
  H   H1441     1.0  0.14287  0.65712  0.32389  1.0000
  H   H1442     1.0  0.06414  0.64266  0.05192  1.0000
  Fe  Fe117     1.0  0.43472  0.65764  0.32611  1.0000
  S   S234      1.0  0.41500  0.64700  0.35609  1.0000
  S   S235      1.0  0.43662  0.69122  0.31336  1.0000
  Fe  Fe118     1.0  0.44286  0.62268  0.36199  1.0000
  C   C1821     1.0  0.08360  0.60111  0.09629  1.0000
  Fe  Fe119     1.0  0.40663  0.62537  0.33903  1.0000
  S   S236      1.0  0.37224  0.62495  0.34277  1.0000
  S   S237      1.0  0.46323  0.63488  0.33321  1.0000
  S   S238      1.0  0.42445  0.63798  0.30845  1.0000
  Fe  Fe120     1.0  0.03529  0.60725  0.24203  1.0000
  S   S239      1.0  0.06500  0.61962  0.23659  1.0000
  C   C1822     1.0  0.41230  0.62349  0.43635  1.0000
  Fe  Fe121     1.0  0.06494  0.61030  0.27064  1.0000
  S   S240      1.0  0.07513  0.63291  0.28590  1.0000
  C   C1823     1.0  0.47363  0.69834  0.19379  1.0000
  H   H1443     1.0  0.48335  0.61456  0.45195  1.0000
  C   C1824     1.0  0.48625  0.77072  0.18095  1.0000
  Fe  Fe122     1.0  0.10102  0.62800  0.44229  1.0000
  S   S241      1.0  0.11526  0.65513  0.44224  1.0000
  P   P62       1.0  0.99406  0.63890  0.33549  1.0000
  Fe  Fe123     1.0  0.08925  0.64515  0.39976  1.0000
  S   S242      1.0  0.10247  0.67445  0.39632  1.0000
  S   S243      1.0  0.07065  0.63297  0.38130  1.0000
  Fe  Fe124     1.0  0.12907  0.65280  0.40952  1.0000
  S   S244      1.0  0.16266  0.65606  0.40350  1.0000
  Fe  Fe125     1.0  0.08805  0.67511  0.42967  1.0000
  S   S245      1.0  0.07012  0.70249  0.44508  1.0000
  S   S246      1.0  0.11720  0.62371  0.41058  1.0000
  S   S247      1.0  0.07248  0.64783  0.43201  1.0000
  C   C1825     1.0  0.44758  0.74649  0.18892  1.0000
  C   C1826     1.0  0.12383  0.61773  0.35817  1.0000
  S   S248      1.0  0.09825  0.70735  0.00674  1.0000
  Fe  Fe126     1.0  0.03969  0.70674  0.02829  1.0000
  S   S249      1.0  0.06429  0.68938  0.04626  1.0000
  S   S250      1.0  0.00652  0.70414  0.04167  1.0000
  Fe  Fe127     1.0  0.07846  0.71808  0.03524  1.0000
  S   S251      1.0  0.08923  0.73509  0.05510  1.0000
  Fe  Fe128     1.0  0.08115  0.68034  0.01614  1.0000
  S   S252      1.0  0.08898  0.64728  0.01106  1.0000
  S   S253      1.0  0.05231  0.73640  0.01974  1.0000
  S   S254      1.0  0.05550  0.69630  0.99885  1.0000
  C   C1827     1.0  0.99050  0.64768  0.01867  1.0000
  Fe  Fe129     1.0  0.36179  0.76949  0.36675  1.0000
  S   S255      1.0  0.38275  0.75419  0.38940  1.0000
  S   S256      1.0  0.35519  0.75072  0.34570  1.0000
  S   S257      1.0  0.34920  0.75480  0.44528  1.0000
  C   C1828     1.0  0.32821  0.74256  0.22611  1.0000
  C   C1829     1.0  0.41712  0.63435  0.44974  1.0000
  S   S258      1.0  0.00986  0.62599  0.22472  1.0000
  H   H1444     1.0  0.25000  0.66243  0.46706  1.0000
  H   H1445     1.0  0.31764  0.72677  0.20664  1.0000
  C   C1830     1.0  0.05275  0.58752  0.01553  1.0000
  H   H1446     1.0  0.23460  0.71694  0.42293  1.0000
  H   H1447     1.0  0.45130  0.66862  0.23912  1.0000
  C   C1831     1.0  0.14784  0.61663  0.24241  1.0000
  C   C1832     1.0  0.40940  0.69474  0.45676  1.0000
  H   H1448     1.0  0.14845  0.62591  0.22714  1.0000
  H   H1449     1.0  0.40348  0.75153  0.42717  1.0000
  C   C1833     1.0  0.48112  0.67701  0.19627  1.0000
  C   C1834     1.0  0.48184  0.76250  0.33303  1.0000
  S   S259      1.0  0.99148  0.61417  0.08577  1.0000
  H   H1450     1.0  0.24611  0.67898  0.43131  1.0000
  C   C1835     1.0  0.34423  0.72975  0.44758  1.0000
  C   C1836     1.0  0.34438  0.72179  0.43003  1.0000
  C   C1837     1.0  0.33993  0.70193  0.43202  1.0000
  H   H1451     1.0  0.34781  0.73098  0.41492  1.0000
  H   H1452     1.0  0.34006  0.69582  0.41838  1.0000
  C   C1838     1.0  0.06783  0.74992  0.06848  1.0000
  C   C1839     1.0  0.04947  0.74203  0.07646  1.0000
  C   C1840     1.0  0.03296  0.75328  0.08839  1.0000
  C   C1841     1.0  0.98989  0.64101  0.29471  1.0000
  H   H1453     1.0  0.15719  0.59183  0.32297  1.0000
  C   C1842     1.0  0.14840  0.60466  0.33017  1.0000
  H   H1454     1.0  0.04820  0.72702  0.07385  1.0000
  H   H1455     1.0  0.01897  0.74693  0.09488  1.0000
  C   C1843     1.0  0.45882  0.74540  0.22909  1.0000
  C   C1844     1.0  0.19563  0.58535  0.29413  1.0000
  C   C1845     1.0  0.13886  0.60061  0.04066  1.0000
  C   C1846     1.0  0.13884  0.62186  0.03857  1.0000
  C   C1847     1.0  0.12310  0.63646  0.03021  1.0000
  C   C1848     1.0  0.10791  0.62974  0.02318  1.0000
  C   C1849     1.0  0.10802  0.60850  0.02518  1.0000
  C   C1850     1.0  0.99866  0.70938  0.98812  1.0000
  H   H1456     1.0  0.15101  0.62701  0.04341  1.0000
  H   H1457     1.0  0.12308  0.65286  0.02857  1.0000
  H   H1458     1.0  0.18278  0.59771  0.29140  1.0000
  C   C1851     1.0  0.33507  0.69007  0.45154  1.0000
  H   H1459     1.0  0.47778  0.71564  0.44656  1.0000
  C   C1852     1.0  0.01799  0.66158  0.04982  1.0000
  C   C1853     1.0  0.01447  0.64165  0.05975  1.0000
  H   H1460     1.0  0.37852  0.67638  0.44528  1.0000
  H   H1461     1.0  0.03230  0.66356  0.03929  1.0000
  H   H1462     1.0  0.02615  0.62829  0.05691  1.0000
  H   H1463     1.0  0.03275  0.59943  0.16279  1.0000
  H   H1464     1.0  0.40569  0.77058  0.15432  1.0000
  P   P63       1.0  0.99655  0.77185  0.98112  1.0000
  C   C1854     1.0  0.02063  0.65714  0.35002  1.0000
  C   C1855     1.0  0.29072  0.70045  0.42689  1.0000
  C   C1856     1.0  0.07436  0.63220  0.31248  1.0000
  C   C1857     1.0  0.06688  0.61657  0.32767  1.0000
  C   C1858     1.0  0.06688  0.61654  0.34856  1.0000
  C   C1859     1.0  0.07370  0.63241  0.35461  1.0000
  C   C1860     1.0  0.08083  0.64823  0.33942  1.0000
  C   C1861     1.0  0.08140  0.64796  0.31848  1.0000
  H   H1465     1.0  0.06093  0.60462  0.32337  1.0000
  H   H1466     1.0  0.06113  0.60439  0.36017  1.0000
  H   H1467     1.0  0.08548  0.66093  0.34381  1.0000
  H   H1468     1.0  0.08701  0.66026  0.30688  1.0000
  H   H1469     1.0  0.45400  0.73794  0.39016  1.0000
  C   C1862     1.0  0.10151  0.72335  0.44632  1.0000
  C   C1863     1.0  0.08174  0.71887  0.45508  1.0000
  C   C1864     1.0  0.06936  0.76940  0.07188  1.0000
  C   C1865     1.0  0.17896  0.76470  0.98079  1.0000
  H   H1470     1.0  0.11010  0.71665  0.43314  1.0000
  H   H1471     1.0  0.08948  0.58929  0.10836  1.0000
  C   C1866     1.0  0.47144  0.62109  0.23974  1.0000
  C   C1867     1.0  0.20846  0.61384  0.36353  1.0000
  C   C1868     1.0  0.21465  0.61989  0.37957  1.0000
  C   C1869     1.0  0.20046  0.63285  0.39186  1.0000
  C   C1870     1.0  0.17984  0.63890  0.38879  1.0000
  C   C1871     1.0  0.17346  0.63209  0.37335  1.0000
  C   C1872     1.0  0.18788  0.62003  0.36039  1.0000
  H   H1472     1.0  0.46625  0.70567  0.18068  1.0000
  H   H1473     1.0  0.20546  0.63818  0.40376  1.0000
  H   H1474     1.0  0.15762  0.63689  0.37093  1.0000
  H   H1475     1.0  0.18313  0.61556  0.34785  1.0000
  H   H1476     1.0  0.12532  0.74012  0.44749  1.0000
  H   H1477     1.0  0.04611  0.63510  0.00720  1.0000
  C   C1873     1.0  0.39918  0.71117  0.46706  1.0000
  C   C1874     1.0  0.28556  0.71350  0.44146  1.0000
  H   H1478     1.0  0.42538  0.68664  0.42740  1.0000
  C   C1875     1.0  0.46768  0.61704  0.26138  1.0000
  C   C1876     1.0  0.41755  0.69906  0.43568  1.0000
  S   S260      1.0  0.09845  0.60199  0.46954  1.0000
  H   H1479     1.0  0.15312  0.59387  0.14804  1.0000
  H   H1480     1.0  0.47941  0.66803  0.18529  1.0000
  C   C1877     1.0  0.14035  0.59769  0.46842  1.0000
  C   C1878     1.0  0.07684  0.59521  0.08053  1.0000
  C   C1879     1.0  0.11008  0.73668  0.45449  1.0000
  H   H1481     1.0  0.32998  0.61975  0.35536  1.0000
  C   C1880     1.0  0.41391  0.70763  0.32243  1.0000
  C   C1881     1.0  0.39523  0.70019  0.32957  1.0000
  C   C1882     1.0  0.37723  0.71345  0.33684  1.0000
  C   C1883     1.0  0.37790  0.73404  0.33731  1.0000
  C   C1884     1.0  0.39665  0.74139  0.33053  1.0000
  C   C1885     1.0  0.41446  0.72836  0.32254  1.0000
  H   H1482     1.0  0.39459  0.68426  0.32941  1.0000
  H   H1483     1.0  0.36292  0.70757  0.34264  1.0000
  H   H1484     1.0  0.39734  0.75720  0.33117  1.0000
  H   H1485     1.0  0.42875  0.73425  0.31696  1.0000
  C   C1886     1.0  0.99534  0.67611  0.12082  1.0000
  C   C1887     1.0  0.48664  0.60788  0.22858  1.0000
  H   H1486     1.0  0.17578  0.59035  0.11433  1.0000
  C   C1888     1.0  0.06927  0.63112  0.06451  1.0000
  C   C1889     1.0  0.36029  0.60332  0.34458  1.0000
  C   C1890     1.0  0.14552  0.59229  0.28159  1.0000
  C   C1891     1.0  0.01314  0.59859  0.33083  1.0000
  C   C1892     1.0  0.19802  0.58348  0.42780  1.0000
  C   C1893     1.0  0.24207  0.68826  0.44338  1.0000
  H   H1487     1.0  0.39207  0.62331  0.41566  1.0000
  C   C1894     1.0  0.18018  0.70513  0.44921  1.0000
  C   C1895     1.0  0.15713  0.70533  0.41915  1.0000
  C   C1896     1.0  0.42728  0.75456  0.19770  1.0000
  H   H1488     1.0  0.13508  0.73133  0.03789  1.0000
  H   H1489     1.0  0.33641  0.59390  0.44231  1.0000
  H   H1490     1.0  0.30666  0.76225  0.37626  1.0000
  C   C1897     1.0  0.23031  0.72158  0.45433  1.0000
  Fe  Fe130     1.0  0.07099  0.72410  0.99192  1.0000
  C   C1898     1.0  0.07604  0.63709  0.08018  1.0000
  C   C1899     1.0  0.08280  0.62216  0.09644  1.0000
  C   C1900     1.0  0.99673  0.61344  0.21210  1.0000
  P   P64       1.0  0.09129  0.62961  0.11699  1.0000
  C   C1901     1.0  0.11805  0.61716  0.11655  1.0000
  C   C1902     1.0  0.08923  0.65741  0.11229  1.0000
  C   C1903     1.0  0.10657  0.66683  0.10317  1.0000
  C   C1904     1.0  0.10440  0.68842  0.09862  1.0000
  C   C1905     1.0  0.08499  0.70072  0.10308  1.0000
  C   C1906     1.0  0.06764  0.69148  0.11189  1.0000
  C   C1907     1.0  0.06973  0.66991  0.11660  1.0000
  C   C1908     1.0  0.12617  0.60936  0.13477  1.0000
  C   C1909     1.0  0.14699  0.59995  0.13394  1.0000
  H   H1491     1.0  0.37812  0.59144  0.45093  1.0000
  H   H1492     1.0  0.47512  0.77586  0.30279  1.0000
  C   C1910     1.0  0.13105  0.61514  0.09755  1.0000
  C   C1911     1.0  0.07474  0.62285  0.14133  1.0000
  C   C1912     1.0  0.05830  0.61232  0.14278  1.0000
  C   C1913     1.0  0.04531  0.60771  0.16163  1.0000
  C   C1914     1.0  0.04861  0.61364  0.17911  1.0000
  C   C1915     1.0  0.06450  0.62464  0.17771  1.0000
  C   C1916     1.0  0.07738  0.62944  0.15886  1.0000
  H   H1493     1.0  0.00556  0.75228  0.05420  1.0000
  C   C1917     1.0  0.33974  0.71777  0.46713  1.0000
  C   C1918     1.0  0.19944  0.77919  0.43205  1.0000
  H   H1494     1.0  0.07606  0.65334  0.07935  1.0000
  C   C1919     1.0  0.00479  0.74489  0.97875  1.0000
  H   H1495     1.0  0.12168  0.65763  0.09923  1.0000
  H   H1496     1.0  0.11767  0.69573  0.09122  1.0000
  H   H1497     1.0  0.08337  0.71744  0.09933  1.0000
  H   H1498     1.0  0.05254  0.70112  0.11466  1.0000
  H   H1499     1.0  0.05607  0.66296  0.12320  1.0000
  H   H1500     1.0  0.11654  0.61010  0.14967  1.0000
  H   H1501     1.0  0.48701  0.66486  0.46177  1.0000
  H   H1502     1.0  0.01698  0.75614  0.14718  1.0000
  H   H1503     1.0  0.01164  0.69491  0.09487  1.0000
  H   H1504     1.0  0.05835  0.59196  0.99925  1.0000
  H   H1505     1.0  0.05526  0.60776  0.12948  1.0000
  C   C1920     1.0  0.32830  0.58906  0.35158  1.0000
  H   H1506     1.0  0.03901  0.60950  0.19381  1.0000
  H   H1507     1.0  0.06693  0.62930  0.19130  1.0000
  H   H1508     1.0  0.08946  0.63821  0.15800  1.0000
  C   C1921     1.0  0.99581  0.64562  0.27335  1.0000
  C   C1922     1.0  0.43730  0.75545  0.15520  1.0000
  H   H1509     1.0  0.06512  0.65762  0.97924  1.0000
  H   H1510     1.0  0.12518  0.62080  0.08324  1.0000
  C   C1923     1.0  0.36705  0.60945  0.39695  1.0000
  H   H1511     1.0  0.22831  0.73974  0.98354  1.0000
  H   H1512     1.0  0.42195  0.60896  0.43332  1.0000
  C   C1924     1.0  0.00144  0.77647  0.00505  1.0000
  H   H1513     1.0  0.47443  0.77192  0.22223  1.0000
  H   H1514     1.0  0.11640  0.75768  0.01357  1.0000
  H   H1515     1.0  0.10275  0.75197  0.98277  1.0000
  H   H1516     1.0  0.16933  0.58383  0.36808  1.0000
  H   H1517     1.0  0.11767  0.61392  0.28979  1.0000
  H   H1518     1.0  0.15618  0.74184  0.05876  1.0000
  C   C1925     1.0  0.41222  0.76306  0.18526  1.0000
  H   H1519     1.0  0.17470  0.64249  0.45429  1.0000
  C   C1926     1.0  0.48135  0.74535  0.34895  1.0000
  C   C1927     1.0  0.27935  0.73480  0.43544  1.0000
  P   P65       1.0  0.46798  0.73771  0.20424  1.0000
  C   C1928     1.0  0.39732  0.73157  0.45643  1.0000
  C   C1929     1.0  0.12321  0.59394  0.03433  1.0000
  H   H1520     1.0  0.04133  0.67015  0.36212  1.0000
  H   H1521     1.0  0.44126  0.72062  0.24107  1.0000
  H   H1522     1.0  0.00245  0.65565  0.00896  1.0000
  C   C1930     1.0  0.13150  0.62190  0.25810  1.0000
  H   H1523     1.0  0.25686  0.76793  0.30389  1.0000
  C   C1931     1.0  0.48581  0.69970  0.22477  1.0000
  S   S261      1.0  0.22645  0.59981  0.34637  1.0000
  H   H1524     1.0  0.02983  0.58435  0.38439  1.0000
  H   H1525     1.0  0.20104  0.59917  0.42410  1.0000
  H   H1526     1.0  0.11943  0.63518  0.25508  1.0000
  H   H1527     1.0  0.98997  0.69800  0.99786  1.0000
  C   C1932     1.0  0.01928  0.72438  0.14409  1.0000
  C   C1933     1.0  0.00952  0.71006  0.13915  1.0000
  C   C1934     1.0  0.28966  0.70865  0.40627  1.0000
  C   C1935     1.0  0.00862  0.61357  0.34358  1.0000
  C   C1936     1.0  0.07066  0.72791  0.47207  1.0000
  C   C1937     1.0  0.47580  0.70986  0.20811  1.0000
  C   C1938     1.0  0.00892  0.63920  0.12490  1.0000
  C   C1939     1.0  0.02434  0.64267  0.10773  1.0000
  C   C1940     1.0  0.02547  0.66283  0.09726  1.0000
  C   C1941     1.0  0.01097  0.67948  0.10368  1.0000
  C   C1942     1.0  0.03442  0.77284  0.09164  1.0000
  H   H1528     1.0  0.48766  0.63378  0.37640  1.0000
  C   C1943     1.0  0.44315  0.75782  0.26734  1.0000
  C   C1944     1.0  0.03234  0.59523  0.02429  1.0000
  C   C1945     1.0  0.15179  0.60563  0.09681  1.0000
  H   H1529     1.0  0.03470  0.71967  0.14792  1.0000
  H   H1530     1.0  0.01741  0.69416  0.13968  1.0000
  H   H1531     1.0  0.45857  0.60491  0.43499  1.0000
  C   C1946     1.0  0.47737  0.71396  0.43106  1.0000
  C   C1947     1.0  0.04287  0.63728  0.99172  1.0000
  H   H1532     1.0  0.00768  0.62355  0.13273  1.0000
  H   H1533     1.0  0.03490  0.62970  0.10206  1.0000
  H   H1534     1.0  0.03697  0.66556  0.08357  1.0000
  C   C1948     1.0  0.47876  0.59937  0.27189  1.0000
  C   C1949     1.0  0.13463  0.60097  0.34878  1.0000
  C   C1950     1.0  0.00352  0.59339  0.99749  1.0000
  H   H1535     1.0  0.42123  0.72270  0.40874  1.0000
  C   C1951     1.0  0.45399  0.66658  0.46513  1.0000
  H   H1536     1.0  0.18413  0.58657  0.40114  1.0000
  Fe  Fe131     1.0  0.08051  0.58707  0.23426  1.0000
  C   C1952     1.0  0.00281  0.67889  0.05342  1.0000
  H   H1537     1.0  0.11302  0.61532  0.37237  1.0000
  C   C1953     1.0  0.14052  0.64147  0.33070  1.0000
  C   C1954     1.0  0.15377  0.69247  0.43827  1.0000
  C   C1955     1.0  0.35780  0.63037  0.39356  1.0000
  H   H1538     1.0  0.45590  0.62724  0.26987  1.0000
  H   H1539     1.0  0.23057  0.61525  0.38196  1.0000
  C   C1956     1.0  0.02812  0.62739  0.98749  1.0000
  H   H1540     1.0  0.29366  0.69845  0.39502  1.0000
  C   C1957     1.0  0.01340  0.65461  0.26490  1.0000
  H   H1541     1.0  0.46142  0.66661  0.38842  1.0000
  H   H1542     1.0  0.03292  0.64569  0.34389  1.0000
  C   C1958     1.0  0.16197  0.58681  0.26592  1.0000
  H   H1543     1.0  0.99816  0.74590  0.02230  1.0000
  C   C1959     1.0  0.47369  0.65801  0.46987  1.0000
  H   H1544     1.0  0.08352  0.77555  0.06569  1.0000
  H   H1545     1.0  0.19755  0.76437  0.40732  1.0000
  H   H1546     1.0  0.09631  0.60335  0.01964  1.0000
  H   H1547     1.0  0.36368  0.64068  0.37993  1.0000
  H   H1548     1.0  0.00818  0.60208  0.31606  1.0000
  S   S262      1.0  0.38226  0.75886  0.98205  1.0000
  S   S263      1.0  0.43270  0.60002  0.34746  1.0000
  H   H1549     1.0  0.43664  0.76290  0.28194  1.0000
  S   S264      1.0  0.45185  0.61226  0.39381  1.0000
  H   H1550     1.0  0.46184  0.78176  0.25612  1.0000
  C   C1960     1.0  0.37142  0.58466  0.33894  1.0000
  H   H1551     1.0  0.43053  0.62787  0.45700  1.0000
  C   C1961     1.0  0.41724  0.76355  0.16403  1.0000
  C   C1962     1.0  0.33873  0.60537  0.35099  1.0000
  P   P66       1.0  0.41115  0.66820  0.46991  1.0000
  C   C1963     1.0  0.19542  0.75102  0.98862  1.0000
  C   C1964     1.0  0.17178  0.71834  0.41513  1.0000
  C   C1965     1.0  0.99311  0.73007  0.99068  1.0000
  C   C1966     1.0  0.48782  0.65764  0.28620  1.0000
  H   H1552     1.0  0.29557  0.68395  0.43160  1.0000
  C   C1967     1.0  0.13045  0.60982  0.27772  1.0000
  C   C1968     1.0  0.09904  0.74562  0.47156  1.0000
  H   H1553     1.0  0.42309  0.75493  0.21399  1.0000
  H   H1554     1.0  0.28653  0.70699  0.45742  1.0000
  S   S265      1.0  0.42992  0.77936  0.37833  1.0000
  C   C1969     1.0  0.23541  0.70963  0.43872  1.0000
  H   H1555     1.0  0.31502  0.77514  0.33928  1.0000
  C   C1970     1.0  0.99449  0.65586  0.13147  1.0000
  C   C1971     1.0  0.29966  0.78006  0.34749  1.0000
  H   H1556     1.0  0.21211  0.58331  0.24179  1.0000
  C   C1972     1.0  0.46874  0.74472  0.31225  1.0000
  H   H1557     1.0  0.47288  0.78111  0.37021  1.0000
  H   H1558     1.0  0.31684  0.75648  0.22345  1.0000
  H   H1559     1.0  0.46241  0.63436  0.23158  1.0000
  H   H1560     1.0  0.02582  0.77732  0.47381  1.0000
  C   C1973     1.0  0.44567  0.73407  0.24417  1.0000
  C   C1974     1.0  0.34261  0.60393  0.42870  1.0000
  H   H1561     1.0  0.48509  0.75961  0.41496  1.0000
  H   H1562     1.0  0.03912  0.66531  0.27128  1.0000
  H   H1563     1.0  0.32034  0.63062  0.43621  1.0000
  C   C1975     1.0  0.20771  0.76966  0.41487  1.0000
  P   P67       1.0  0.01442  0.61057  0.00792  1.0000
  C   C1976     1.0  0.43784  0.74027  0.26322  1.0000
  H   H1564     1.0  0.48091  0.60804  0.97943  1.0000
  C   C1977     1.0  0.40537  0.73572  0.43546  1.0000
  H   H1565     1.0  0.18971  0.70447  0.46049  1.0000
  S   S266      1.0  0.32931  0.66546  0.45314  1.0000
  H   H1566     1.0  0.48799  0.70823  0.23587  1.0000
  C   C1978     1.0  0.15977  0.59801  0.11498  1.0000
  H   H1567     1.0  0.19495  0.72798  0.42695  1.0000
  C   C1979     1.0  0.00925  0.74488  0.14387  1.0000
  C   C1980     1.0  0.39541  0.63161  0.42631  1.0000
  C   C1981     1.0  0.01428  0.60812  0.36317  1.0000
  C   C1982     1.0  0.00980  0.68600  0.36838  1.0000
  H   H1568     1.0  0.06481  0.60593  0.05212  1.0000
  C   C1983     1.0  0.38801  0.66157  0.44297  1.0000
  C   C1984     1.0  0.32859  0.72578  0.21672  1.0000
  C   C1985     1.0  0.33504  0.69792  0.46913  1.0000
  H   H1569     1.0  0.38894  0.74419  0.46426  1.0000
  H   H1570     1.0  0.19257  0.74123  0.00355  1.0000
  H   H1571     1.0  0.42768  0.73143  0.27481  1.0000
  C   C1986     1.0  0.44913  0.69671  0.37255  1.0000
  C   C1987     1.0  0.43092  0.71039  0.36847  1.0000
  C   C1988     1.0  0.41167  0.70402  0.37532  1.0000
  C   C1989     1.0  0.41046  0.68411  0.38639  1.0000
  C   C1990     1.0  0.42849  0.67057  0.39086  1.0000
  C   C1991     1.0  0.44770  0.67694  0.38418  1.0000
  H   H1572     1.0  0.43144  0.72610  0.36045  1.0000
  H   H1573     1.0  0.39764  0.71457  0.37213  1.0000
  H   H1574     1.0  0.39553  0.67922  0.39151  1.0000
  H   H1575     1.0  0.42763  0.65513  0.39956  1.0000
  C   C1992     1.0  0.99588  0.63906  0.07339  1.0000
  C   C1993     1.0  0.25671  0.78201  0.29251  1.0000
  C   C1994     1.0  0.18335  0.71822  0.43017  1.0000
  C   C1995     1.0  0.46438  0.72855  0.41926  1.0000
  H   H1576     1.0  0.31170  0.59107  0.35629  1.0000
  C   C1996     1.0  0.45243  0.74704  0.16754  1.0000
  H   H1577     1.0  0.34578  0.77067  0.30247  1.0000
  C   C1997     1.0  0.41537  0.71946  0.42508  1.0000
  H   H1578     1.0  0.02880  0.65763  0.30872  1.0000
  C   C1998     1.0  0.12622  0.76231  0.02204  1.0000
  Fe  Fe132     1.0  0.35859  0.76962  0.41230  1.0000
  H   H1579     1.0  0.45232  0.68018  0.45330  1.0000
  C   C1999     1.0  0.22904  0.76713  0.40734  1.0000
  S   S267      1.0  0.03367  0.60098  0.27632  1.0000
  C   C2000     1.0  0.18623  0.64138  0.46381  1.0000
  H   H1580     1.0  0.22567  0.73817  0.45042  1.0000
  C   C2001     1.0  0.33334  0.62475  0.42519  1.0000
  C   C2002     1.0  0.40494  0.65349  0.45319  1.0000
  C   C2003     1.0  0.13674  0.74741  0.03584  1.0000
  H   H1581     1.0  0.15872  0.77873  0.05513  1.0000
  C   C2004     1.0  0.00117  0.76095  0.02262  1.0000
  C   C2005     1.0  0.14853  0.75336  0.04765  1.0000
  H   H1582     1.0  0.14096  0.60717  0.45326  1.0000
  H   H1583     1.0  0.45441  0.74144  0.42565  1.0000
  H   H1584     1.0  0.46304  0.71407  0.32595  1.0000
  H   H1585     1.0  0.17440  0.72816  0.40022  1.0000
  H   H1586     1.0  0.37994  0.60381  0.38571  1.0000
  H   H1587     1.0  0.46806  0.74141  0.16030  1.0000
  C   C2006     1.0  0.98974  0.71630  0.13370  1.0000
  C   C2007     1.0  0.38314  0.65056  0.42974  1.0000
  H   H1588     1.0  0.16193  0.62768  0.30679  1.0000
  C   C2008     1.0  0.47015  0.61365  0.42582  1.0000
  C   C2009     1.0  0.47684  0.70979  0.39073  1.0000
  H   H1589     1.0  0.11117  0.59317  0.32465  1.0000
  C   C2010     1.0  0.34278  0.70753  0.22069  1.0000
  C   C2011     1.0  0.38449  0.78084  0.24550  1.0000
  H   H1590     1.0  0.14860  0.70479  0.40733  1.0000
  C   C2012     1.0  0.34225  0.74124  0.23921  1.0000
  C   C2013     1.0  0.35712  0.72324  0.24263  1.0000
  C   C2014     1.0  0.35680  0.70614  0.23382  1.0000
  P   P68       1.0  0.37431  0.72087  0.26062  1.0000
  C   C2015     1.0  0.36079  0.70920  0.28496  1.0000
  C   C2016     1.0  0.39909  0.70501  0.25346  1.0000
  C   C2017     1.0  0.40686  0.70304  0.23281  1.0000
  C   C2018     1.0  0.42559  0.68982  0.22767  1.0000
  C   C2019     1.0  0.43692  0.67899  0.24300  1.0000
  C   C2020     1.0  0.42976  0.68167  0.26339  1.0000
  C   C2021     1.0  0.41097  0.69468  0.26861  1.0000
  C   C2022     1.0  0.34585  0.72157  0.29726  1.0000
  C   C2023     1.0  0.33489  0.71250  0.31581  1.0000
  C   C2024     1.0  0.33859  0.69101  0.32206  1.0000
  C   C2025     1.0  0.35310  0.67857  0.30969  1.0000
  C   C2026     1.0  0.36401  0.68757  0.29111  1.0000
  C   C2027     1.0  0.37994  0.74573  0.26176  1.0000
  C   C2028     1.0  0.38129  0.76124  0.24415  1.0000
  C   C2029     1.0  0.21022  0.58833  0.30478  1.0000
  H   H1591     1.0  0.39677  0.76983  0.19190  1.0000
  C   C2030     1.0  0.38669  0.76918  0.28151  1.0000
  C   C2031     1.0  0.38340  0.74962  0.28025  1.0000
  H   H1592     1.0  0.34273  0.69433  0.21382  1.0000
  H   H1593     1.0  0.34128  0.75419  0.24680  1.0000
  H   H1594     1.0  0.36723  0.69164  0.23727  1.0000
  H   H1595     1.0  0.39841  0.71146  0.22071  1.0000
  H   H1596     1.0  0.43129  0.68784  0.21183  1.0000
  H   H1597     1.0  0.02252  0.58935  0.11451  1.0000
  H   H1598     1.0  0.43867  0.67354  0.27525  1.0000
  H   H1599     1.0  0.40562  0.69642  0.28456  1.0000
  H   H1600     1.0  0.34272  0.73820  0.29264  1.0000
  H   H1601     1.0  0.32388  0.72215  0.32559  1.0000
  H   H1602     1.0  0.33040  0.68393  0.33659  1.0000
  H   H1603     1.0  0.35596  0.66188  0.31460  1.0000
  H   H1604     1.0  0.37490  0.67754  0.28166  1.0000
  H   H1605     1.0  0.37953  0.75831  0.22951  1.0000
  H   H1606     1.0  0.36986  0.65681  0.42215  1.0000
  C   C2032     1.0  0.16501  0.69256  0.45355  1.0000
  H   H1607     1.0  0.38863  0.77233  0.29603  1.0000
  H   H1608     1.0  0.38323  0.73763  0.29378  1.0000
  H   H1609     1.0  0.14274  0.68219  0.44080  1.0000
  H   H1610     1.0  0.01054  0.61918  0.37356  1.0000
  H   H1611     1.0  0.30158  0.76406  0.43423  1.0000
  H   H1612     1.0  0.33401  0.65424  0.40520  1.0000
  C   C2033     1.0  0.48430  0.61910  0.43548  1.0000
  C   C2034     1.0  0.34102  0.63802  0.40770  1.0000
  C   C2035     1.0  0.12692  0.63787  0.34930  1.0000
  C   C2036     1.0  0.46444  0.76275  0.23353  1.0000
  C   C2037     1.0  0.00132  0.64571  0.30785  1.0000
  C   C2038     1.0  0.47087  0.61935  0.40455  1.0000
  C   C2039     1.0  0.27885  0.74332  0.41465  1.0000
  H   H1613     1.0  0.17290  0.59508  0.46852  1.0000
  C   C2040     1.0  0.02504  0.65903  0.27781  1.0000
  C   C2041     1.0  0.01909  0.65459  0.29918  1.0000
  H   H1614     1.0  0.46446  0.74399  0.29797  1.0000
  H   H1615     1.0  0.32497  0.78122  0.27454  1.0000
  S   S268      1.0  0.33626  0.78237  0.39037  1.0000
  H   H1616     1.0  0.48750  0.77589  0.33474  1.0000
  C   C2042     1.0  0.20359  0.62564  0.46265  1.0000
  H   H1617     1.0  0.44119  0.75615  0.13867  1.0000
  C   C2043     1.0  0.47364  0.72818  0.34683  1.0000
  H   H1618     1.0  0.11871  0.65068  0.35691  1.0000
  H   H1619     1.0  0.47542  0.66856  0.34829  1.0000
  C   C2044     1.0  0.02544  0.67108  0.36028  1.0000
  C   C2045     1.0  0.00526  0.76459  0.04091  1.0000
  C   C2046     1.0  0.45703  0.76858  0.25277  1.0000
  S   S269      1.0  0.47383  0.59288  0.29889  1.0000
  C   C2047     1.0  0.05364  0.65016  0.97593  1.0000
  C   C2048     1.0  0.02563  0.58911  0.04541  1.0000
  C   C2049     1.0  0.15122  0.62486  0.32108  1.0000
  H   H1620     1.0  0.01359  0.69671  0.37642  1.0000
  C   C2050     1.0  0.47512  0.76237  0.31486  1.0000
  H   H1621     1.0  0.47863  0.68982  0.28891  1.0000
  C   C2051     1.0  0.46427  0.72660  0.39908  1.0000
  H   H1622     1.0  0.16161  0.60391  0.08209  1.0000
  C   C2052     1.0  0.00011  0.65780  0.34792  1.0000
  H   H1623     1.0  0.48706  0.74553  0.36276  1.0000
  C   C2053     1.0  0.35977  0.59620  0.41482  1.0000
  H   H1624     1.0  0.27492  0.74457  0.44699  1.0000
  C   C2054     1.0  0.29479  0.77263  0.36854  1.0000
  H   H1625     1.0  0.01834  0.65750  0.24834  1.0000
  H   H1626     1.0  0.16339  0.76558  0.98961  1.0000
  H   H1627     1.0  0.28244  0.73580  0.38419  1.0000
  C   C2055     1.0  0.16312  0.59920  0.24630  1.0000
  C   C2056     1.0  0.28357  0.72996  0.40018  1.0000
  C   C2057     1.0  0.27500  0.77889  0.37954  1.0000
  H   H1628     1.0  0.00210  0.75501  0.47017  1.0000
  C   C2058     1.0  0.99275  0.62599  0.02193  1.0000
  P   P69       1.0  0.47375  0.70538  0.36629  1.0000
  C   C2059     1.0  0.02510  0.58828  0.36945  1.0000
  H   H1629     1.0  0.17537  0.59528  0.23382  1.0000
  C   C2060     1.0  0.06961  0.61025  0.06468  1.0000
  H   H1630     1.0  0.23530  0.75952  0.39415  1.0000
  H   H1631     1.0  0.47207  0.65464  0.28988  1.0000
  H   H1632     1.0  0.01008  0.59476  0.05258  1.0000
  H   H1633     1.0  0.18289  0.78124  0.43783  1.0000
  C   C2061     1.0  0.29625  0.78044  0.42971  1.0000
  H   H1634     1.0  0.20829  0.60263  0.31059  1.0000
  H   H1635     1.0  0.20534  0.61469  0.45245  1.0000
  H   H1636     1.0  0.99012  0.64055  0.18946  1.0000
  C   C2062     1.0  0.46798  0.72771  0.32816  1.0000
  C   C2063     1.0  0.14987  0.77424  0.04559  1.0000
  C   C2064     1.0  0.05251  0.78104  0.08309  1.0000
  C   C2065     1.0  0.48658  0.62999  0.39287  1.0000
  H   H1637     1.0  0.18098  0.58615  0.19270  1.0000
  P   P70       1.0  0.26970  0.77073  0.40710  1.0000
  H   H1638     1.0  0.29171  0.77035  0.98407  1.0000
  H   H1639     1.0  0.00100  0.58389  0.23213  1.0000
  C   C2066     1.0  0.24217  0.77462  0.41663  1.0000
  C   C2067     1.0  0.98941  0.75104  0.13881  1.0000
  C   C2068     1.0  0.24415  0.67890  0.46355  1.0000
  C   C2069     1.0  0.99426  0.59279  0.21906  1.0000
  C   C2070     1.0  0.48668  0.77543  0.41430  1.0000
  H   H1640     1.0  0.47069  0.77971  0.18217  1.0000
  H   H1641     1.0  0.28873  0.78246  0.29098  1.0000
  H   H1642     1.0  0.19022  0.73332  0.47388  1.0000
  C   C2071     1.0  0.98931  0.68697  0.36621  1.0000
  H   H1643     1.0  0.15814  0.75926  0.47356  1.0000
  H   H1644     1.0  0.38800  0.58295  0.33378  1.0000
  H   H1645     1.0  0.07012  0.58305  0.41509  1.0000
  C   C2072     1.0  0.21871  0.62401  0.47460  1.0000
  H   H1646     1.0  0.23211  0.61176  0.47376  1.0000
  C   C2073     1.0  0.34292  0.73831  0.95554  1.0000
  S   S270      1.0  0.01481  0.61523  0.65350  1.0000
  H   H1647     1.0  0.46352  0.61645  0.67348  1.0000
  Fe  Fe133     1.0  0.02103  0.67327  0.64524  1.0000
  S   S271      1.0  0.03789  0.65249  0.62288  1.0000
  S   S272      1.0  0.02185  0.70749  0.64078  1.0000
  Fe  Fe134     1.0  0.00768  0.64126  0.62741  1.0000
  Fe  Fe135     1.0  0.04373  0.62830  0.65055  1.0000
  S   S273      1.0  0.29282  0.63019  0.48234  1.0000
  S   S274      1.0  0.02936  0.65022  0.67276  1.0000
  S   S275      1.0  0.07572  0.60968  0.65320  1.0000
  S   S276      1.0  0.09954  0.74016  0.58134  1.0000
  C   C2074     1.0  0.21914  0.76276  0.95799  1.0000
  C   C2075     1.0  0.01858  0.69307  0.54067  1.0000
  H   H1648     1.0  0.47791  0.65718  0.85184  1.0000
  S   S277      1.0  0.41596  0.60391  0.65585  1.0000
  C   C2076     1.0  0.13756  0.66557  0.48275  1.0000
  C   C2077     1.0  0.39342  0.66651  0.49414  1.0000
  S   S278      1.0  0.41452  0.60002  0.59666  1.0000
  Fe  Fe136     1.0  0.28048  0.63524  0.51466  1.0000
  S   S279      1.0  0.29837  0.60557  0.52908  1.0000
  S   S280      1.0  0.24704  0.64571  0.52735  1.0000
  C   C2078     1.0  0.47849  0.58808  0.68979  1.0000
  S   S281      1.0  0.33927  0.61828  0.49636  1.0000
  H   H1649     1.0  0.46839  0.66070  0.71077  1.0000
  H   H1650     1.0  0.22858  0.63722  0.49647  1.0000
  Fe  Fe137     1.0  0.32259  0.62488  0.52757  1.0000
  S   S282      1.0  0.33199  0.62537  0.55791  1.0000
  C   C2079     1.0  0.12658  0.66971  0.59657  1.0000
  S   S283      1.0  0.30360  0.65492  0.51457  1.0000
  H   H1651     1.0  0.08528  0.64505  0.49786  1.0000
  C   C2080     1.0  0.45470  0.76941  0.70707  1.0000
  H   H1652     1.0  0.04365  0.70851  0.52280  1.0000
  Fe  Fe138     1.0  0.36220  0.65366  0.88693  1.0000
  S   S284      1.0  0.38139  0.65684  0.90951  1.0000
  S   S285      1.0  0.35096  0.62295  0.89218  1.0000
  Fe  Fe139     1.0  0.36598  0.69694  0.86274  1.0000
  S   S286      1.0  0.38563  0.70302  0.88304  1.0000
  S   S287      1.0  0.35758  0.72293  0.83717  1.0000
  Fe  Fe140     1.0  0.40183  0.67037  0.88113  1.0000
  S   S288      1.0  0.43676  0.66370  0.87497  1.0000
  Fe  Fe141     1.0  0.36334  0.68928  0.90918  1.0000
  S   S289      1.0  0.34501  0.70731  0.93409  1.0000
  S   S290      1.0  0.38385  0.66538  0.85863  1.0000
  S   S291      1.0  0.34261  0.68485  0.88892  1.0000
  H   H1653     1.0  0.38704  0.70525  0.94100  1.0000
  C   C2081     1.0  0.31668  0.59952  0.85172  1.0000
  C   C2082     1.0  0.31627  0.62089  0.84984  1.0000
  C   C2083     1.0  0.32720  0.62831  0.86166  1.0000
  C   C2084     1.0  0.33806  0.61444  0.87597  1.0000
  H   H1654     1.0  0.35103  0.62258  0.81420  1.0000
  C   C2085     1.0  0.29465  0.63746  0.90584  1.0000
  H   H1655     1.0  0.30779  0.63171  0.83893  1.0000
  H   H1656     1.0  0.32693  0.64472  0.86000  1.0000
  H   H1657     1.0  0.37448  0.65572  0.78070  1.0000
  H   H1658     1.0  0.24861  0.58808  0.62771  1.0000
  H   H1659     1.0  0.27944  0.77109  0.86831  1.0000
  H   H1660     1.0  0.37496  0.63540  0.83003  1.0000
  C   C2086     1.0  0.08711  0.59184  0.63648  1.0000
  C   C2087     1.0  0.35593  0.72219  0.94633  1.0000
  C   C2088     1.0  0.39171  0.60748  0.58563  1.0000
  C   C2089     1.0  0.39287  0.60805  0.56446  1.0000
  C   C2090     1.0  0.37474  0.61300  0.55562  1.0000
  C   C2091     1.0  0.35542  0.61812  0.56783  1.0000
  C   C2092     1.0  0.35440  0.61820  0.58880  1.0000
  C   C2093     1.0  0.37238  0.61260  0.59774  1.0000
  H   H1661     1.0  0.40780  0.60423  0.55496  1.0000
  H   H1662     1.0  0.37574  0.61315  0.53940  1.0000
  H   H1663     1.0  0.35404  0.59785  0.78120  1.0000
  C   C2094     1.0  0.10301  0.76290  0.96848  1.0000
  C   C2095     1.0  0.47895  0.63397  0.83370  1.0000
  C   C2096     1.0  0.15842  0.59088  0.47709  1.0000
  H   H1664     1.0  0.06919  0.67645  0.52136  1.0000
  H   H1665     1.0  0.36379  0.74823  0.89671  1.0000
  C   C2097     1.0  0.35944  0.62788  0.76354  1.0000
  C   C2098     1.0  0.46803  0.62046  0.82902  1.0000
  C   C2099     1.0  0.24993  0.75962  0.48334  1.0000
  C   C2100     1.0  0.46928  0.64702  0.84799  1.0000
  C   C2101     1.0  0.44847  0.64710  0.85718  1.0000
  C   C2102     1.0  0.43744  0.63385  0.85223  1.0000
  C   C2103     1.0  0.44731  0.62032  0.83843  1.0000
  C   C2104     1.0  0.02182  0.73870  0.96395  1.0000
  C   C2105     1.0  0.18813  0.74597  0.48206  1.0000
  H   H1666     1.0  0.42152  0.63352  0.85955  1.0000
  H   H1667     1.0  0.43888  0.60977  0.83505  1.0000
  C   C2106     1.0  0.10001  0.67183  0.48625  1.0000
  C   C2107     1.0  0.34111  0.58790  0.73442  1.0000
  H   H1668     1.0  0.22734  0.58859  0.72193  1.0000
  H   H1669     1.0  0.03110  0.74972  0.95446  1.0000
  S   S292      1.0  0.36478  0.60173  0.69773  1.0000
  C   C2108     1.0  0.09017  0.76231  0.95480  1.0000
  H   H1670     1.0  0.05530  0.72468  0.47889  1.0000
  C   C2109     1.0  0.28686  0.75377  0.48366  1.0000
  C   C2110     1.0  0.00051  0.73858  0.50140  1.0000
  H   H1671     1.0  0.99357  0.70372  0.61707  1.0000
  H   H1672     1.0  0.34065  0.76226  0.97335  1.0000
  H   H1673     1.0  0.48916  0.64354  0.97030  1.0000
  C   C2111     1.0  0.42190  0.77065  0.93176  1.0000
  C   C2112     1.0  0.38988  0.58357  0.84523  1.0000
  H   H1674     1.0  0.32886  0.58321  0.59295  1.0000
  C   C2113     1.0  0.41389  0.75533  0.81625  1.0000
  H   H1675     1.0  0.43657  0.61142  0.90681  1.0000
  C   C2114     1.0  0.37693  0.75633  0.81900  1.0000
  C   C2115     1.0  0.37911  0.73561  0.82895  1.0000
  C   C2116     1.0  0.39862  0.72496  0.83270  1.0000
  C   C2117     1.0  0.41580  0.73497  0.82683  1.0000
  H   H1676     1.0  0.46102  0.60429  0.74472  1.0000
  H   H1677     1.0  0.40061  0.70890  0.84005  1.0000
  H   H1678     1.0  0.43064  0.72691  0.83050  1.0000
  H   H1679     1.0  0.24151  0.68320  0.49454  1.0000
  C   C2118     1.0  0.22357  0.61158  0.58067  1.0000
  C   C2119     1.0  0.23177  0.62744  0.56620  1.0000
  C   C2120     1.0  0.23753  0.62551  0.54544  1.0000
  C   C2121     1.0  0.23503  0.60774  0.53916  1.0000
  H   H1680     1.0  0.30140  0.75951  0.48050  1.0000
  H   H1681     1.0  0.21935  0.61301  0.59675  1.0000
  H   H1682     1.0  0.23390  0.64106  0.57110  1.0000
  H   H1683     1.0  0.23958  0.60609  0.52315  1.0000
  C   C2122     1.0  0.27989  0.76306  0.93973  1.0000
  H   H1684     1.0  0.08110  0.68096  0.58436  1.0000
  C   C2123     1.0  0.47621  0.74453  0.84343  1.0000
  H   H1685     1.0  0.33151  0.68870  0.48421  1.0000
  C   C2124     1.0  0.47413  0.70466  0.81471  1.0000
  C   C2125     1.0  0.45196  0.76496  0.74961  1.0000
  S   S293      1.0  0.11034  0.76250  0.48124  1.0000
  H   H1686     1.0  0.06428  0.71326  0.56513  1.0000
  C   C2126     1.0  0.04312  0.71632  0.62348  1.0000
  C   C2127     1.0  0.04108  0.73689  0.61299  1.0000
  C   C2128     1.0  0.05815  0.74429  0.59965  1.0000
  C   C2129     1.0  0.07754  0.73136  0.59739  1.0000
  C   C2130     1.0  0.07958  0.71104  0.60827  1.0000
  C   C2131     1.0  0.06240  0.70335  0.62091  1.0000
  H   H1687     1.0  0.02627  0.74711  0.61509  1.0000
  H   H1688     1.0  0.05634  0.76006  0.59141  1.0000
  H   H1689     1.0  0.09444  0.70112  0.60658  1.0000
  H   H1690     1.0  0.06421  0.68754  0.62910  1.0000
  C   C2132     1.0  0.99314  0.71540  0.60334  1.0000
  C   C2133     1.0  0.39908  0.67111  0.51136  1.0000
  H   H1691     1.0  0.13573  0.68736  0.61530  1.0000
  H   H1692     1.0  0.41389  0.67576  0.51015  1.0000
  C   C2134     1.0  0.29523  0.65798  0.89620  1.0000
  C   C2135     1.0  0.13942  0.63764  0.55819  1.0000
  C   C2136     1.0  0.01313  0.67373  0.55002  1.0000
  H   H1693     1.0  0.01268  0.62371  0.96361  1.0000
  C   C2137     1.0  0.02776  0.65558  0.54893  1.0000
  C   C2138     1.0  0.02050  0.76598  0.48675  1.0000
  C   C2139     1.0  0.04379  0.76992  0.66149  1.0000
  H   H1694     1.0  0.11812  0.62116  0.50249  1.0000
  C   C2140     1.0  0.07933  0.74104  0.48038  1.0000
  H   H1695     1.0  0.31877  0.74153  0.90804  1.0000
  H   H1696     1.0  0.33797  0.59138  0.62398  1.0000
  H   H1697     1.0  0.46161  0.61721  0.50672  1.0000
  C   C2141     1.0  0.37694  0.71777  0.94785  1.0000
  P   P71       1.0  0.38736  0.62063  0.75802  1.0000
  H   H1698     1.0  0.13266  0.67903  0.58231  1.0000
  H   H1699     1.0  0.28164  0.69564  0.91187  1.0000
  H   H1700     1.0  0.45073  0.68565  0.82700  1.0000
  H   H1701     1.0  0.39276  0.78201  0.80444  1.0000
  H   H1702     1.0  0.05895  0.59121  0.57981  1.0000
  C   C2142     1.0  0.20311  0.74745  0.49319  1.0000
  C   C2143     1.0  0.15979  0.61753  0.62524  1.0000
  H   H1703     1.0  0.28617  0.78212  0.91026  1.0000
  C   C2144     1.0  0.47704  0.67893  0.72910  1.0000
  H   H1704     1.0  0.07068  0.74783  0.49345  1.0000
  H   H1705     1.0  0.08564  0.68231  0.48412  1.0000
  C   C2145     1.0  0.00675  0.75560  0.73390  1.0000
  C   C2146     1.0  0.04967  0.65347  0.95590  1.0000
  H   H1706     1.0  0.42859  0.58373  0.81982  1.0000
  C   C2147     1.0  0.26694  0.65749  0.87923  1.0000
  H   H1707     1.0  0.15135  0.62903  0.65385  1.0000
  C   C2148     1.0  0.26797  0.72518  0.49500  1.0000
  H   H1708     1.0  0.26811  0.70877  0.50064  1.0000
  H   H1709     1.0  0.42800  0.63139  0.73721  1.0000
  H   H1710     1.0  0.39039  0.67260  0.54372  1.0000
  C   C2149     1.0  0.16475  0.59997  0.61598  1.0000
  C   C2150     1.0  0.04797  0.65655  0.53855  1.0000
  H   H1711     1.0  0.48599  0.71983  0.65929  1.0000
  H   H1712     1.0  0.03166  0.64661  0.93608  1.0000
  H   H1713     1.0  0.48160  0.69991  0.82814  1.0000
  C   C2151     1.0  0.38976  0.60497  0.84228  1.0000
  H   H1714     1.0  0.32263  0.78273  0.89048  1.0000
  C   C2152     1.0  0.14423  0.72254  0.51196  1.0000
  C   C2153     1.0  0.22623  0.59220  0.55353  1.0000
  C   C2154     1.0  0.09081  0.59523  0.57409  1.0000
  C   C2155     1.0  0.39330  0.59272  0.76086  1.0000
  C   C2156     1.0  0.31123  0.73324  0.90043  1.0000
  H   H1715     1.0  0.30713  0.66540  0.89859  1.0000
  H   H1716     1.0  0.45538  0.77135  0.69062  1.0000
  H   H1717     1.0  0.05933  0.64247  0.53775  1.0000
  C   C2157     1.0  0.43971  0.63960  0.49061  1.0000
  H   H1718     1.0  0.22862  0.75400  0.91495  1.0000
  C   C2158     1.0  0.26599  0.77537  0.87965  1.0000
  H   H1719     1.0  0.04073  0.71336  0.95018  1.0000
  H   H1720     1.0  0.20545  0.74459  0.85957  1.0000
  H   H1721     1.0  0.15883  0.63278  0.61581  1.0000
  C   C2159     1.0  0.24951  0.73855  0.49112  1.0000
  H   H1722     1.0  0.33902  0.77902  0.92948  1.0000
  H   H1723     1.0  0.28053  0.61073  0.90893  1.0000
  C   C2160     1.0  0.10871  0.58837  0.63024  1.0000
  Fe  Fe142     1.0  0.31294  0.60221  0.49649  1.0000
  C   C2161     1.0  0.26652  0.63689  0.88876  1.0000
  Fe  Fe143     1.0  0.99985  0.63901  0.67361  1.0000
  C   C2162     1.0  0.18377  0.65554  0.47716  1.0000
  C   C2163     1.0  0.36077  0.65927  0.51517  1.0000
  H   H1724     1.0  0.41081  0.76019  0.93658  1.0000
  S   S294      1.0  0.99018  0.66391  0.64766  1.0000
  C   C2164     1.0  0.43682  0.65746  0.47555  1.0000
  H   H1725     1.0  0.30069  0.72235  0.49435  1.0000
  H   H1726     1.0  0.41147  0.69716  0.77447  1.0000
  H   H1727     1.0  0.38649  0.59295  0.88888  1.0000
  H   H1728     1.0  0.35638  0.66200  0.54705  1.0000
  H   H1729     1.0  0.44373  0.74605  0.85418  1.0000
  H   H1730     1.0  0.07615  0.72268  0.52743  1.0000
  C   C2165     1.0  0.10893  0.64763  0.63363  1.0000
  Fe  Fe144     1.0  0.09173  0.76740  0.55655  1.0000
  C   C2166     1.0  0.10441  0.60863  0.57341  1.0000
  C   C2167     1.0  0.08380  0.70886  0.53612  1.0000
  H   H1731     1.0  0.34603  0.65444  0.51683  1.0000
  C   C2168     1.0  0.10048  0.69643  0.52604  1.0000
  C   C2169     1.0  0.11835  0.63733  0.49629  1.0000
  H   H1732     1.0  0.12000  0.66768  0.64828  1.0000
  C   C2170     1.0  0.00722  0.73621  0.52027  1.0000
  C   C2171     1.0  0.47932  0.74580  0.88375  1.0000
  H   H1733     1.0  0.36186  0.76470  0.81617  1.0000
  H   H1734     1.0  0.41000  0.76329  0.76042  1.0000
  H   H1735     1.0  0.27571  0.74660  0.97104  1.0000
  C   C2172     1.0  0.09673  0.62941  0.57544  1.0000
  C   C2173     1.0  0.07517  0.63587  0.58012  1.0000
  C   C2174     1.0  0.06163  0.62209  0.58188  1.0000
  C   C2175     1.0  0.00824  0.76742  0.74813  1.0000
  H   H1736     1.0  0.13709  0.73875  0.50967  1.0000
  H   H1737     1.0  0.10166  0.63933  0.64799  1.0000
  S   S295      1.0  0.43625  0.76661  0.80777  1.0000
  H   H1738     1.0  0.33988  0.72386  0.48069  1.0000
  C   C2176     1.0  0.06943  0.60188  0.57850  1.0000
  C   C2177     1.0  0.09977  0.65089  0.49406  1.0000
  C   C2178     1.0  0.23742  0.73687  0.84540  1.0000
  H   H1739     1.0  0.02006  0.68727  0.97165  1.0000
  H   H1740     1.0  0.44762  0.73276  0.93927  1.0000
  H   H1741     1.0  0.16623  0.66381  0.52131  1.0000
  H   H1742     1.0  0.10606  0.70155  0.50996  1.0000
  S   S296      1.0  0.30385  0.59076  0.83560  1.0000
  H   H1743     1.0  0.12197  0.66785  0.52826  1.0000
  H   H1744     1.0  0.12835  0.78000  0.60407  1.0000
  H   H1745     1.0  0.34029  0.60306  0.73796  1.0000
  H   H1746     1.0  0.46190  0.58889  0.88494  1.0000
  C   C2179     1.0  0.01562  0.70336  0.97336  1.0000
  C   C2180     1.0  0.10963  0.67762  0.53662  1.0000
  C   C2181     1.0  0.29786  0.59884  0.59200  1.0000
  C   C2182     1.0  0.41311  0.75813  0.88743  1.0000
  C   C2183     1.0  0.39526  0.74999  0.89761  1.0000
  P   P72       1.0  0.43673  0.75050  0.89815  1.0000
  C   C2184     1.0  0.43700  0.72517  0.91398  1.0000
  C   C2185     1.0  0.45969  0.74753  0.87862  1.0000
  C   C2186     1.0  0.45839  0.74603  0.85849  1.0000
  C   C2187     1.0  0.43604  0.68603  0.93880  1.0000
  C   C2188     1.0  0.43094  0.68985  0.91916  1.0000
  C   C2189     1.0  0.43162  0.70927  0.90669  1.0000
  H   H1747     1.0  0.33956  0.62266  0.59818  1.0000
  H   H1748     1.0  0.26983  0.72627  0.83529  1.0000
  H   H1749     1.0  0.19297  0.61283  0.53007  1.0000
  H   H1750     1.0  0.29760  0.71597  0.92880  1.0000
  H   H1751     1.0  0.39532  0.73938  0.91207  1.0000
  H   H1752     1.0  0.39620  0.58769  0.79294  1.0000
  H   H1753     1.0  0.43528  0.67103  0.94848  1.0000
  H   H1754     1.0  0.42637  0.67778  0.91359  1.0000
  H   H1755     1.0  0.42774  0.71190  0.89143  1.0000
  H   H1756     1.0  0.16775  0.60152  0.59935  1.0000
  C   C2190     1.0  0.22735  0.70301  0.55534  1.0000
  C   C2191     1.0  0.21544  0.68744  0.55886  1.0000
  C   C2192     1.0  0.20635  0.68456  0.54309  1.0000
  C   C2193     1.0  0.20922  0.69720  0.52376  1.0000
  C   C2194     1.0  0.22195  0.71222  0.51982  1.0000
  C   C2195     1.0  0.23053  0.71546  0.53592  1.0000
  H   H1757     1.0  0.14309  0.72076  0.54437  1.0000
  H   H1758     1.0  0.37358  0.70338  0.78656  1.0000
  C   C2196     1.0  0.48182  0.71888  0.79807  1.0000
  P   P73       1.0  0.22617  0.72790  0.49459  1.0000
  H   H1759     1.0  0.35398  0.73912  0.78498  1.0000
  H   H1760     1.0  0.31637  0.60814  0.78951  1.0000
  C   C2197     1.0  0.10752  0.64256  0.61496  1.0000
  C   C2198     1.0  0.39439  0.76614  0.81243  1.0000
  C   C2199     1.0  0.14756  0.71237  0.53157  1.0000
  C   C2200     1.0  0.18255  0.77740  0.96159  1.0000
  C   C2201     1.0  0.23746  0.76576  0.90624  1.0000
  C   C2202     1.0  0.22027  0.73461  0.86104  1.0000
  C   C2203     1.0  0.11653  0.65341  0.59631  1.0000
  H   H1761     1.0  0.48150  0.63888  0.68614  1.0000
  C   C2204     1.0  0.16083  0.68035  0.51837  1.0000
  H   H1762     1.0  0.23438  0.70524  0.56758  1.0000
  H   H1763     1.0  0.21343  0.67746  0.57374  1.0000
  H   H1764     1.0  0.19759  0.67214  0.54568  1.0000
  H   H1765     1.0  0.20199  0.69490  0.51172  1.0000
  H   H1766     1.0  0.23983  0.72740  0.53351  1.0000
  H   H1767     1.0  0.19116  0.63084  0.55909  1.0000
  H   H1768     1.0  0.12085  0.60257  0.57127  1.0000
  C   C2205     1.0  0.46169  0.58775  0.74648  1.0000
  H   H1769     1.0  0.43698  0.59062  0.72955  1.0000
  C   C2206     1.0  0.05076  0.73265  0.66470  1.0000
  C   C2207     1.0  0.14929  0.71171  0.49549  1.0000
  H   H1770     1.0  0.47903  0.73544  0.76784  1.0000
  H   H1771     1.0  0.32663  0.74168  0.95455  1.0000
  C   C2208     1.0  0.43656  0.76951  0.91362  1.0000
  Fe  Fe145     1.0  0.09499  0.77668  0.50990  1.0000
  C   C2209     1.0  0.18081  0.77798  0.50467  1.0000
  C   C2210     1.0  0.03178  0.73151  0.67792  1.0000
  C   C2211     1.0  0.28651  0.73279  0.49136  1.0000
  H   H1772     1.0  0.02342  0.64075  0.55628  1.0000
  C   C2212     1.0  0.11932  0.66356  0.63380  1.0000
  C   C2213     1.0  0.07693  0.70329  0.55716  1.0000
  C   C2214     1.0  0.99680  0.72444  0.56615  1.0000
  H   H1773     1.0  0.42719  0.65179  0.80892  1.0000
  H   H1774     1.0  0.25651  0.66475  0.86851  1.0000
  C   C2215     1.0  0.28041  0.62687  0.90203  1.0000
  H   H1775     1.0  0.15280  0.59435  0.67541  1.0000
  H   H1776     1.0  0.40009  0.61105  0.84886  1.0000
  C   C2216     1.0  0.15589  0.69128  0.53476  1.0000
  H   H1777     1.0  0.12680  0.62661  0.53637  1.0000
  C   C2217     1.0  0.02469  0.76886  0.67454  1.0000
  S   S297      1.0  0.99941  0.63538  0.59875  1.0000
  C   C2218     1.0  0.12829  0.67451  0.61525  1.0000
  C   C2219     1.0  0.41211  0.77276  0.86926  1.0000
  C   C2220     1.0  0.11883  0.67915  0.48075  1.0000
  C   C2221     1.0  0.43119  0.60191  0.89860  1.0000
  H   H1778     1.0  0.08081  0.77601  0.92559  1.0000
  H   H1779     1.0  0.43328  0.69675  0.79707  1.0000
  C   C2222     1.0  0.40996  0.60290  0.89974  1.0000
  C   C2223     1.0  0.47647  0.64022  0.48476  1.0000
  C   C2224     1.0  0.32414  0.67601  0.80831  1.0000
  H   H1780     1.0  0.01780  0.76086  0.75983  1.0000
  H   H1781     1.0  0.11803  0.59708  0.63521  1.0000
  C   C2225     1.0  0.25655  0.72402  0.84731  1.0000
  C   C2226     1.0  0.25853  0.70860  0.86477  1.0000
  C   C2227     1.0  0.24136  0.70671  0.88061  1.0000
  P   P74       1.0  0.28363  0.69377  0.86836  1.0000
  C   C2228     1.0  0.29929  0.68846  0.84415  1.0000
  C   C2229     1.0  0.29432  0.70930  0.88092  1.0000
  C   C2230     1.0  0.30551  0.72462  0.86923  1.0000
  C   C2231     1.0  0.31424  0.73626  0.87897  1.0000
  H   H1782     1.0  0.39883  0.61284  0.90912  1.0000
  C   C2232     1.0  0.38477  0.72918  0.95882  1.0000
  C   C2233     1.0  0.29064  0.70696  0.90248  1.0000
  C   C2234     1.0  0.32079  0.68790  0.84047  1.0000
  C   C2235     1.0  0.33312  0.68189  0.82257  1.0000
  C   C2236     1.0  0.37723  0.75516  0.88898  1.0000
  C   C2237     1.0  0.30276  0.67632  0.81190  1.0000
  C   C2238     1.0  0.29037  0.68248  0.82976  1.0000
  C   C2239     1.0  0.15669  0.59567  0.65885  1.0000
  C   C2240     1.0  0.16985  0.76060  0.48193  1.0000
  H   H1783     1.0  0.05808  0.66351  0.94377  1.0000
  C   C2241     1.0  0.14073  0.62787  0.54138  1.0000
  C   C2242     1.0  0.39942  0.63005  0.77500  1.0000
  P   P75       1.0  0.11421  0.64763  0.57204  1.0000
  H   H1784     1.0  0.14971  0.77235  0.90444  1.0000
  C   C2243     1.0  0.22054  0.59406  0.57431  1.0000
  H   H1785     1.0  0.42003  0.70756  0.73365  1.0000
  H   H1786     1.0  0.27523  0.58797  0.48426  1.0000
  H   H1787     1.0  0.24275  0.69542  0.89455  1.0000
  H   H1788     1.0  0.30822  0.72709  0.85257  1.0000
  H   H1789     1.0  0.32412  0.74692  0.86984  1.0000
  H   H1790     1.0  0.02683  0.74693  0.53619  1.0000
  H   H1791     1.0  0.04506  0.62711  0.58589  1.0000
  C   C2244     1.0  0.99740  0.70944  0.58410  1.0000
  H   H1792     1.0  0.32824  0.69169  0.85153  1.0000
  H   H1793     1.0  0.34970  0.68156  0.82005  1.0000
  H   H1794     1.0  0.99242  0.71470  0.67979  1.0000
  C   C2245     1.0  0.00713  0.75342  0.48474  1.0000
  H   H1795     1.0  0.27394  0.68206  0.83258  1.0000
  C   C2246     1.0  0.40298  0.59151  0.88830  1.0000
  C   C2247     1.0  0.15995  0.61874  0.53154  1.0000
  H   H1796     1.0  0.16082  0.61014  0.51942  1.0000
  C   C2248     1.0  0.38578  0.66949  0.53037  1.0000
  C   C2249     1.0  0.48433  0.62235  0.69144  1.0000
  C   C2250     1.0  0.28125  0.66825  0.88297  1.0000
  H   H1797     1.0  0.39206  0.66904  0.80260  1.0000
  C   C2251     1.0  0.45947  0.63103  0.49518  1.0000
  H   H1798     1.0  0.99036  0.75755  0.55451  1.0000
  C   C2252     1.0  0.23160  0.71216  0.47477  1.0000
  C   C2253     1.0  0.37686  0.76858  0.87014  1.0000
  H   H1799     1.0  0.44658  0.73925  0.71310  1.0000
  H   H1800     1.0  0.00079  0.69308  0.58345  1.0000
  C   C2254     1.0  0.37578  0.61894  0.83114  1.0000
  C   C2255     1.0  0.32409  0.60347  0.67192  1.0000
  C   C2256     1.0  0.33355  0.60449  0.65133  1.0000
  H   H1801     1.0  0.42668  0.63222  0.49874  1.0000
  H   H1802     1.0  0.36327  0.77191  0.86294  1.0000
  C   C2257     1.0  0.02719  0.71803  0.96127  1.0000
  H   H1803     1.0  0.30594  0.62947  0.91554  1.0000
  C   C2258     1.0  0.01839  0.74966  0.68265  1.0000
  C   C2259     1.0  0.33803  0.59314  0.87819  1.0000
  C   C2260     1.0  0.15568  0.61539  0.64667  1.0000
  H   H1804     1.0  0.48352  0.72022  0.69637  1.0000
  C   C2261     1.0  0.21666  0.63835  0.48747  1.0000
  P   P76       1.0  0.16126  0.67580  0.47816  1.0000
  H   H1805     1.0  0.20897  0.71791  0.89083  1.0000
  C   C2262     1.0  0.26855  0.76721  0.47975  1.0000
  H   H1806     1.0  0.30127  0.61348  0.59355  1.0000
  H   H1807     1.0  0.45018  0.76391  0.76607  1.0000
  C   C2263     1.0  0.37401  0.66081  0.49612  1.0000
  C   C2264     1.0  0.17813  0.62002  0.53776  1.0000
  C   C2265     1.0  0.13721  0.64452  0.49030  1.0000
  C   C2266     1.0  0.28138  0.75963  0.96057  1.0000
  H   H1808     1.0  0.26630  0.61149  0.58840  1.0000
  H   H1809     1.0  0.32701  0.61377  0.68097  1.0000
  H   H1810     1.0  0.34374  0.61561  0.64446  1.0000
  S   S298      1.0  0.48004  0.60365  0.81152  1.0000
  H   H1811     1.0  0.44611  0.69861  0.96111  1.0000
  H   H1812     1.0  0.29581  0.67139  0.80105  1.0000
  C   C2267     1.0  0.02733  0.76366  0.50539  1.0000
  H   H1813     1.0  0.01552  0.74000  0.73452  1.0000
  H   H1814     1.0  0.15798  0.68331  0.55006  1.0000
  C   C2268     1.0  0.34718  0.61358  0.77554  1.0000
  C   C2269     1.0  0.99161  0.74554  0.56791  1.0000
  H   H1815     1.0  0.36903  0.65735  0.48317  1.0000
  C   C2270     1.0  0.39279  0.58295  0.74454  1.0000
  H   H1816     1.0  0.40093  0.72538  0.96035  1.0000
  H   H1817     1.0  0.35162  0.58487  0.81850  1.0000
  C   C2271     1.0  0.32567  0.61931  0.78017  1.0000
  C   C2272     1.0  0.31613  0.63926  0.77261  1.0000
  C   C2273     1.0  0.32815  0.65361  0.76059  1.0000
  C   C2274     1.0  0.34975  0.64802  0.75623  1.0000
  H   H1818     1.0  0.48136  0.69922  0.74788  1.0000
  C   C2275     1.0  0.36233  0.61171  0.82224  1.0000
  H   H1819     1.0  0.09629  0.76519  0.61039  1.0000
  C   C2276     1.0  0.39733  0.63102  0.73169  1.0000
  C   C2277     1.0  0.42919  0.62819  0.79101  1.0000
  C   C2278     1.0  0.41921  0.62025  0.77898  1.0000
  H   H1820     1.0  0.25584  0.62847  0.88543  1.0000
  C   C2279     1.0  0.37177  0.74527  0.96808  1.0000
  C   C2280     1.0  0.36663  0.66356  0.53226  1.0000
  C   C2281     1.0  0.41799  0.63418  0.72593  1.0000
  C   C2282     1.0  0.42623  0.64029  0.70523  1.0000
  C   C2283     1.0  0.41395  0.64340  0.69014  1.0000
  C   C2284     1.0  0.39332  0.64061  0.69577  1.0000
  C   C2285     1.0  0.38503  0.63448  0.71644  1.0000
  P   P77       1.0  0.99942  0.71645  0.54165  1.0000
  C   C2286     1.0  0.44980  0.75118  0.71991  1.0000
  C   C2287     1.0  0.44213  0.70155  0.94589  1.0000
  H   H1821     1.0  0.27121  0.58840  0.65212  1.0000
  H   H1822     1.0  0.29941  0.64348  0.77597  1.0000
  H   H1823     1.0  0.32072  0.66902  0.75456  1.0000
  H   H1824     1.0  0.35887  0.65928  0.74692  1.0000
  C   C2288     1.0  0.38971  0.64784  0.78346  1.0000
  H   H1825     1.0  0.42709  0.60661  0.77258  1.0000
  C   C2289     1.0  0.29928  0.71875  0.91216  1.0000
  C   C2290     1.0  0.02407  0.63093  0.96732  1.0000
  H   H1826     1.0  0.44230  0.64210  0.70082  1.0000
  H   H1827     1.0  0.42052  0.64749  0.67403  1.0000
  H   H1828     1.0  0.38392  0.64235  0.68404  1.0000
  H   H1829     1.0  0.36927  0.63154  0.72032  1.0000
  H   H1830     1.0  0.33376  0.67097  0.79465  1.0000
  C   C2291     1.0  0.05353  0.67570  0.52929  1.0000
  C   C2292     1.0  0.03894  0.69391  0.53025  1.0000
  H   H1831     1.0  0.39225  0.70836  0.48313  1.0000
  C   C2293     1.0  0.15800  0.69054  0.49849  1.0000
  H   H1832     1.0  0.15761  0.64550  0.57760  1.0000
  C   C2294     1.0  0.23910  0.69078  0.47917  1.0000
  C   C2295     1.0  0.39967  0.65558  0.79573  1.0000
  S   S299      1.0  0.07335  0.76114  0.53533  1.0000
  C   C2296     1.0  0.29045  0.77292  0.96792  1.0000
  H   H1833     1.0  0.27295  0.75272  0.93401  1.0000
  C   C2297     1.0  0.39425  0.77747  0.86037  1.0000
  H   H1834     1.0  0.19861  0.66544  0.49818  1.0000
  C   C2298     1.0  0.10276  0.67175  0.55777  1.0000
  C   C2299     1.0  0.08655  0.68495  0.56800  1.0000
  S   S300      1.0  0.07349  0.74404  0.96035  1.0000
  H   H1835     1.0  0.06066  0.71861  0.66057  1.0000
  H   H1836     1.0  0.06862  0.65147  0.58255  1.0000
  H   H1837     1.0  0.09903  0.63049  0.61513  1.0000
  C   C2300     1.0  0.44277  0.72102  0.93349  1.0000
  C   C2301     1.0  0.17706  0.63006  0.55415  1.0000
  C   C2302     1.0  0.22225  0.71956  0.87865  1.0000
  H   H1838     1.0  0.44457  0.62069  0.79376  1.0000
  C   C2303     1.0  0.44544  0.58920  0.88628  1.0000
  H   H1839     1.0  0.37138  0.61251  0.61393  1.0000
  C   C2304     1.0  0.99431  0.76397  0.71876  1.0000
  Fe  Fe146     1.0  0.31821  0.64664  0.48365  1.0000
  H   H1840     1.0  0.17674  0.76776  0.92547  1.0000
  H   H1841     1.0  0.15139  0.63360  0.49165  1.0000
  C   C2305     1.0  0.15784  0.63856  0.56454  1.0000
  C   C2306     1.0  0.44259  0.68353  0.72124  1.0000
  C   C2307     1.0  0.46312  0.67316  0.71954  1.0000
  H   H1842     1.0  0.39005  0.59187  0.72974  1.0000
  C   C2308     1.0  0.47034  0.69471  0.74081  1.0000
  C   C2309     1.0  0.44958  0.70465  0.74328  1.0000
  C   C2310     1.0  0.43586  0.69939  0.73290  1.0000
  P   P78       1.0  0.44152  0.72546  0.75789  1.0000
  C   C2311     1.0  0.45420  0.71766  0.78024  1.0000
  C   C2312     1.0  0.44870  0.74869  0.74129  1.0000
  C   C2313     1.0  0.44686  0.70303  0.79691  1.0000
  C   C2314     1.0  0.45686  0.69650  0.81398  1.0000
  Fe  Fe147     1.0  0.41247  0.58754  0.63100  1.0000
  H   H1843     1.0  0.21001  0.76431  0.51426  1.0000
  C   C2315     1.0  0.47220  0.72505  0.78075  1.0000
  C   C2316     1.0  0.41370  0.72972  0.76630  1.0000
  C   C2317     1.0  0.40235  0.74996  0.76545  1.0000
  C   C2318     1.0  0.38084  0.75329  0.77165  1.0000
  C   C2319     1.0  0.37051  0.73648  0.77925  1.0000
  C   C2320     1.0  0.38163  0.71631  0.78026  1.0000
  C   C2321     1.0  0.40312  0.71290  0.77368  1.0000
  H   H1844     1.0  0.43189  0.67935  0.71347  1.0000
  Fe  Fe148     1.0  0.39048  0.58740  0.67504  1.0000
  C   C2322     1.0  0.20259  0.77618  0.94983  1.0000
  C   C2323     1.0  0.41943  0.64580  0.79943  1.0000
  C   C2324     1.0  0.27818  0.59776  0.58900  1.0000
  C   C2325     1.0  0.19942  0.65424  0.48857  1.0000
  H   H1845     1.0  0.30490  0.58792  0.69725  1.0000
  H   H1846     1.0  0.37232  0.76896  0.77140  1.0000
  H   H1847     1.0  0.25970  0.74428  0.88952  1.0000
  H   H1848     1.0  0.23592  0.74868  0.83185  1.0000
  C   C2326     1.0  0.05670  0.75184  0.65634  1.0000
  H   H1849     1.0  0.07126  0.75262  0.64583  1.0000
  C   C2327     1.0  0.31145  0.58875  0.68110  1.0000
  C   C2328     1.0  0.03482  0.64394  0.95161  1.0000
  H   H1850     1.0  0.14562  0.71978  0.48066  1.0000
  C   C2329     1.0  0.36264  0.59046  0.82470  1.0000
  C   C2330     1.0  0.02095  0.74869  0.52201  1.0000
  H   H1851     1.0  0.99028  0.72900  0.49937  1.0000
  H   H1852     1.0  0.23607  0.77018  0.47975  1.0000
  S   S301      1.0  0.11505  0.78126  0.53103  1.0000
  C   C2331     1.0  0.16621  0.77663  0.49318  1.0000
  C   C2332     1.0  0.09529  0.78150  0.61036  1.0000
  C   C2333     1.0  0.25493  0.76024  0.89170  1.0000
  H   H1853     1.0  0.02774  0.71639  0.68410  1.0000
  C   C2334     1.0  0.19911  0.76336  0.50483  1.0000
  H   H1854     1.0  0.23484  0.76234  0.94971  1.0000
  C   C2335     1.0  0.47417  0.60964  0.68409  1.0000
  H   H1855     1.0  0.48085  0.74631  0.89928  1.0000
  C   C2336     1.0  0.35082  0.74995  0.96621  1.0000
  P   P79       1.0  0.99369  0.74892  0.69965  1.0000
  C   C2337     1.0  0.32758  0.58567  0.86599  1.0000
  C   C2338     1.0  0.09061  0.77651  0.93627  1.0000
  H   H1856     1.0  0.99758  0.67265  0.55826  1.0000
  C   C2339     1.0  0.33027  0.59084  0.63980  1.0000
  C   C2340     1.0  0.28757  0.77968  0.92622  1.0000
  H   H1857     1.0  0.03772  0.77340  0.50695  1.0000
  C   C2341     1.0  0.12153  0.59240  0.47945  1.0000
  H   H1858     1.0  0.47482  0.74441  0.82778  1.0000
  C   C2342     1.0  0.11637  0.77749  0.96350  1.0000
  H   H1859     1.0  0.37606  0.77617  0.92988  1.0000
  H   H1860     1.0  0.42538  0.77993  0.86150  1.0000
  C   C2343     1.0  0.17517  0.78118  0.91344  1.0000
  H   H1861     1.0  0.11880  0.69545  0.47514  1.0000
  H   H1862     1.0  0.99033  0.75280  0.65630  1.0000
  H   H1863     1.0  0.12644  0.77776  0.97398  1.0000
  C   C2344     1.0  0.35232  0.58304  0.71554  1.0000
  C   C2345     1.0  0.11598  0.84384  0.97849  1.0000
  Fe  Fe149     1.0  0.20032  0.88575  0.06916  1.0000
  S   S302      1.0  0.20382  0.91215  0.04303  1.0000
  S   S303      1.0  0.22937  0.86490  0.07826  1.0000
  Fe  Fe150     1.0  0.15367  0.90013  0.07918  1.0000
  S   S304      1.0  0.15410  0.92843  0.05445  1.0000
  S   S305      1.0  0.12369  0.89201  0.09895  1.0000
  Fe  Fe151     1.0  0.17482  0.90608  0.03525  1.0000
  S   S306      1.0  0.17478  0.90409  0.00218  1.0000
  Fe  Fe152     1.0  0.18314  0.93197  0.06483  1.0000
  H   H1864     1.0  0.35946  0.80531  0.07726  1.0000
  S   S307      1.0  0.17334  0.87767  0.05951  1.0000
  S   S308      1.0  0.18064  0.90563  0.09145  1.0000
  C   C2346     1.0  0.27485  0.79038  0.28510  1.0000
  H   H1865     1.0  0.37934  0.86711  0.98164  1.0000
  Fe  Fe153     1.0  0.01006  0.82092  0.09642  1.0000
  S   S309      1.0  0.01766  0.83281  0.06272  1.0000
  Fe  Fe154     1.0  0.02873  0.85782  0.07304  1.0000
  S   S310      1.0  0.05777  0.86971  0.05508  1.0000
  S   S311      1.0  0.38180  0.82986  0.04126  1.0000
  S   S312      1.0  0.02335  0.84439  0.10679  1.0000
  C   C2347     1.0  0.46949  0.79132  0.41376  1.0000
  H   H1866     1.0  0.21347  0.91690  0.13700  1.0000
  Fe  Fe155     1.0  0.35207  0.80995  0.38238  1.0000
  S   S313      1.0  0.29809  0.98154  0.13986  1.0000
  S   S314      1.0  0.33422  0.84238  0.38227  1.0000
  C   C2348     1.0  0.46483  0.83276  0.21273  1.0000
  C   C2349     1.0  0.43144  0.89698  0.31266  1.0000
  H   H1867     1.0  0.34927  0.86362  0.04334  1.0000
  C   C2350     1.0  0.31446  0.95138  0.08979  1.0000
  H   H1868     1.0  0.46083  0.92030  0.35246  1.0000
  Fe  Fe156     1.0  0.27709  0.91304  0.30881  1.0000
  S   S315      1.0  0.26848  0.93224  0.27921  1.0000
  S   S316      1.0  0.27229  0.87989  0.31996  1.0000
  Fe  Fe157     1.0  0.29847  0.94541  0.31653  1.0000
  S   S317      1.0  0.29205  0.96716  0.28768  1.0000
  S   S318      1.0  0.31667  0.95048  0.33881  1.0000
  Fe  Fe158     1.0  0.26036  0.95893  0.29650  1.0000
  C   C2351     1.0  0.48901  0.91253  0.33139  1.0000
  Fe  Fe159     1.0  0.30075  0.93901  0.27291  1.0000
  S   S319      1.0  0.32128  0.94034  0.24190  1.0000
  S   S320      1.0  0.26591  0.93912  0.32681  1.0000
  S   S321      1.0  0.31008  0.91787  0.30099  1.0000
  C   C2352     1.0  0.27751  0.89078  0.24603  1.0000
  C   C2353     1.0  0.00190  0.92868  0.09177  1.0000
  H   H1869     1.0  0.22218  0.83324  0.99442  1.0000
  Fe  Fe160     1.0  0.36409  0.81985  0.02060  1.0000
  Fe  Fe161     1.0  0.32473  0.81739  0.00600  1.0000
  S   S322      1.0  0.29002  0.82116  0.00838  1.0000
  S   S323      1.0  0.34059  0.84399  0.00506  1.0000
  Fe  Fe162     1.0  0.40703  0.87622  0.15616  1.0000
  S   S324      1.0  0.37731  0.86440  0.15971  1.0000
  S   S325      1.0  0.41419  0.90720  0.13876  1.0000
  Fe  Fe163     1.0  0.42828  0.83737  0.18113  1.0000
  S   S326      1.0  0.40054  0.82195  0.18595  1.0000
  S   S327      1.0  0.45527  0.81992  0.19718  1.0000
  Fe  Fe164     1.0  0.39801  0.83469  0.15281  1.0000
  S   S328      1.0  0.38659  0.81351  0.13692  1.0000
  Fe  Fe165     1.0  0.38211  0.85247  0.19223  1.0000
  S   S329      1.0  0.35715  0.85136  0.22003  1.0000
  S   S330      1.0  0.42782  0.84719  0.14708  1.0000
  S   S331      1.0  0.40975  0.86724  0.18956  1.0000
  C   C2354     1.0  0.38241  0.82510  0.06801  1.0000
  C   C2355     1.0  0.39607  0.83429  0.07495  1.0000
  C   C2356     1.0  0.39736  0.83102  0.09597  1.0000
  C   C2357     1.0  0.38497  0.81850  0.11036  1.0000
  C   C2358     1.0  0.37134  0.80920  0.10347  1.0000
  C   C2359     1.0  0.36995  0.81258  0.08240  1.0000
  H   H1870     1.0  0.00531  0.80826  0.99313  1.0000
  H   H1871     1.0  0.40815  0.83800  0.10099  1.0000
  C   C2360     1.0  0.30830  0.93712  0.00575  1.0000
  S   S332      1.0  0.01367  0.78660  0.10680  1.0000
  C   C2361     1.0  0.46999  0.94739  0.33184  1.0000
  C   C2362     1.0  0.46051  0.85434  0.21084  1.0000
  H   H1872     1.0  0.45084  0.86343  0.20007  1.0000
  H   H1873     1.0  0.35941  0.80367  0.20790  1.0000
  C   C2363     1.0  0.33131  0.91563  0.23584  1.0000
  C   C2364     1.0  0.32539  0.89811  0.24919  1.0000
  C   C2365     1.0  0.33365  0.87835  0.24439  1.0000
  C   C2366     1.0  0.34757  0.87610  0.22610  1.0000
  C   C2367     1.0  0.35354  0.89360  0.21271  1.0000
  C   C2368     1.0  0.34540  0.91335  0.21759  1.0000
  H   H1874     1.0  0.31431  0.89979  0.26315  1.0000
  H   H1875     1.0  0.32915  0.86481  0.25484  1.0000
  H   H1876     1.0  0.36432  0.89197  0.19854  1.0000
  H   H1877     1.0  0.35014  0.92682  0.20724  1.0000
  C   C2369     1.0  0.31436  0.85155  0.36754  1.0000
  C   C2370     1.0  0.30759  0.83860  0.35750  1.0000
  C   C2371     1.0  0.29356  0.84718  0.34376  1.0000
  C   C2372     1.0  0.28668  0.86866  0.33978  1.0000
  C   C2373     1.0  0.29274  0.88136  0.35057  1.0000
  C   C2374     1.0  0.30632  0.87279  0.36459  1.0000
  H   H1878     1.0  0.31364  0.82216  0.35982  1.0000
  H   H1879     1.0  0.28889  0.83734  0.33544  1.0000
  H   H1880     1.0  0.28750  0.89792  0.34768  1.0000
  H   H1881     1.0  0.31150  0.88287  0.37230  1.0000
  Fe  Fe166     1.0  0.39518  0.78398  0.38127  1.0000
  H   H1882     1.0  0.09113  0.97711  0.26922  1.0000
  C   C2375     1.0  0.99139  0.89385  0.00710  1.0000
  C   C2376     1.0  0.28502  0.79423  0.33732  1.0000
  C   C2377     1.0  0.44369  0.83741  0.35869  1.0000
  C   C2378     1.0  0.43245  0.82097  0.36557  1.0000
  C   C2379     1.0  0.00911  0.79961  0.02469  1.0000
  H   H1883     1.0  0.26280  0.96022  0.06521  1.0000
  H   H1884     1.0  0.43555  0.85318  0.35573  1.0000
  H   H1885     1.0  0.41568  0.82406  0.36801  1.0000
  C   C2380     1.0  0.31730  0.82737  0.29102  1.0000
  C   C2381     1.0  0.17044  0.84188  0.01314  1.0000
  C   C2382     1.0  0.37712  0.87710  0.10272  1.0000
  C   C2383     1.0  0.38144  0.93000  0.34043  1.0000
  H   H1886     1.0  0.22837  0.96230  0.03017  1.0000
  H   H1887     1.0  0.30939  0.84326  0.28850  1.0000
  H   H1888     1.0  0.32891  0.92417  0.06005  1.0000
  H   H1889     1.0  0.21900  0.95327  0.13007  1.0000
  C   C2384     1.0  0.38801  0.95620  0.10118  1.0000
  C   C2385     1.0  0.40215  0.94054  0.11057  1.0000
  C   C2386     1.0  0.39531  0.92653  0.12790  1.0000
  C   C2387     1.0  0.37407  0.92864  0.13617  1.0000
  H   H1890     1.0  0.25045  0.89683  0.04643  1.0000
  C   C2388     1.0  0.15385  0.90170  0.99118  1.0000
  H   H1891     1.0  0.41851  0.93909  0.10419  1.0000
  H   H1892     1.0  0.36867  0.91796  0.14968  1.0000
  H   H1893     1.0  0.15781  0.85467  0.01581  1.0000
  C   C2389     1.0  0.24628  0.85318  0.05859  1.0000
  C   C2390     1.0  0.26723  0.84603  0.06024  1.0000
  C   C2391     1.0  0.28095  0.83651  0.04473  1.0000
  C   C2392     1.0  0.27360  0.83362  0.02781  1.0000
  C   C2393     1.0  0.25263  0.84054  0.02633  1.0000
  C   C2394     1.0  0.23907  0.85068  0.04145  1.0000
  H   H1894     1.0  0.27282  0.84775  0.07358  1.0000
  H   H1895     1.0  0.29704  0.83086  0.04609  1.0000
  H   H1896     1.0  0.24693  0.83811  0.01337  1.0000
  H   H1897     1.0  0.22292  0.85605  0.04012  1.0000
  H   H1898     1.0  0.43193  0.85740  0.01160  1.0000
  H   H1899     1.0  0.48289  0.97145  0.30989  1.0000
  C   C2395     1.0  0.10530  0.88623  0.08653  1.0000
  C   C2396     1.0  0.10874  0.88741  0.06517  1.0000
  C   C2397     1.0  0.09400  0.88246  0.05573  1.0000
  C   C2398     1.0  0.07581  0.87603  0.06756  1.0000
  C   C2399     1.0  0.07235  0.87487  0.08891  1.0000
  C   C2400     1.0  0.08700  0.88004  0.09833  1.0000
  H   H1900     1.0  0.12276  0.89214  0.05590  1.0000
  H   H1901     1.0  0.09676  0.88360  0.03919  1.0000
  H   H1902     1.0  0.05839  0.87006  0.09818  1.0000
  H   H1903     1.0  0.08423  0.87909  0.11484  1.0000
  C   C2401     1.0  0.47210  0.92618  0.33971  1.0000
  C   C2402     1.0  0.13315  0.90578  0.00083  1.0000
  C   C2403     1.0  0.13964  0.78927  0.03149  1.0000
  C   C2404     1.0  0.28444  0.98137  0.02994  1.0000
  H   H1904     1.0  0.27583  0.91089  0.98808  1.0000
  H   H1905     1.0  0.12948  0.90974  0.01606  1.0000
  C   C2405     1.0  0.20595  0.97564  0.23424  1.0000
  H   H1906     1.0  0.09043  0.94932  0.29998  1.0000
  C   C2406     1.0  0.30062  0.81560  0.42896  1.0000
  H   H1907     1.0  0.34442  0.93384  0.09463  1.0000
  C   C2407     1.0  0.09734  0.85550  0.98647  1.0000
  C   C2408     1.0  0.29000  0.84766  0.25471  1.0000
  H   H1908     1.0  0.40076  0.88157  0.11766  1.0000
  C   C2409     1.0  0.12944  0.83230  0.99157  1.0000
  C   C2410     1.0  0.12422  0.83230  0.01282  1.0000
  C   C2411     1.0  0.39452  0.88499  0.10356  1.0000
  P   P80       1.0  0.14119  0.81618  0.02953  1.0000
  C   C2412     1.0  0.23838  0.79177  0.28531  1.0000
  C   C2413     1.0  0.16698  0.82134  0.01844  1.0000
  C   C2414     1.0  0.20336  0.80951  0.00553  1.0000
  C   C2415     1.0  0.18353  0.80519  0.01421  1.0000
  C   C2416     1.0  0.26513  0.94378  0.04019  1.0000
  C   C2417     1.0  0.28604  0.82309  0.41596  1.0000
  H   H1909     1.0  0.22433  0.78526  0.29107  1.0000
  C   C2418     1.0  0.13305  0.82215  0.05521  1.0000
  C   C2419     1.0  0.11496  0.81585  0.06739  1.0000
  C   C2420     1.0  0.10768  0.82130  0.08684  1.0000
  C   C2421     1.0  0.11860  0.83276  0.09442  1.0000
  C   C2422     1.0  0.13683  0.83872  0.08260  1.0000
  C   C2423     1.0  0.14407  0.83346  0.06306  1.0000
  C   C2424     1.0  0.39232  0.94348  0.32541  1.0000
  H   H1910     1.0  0.28910  0.80054  0.32118  1.0000
  H   H1911     1.0  0.99160  0.85833  0.19405  1.0000
  H   H1912     1.0  0.04395  0.88584  0.00346  1.0000
  C   C2425     1.0  0.43195  0.95173  0.14395  1.0000
  H   H1913     1.0  0.42834  0.80172  0.24233  1.0000
  S   S333      1.0  0.37596  0.79829  0.35657  1.0000
  H   H1914     1.0  0.47574  0.91058  0.25746  1.0000
  C   C2426     1.0  0.25263  0.93107  0.07617  1.0000
  H   H1915     1.0  0.02521  0.79874  0.14068  1.0000
  C   C2427     1.0  0.99533  0.81454  0.19239  1.0000
  H   H1916     1.0  0.11272  0.83751  0.10925  1.0000
  H   H1917     1.0  0.14497  0.84801  0.08840  1.0000
  H   H1918     1.0  0.15804  0.83855  0.05418  1.0000
  H   H1919     1.0  0.25575  0.83240  0.25183  1.0000
  C   C2428     1.0  0.02767  0.89151  0.00850  1.0000
  C   C2429     1.0  0.37879  0.89322  0.06676  1.0000
  C   C2430     1.0  0.36786  0.92680  0.03308  1.0000
  C   C2431     1.0  0.41129  0.83262  0.23831  1.0000
  H   H1920     1.0  0.44298  0.95135  0.29939  1.0000
  H   H1921     1.0  0.37006  0.86737  0.11614  1.0000
  C   C2432     1.0  0.36674  0.96183  0.03833  1.0000
  C   C2433     1.0  0.04307  0.84115  0.00721  1.0000
  H   H1922     1.0  0.37011  0.94230  0.28478  1.0000
  H   H1923     1.0  0.30866  0.82621  0.43297  1.0000
  H   H1924     1.0  0.32072  0.96333  0.07813  1.0000
  H   H1925     1.0  0.08239  0.80057  0.99980  1.0000
  H   H1926     1.0  0.46301  0.88851  0.31782  1.0000
  H   H1927     1.0  0.19291  0.86197  0.00100  1.0000
  C   C2434     1.0  0.36934  0.88102  0.08438  1.0000
  C   C2435     1.0  0.39628  0.90116  0.06779  1.0000
  C   C2436     1.0  0.29043  0.88037  0.23093  1.0000
  C   C2437     1.0  0.32971  0.82132  0.30626  1.0000
  H   H1928     1.0  0.41599  0.85192  0.98361  1.0000
  C   C2438     1.0  0.28506  0.93814  0.11194  1.0000
  C   C2439     1.0  0.29837  0.92118  0.12105  1.0000
  C   C2440     1.0  0.31988  0.91983  0.11471  1.0000
  P   P81       1.0  0.28790  0.90322  0.14267  1.0000
  C   C2441     1.0  0.26490  0.89720  0.13669  1.0000
  C   C2442     1.0  0.30675  0.87980  0.14733  1.0000
  C   C2443     1.0  0.31784  0.86985  0.13094  1.0000
  C   C2444     1.0  0.33210  0.85157  0.13465  1.0000
  C   C2445     1.0  0.33567  0.84330  0.15465  1.0000
  C   C2446     1.0  0.32509  0.85331  0.17097  1.0000
  C   C2447     1.0  0.31059  0.87141  0.16737  1.0000
  C   C2448     1.0  0.26600  0.87967  0.12792  1.0000
  C   C2449     1.0  0.24836  0.87567  0.12254  1.0000
  C   C2450     1.0  0.22946  0.88905  0.12587  1.0000
  C   C2451     1.0  0.22816  0.90648  0.13461  1.0000
  C   C2452     1.0  0.24579  0.91063  0.13991  1.0000
  C   C2453     1.0  0.28193  0.91574  0.16498  1.0000
  C   C2454     1.0  0.29425  0.92959  0.16681  1.0000
  C   C2455     1.0  0.29006  0.93892  0.18426  1.0000
  H   H1929     1.0  0.28281  0.83954  0.40992  1.0000
  C   C2456     1.0  0.27668  0.85824  0.26965  1.0000
  C   C2457     1.0  0.26571  0.91097  0.18112  1.0000
  H   H1930     1.0  0.26851  0.94030  0.11731  1.0000
  C   C2458     1.0  0.45205  0.88719  0.30866  1.0000
  H   H1931     1.0  0.31544  0.87618  0.11529  1.0000
  H   H1932     1.0  0.34063  0.84387  0.12202  1.0000
  H   H1933     1.0  0.34696  0.82934  0.15745  1.0000
  H   H1934     1.0  0.32839  0.84719  0.18637  1.0000
  H   H1935     1.0  0.30263  0.87883  0.18028  1.0000
  H   H1936     1.0  0.28033  0.86903  0.12500  1.0000
  H   H1937     1.0  0.24932  0.86230  0.11548  1.0000
  H   H1938     1.0  0.41748  0.90325  0.08705  1.0000
  C   C2459     1.0  0.09226  0.85598  0.00748  1.0000
  H   H1939     1.0  0.24454  0.92449  0.14624  1.0000
  H   H1940     1.0  0.30715  0.93320  0.15483  1.0000
  H   H1941     1.0  0.29951  0.94972  0.18555  1.0000
  C   C2460     1.0  0.20679  0.82994  0.00093  1.0000
  H   H1942     1.0  0.25639  0.89989  0.18034  1.0000
  C   C2461     1.0  0.27630  0.80936  0.41006  1.0000
  C   C2462     1.0  0.28139  0.78788  0.41676  1.0000
  P   P82       1.0  0.29804  0.81991  0.26072  1.0000
  H   H1943     1.0  0.27057  0.94170  0.21356  1.0000
  C   C2463     1.0  0.99621  0.96225  0.10181  1.0000
  H   H1944     1.0  0.43859  0.80455  0.27517  1.0000
  C   C2464     1.0  0.31129  0.81038  0.23741  1.0000
  C   C2465     1.0  0.27479  0.80869  0.27042  1.0000
  H   H1945     1.0  0.18128  0.78928  0.01749  1.0000
  H   H1946     1.0  0.27341  0.90751  0.24300  1.0000
  H   H1947     1.0  0.36998  0.92376  0.00134  1.0000
  H   H1948     1.0  0.42822  0.83721  0.28840  1.0000
  C   C2466     1.0  0.19246  0.94948  0.99448  1.0000
  C   C2467     1.0  0.46469  0.79673  0.36648  1.0000
  C   C2468     1.0  0.47781  0.82123  0.22657  1.0000
  C   C2469     1.0  0.41488  0.96593  0.15112  1.0000
  C   C2470     1.0  0.30006  0.80568  0.22412  1.0000
  H   H1949     1.0  0.18327  0.96414  0.22346  1.0000
  C   C2471     1.0  0.02688  0.81096  0.16718  1.0000
  C   C2472     1.0  0.46546  0.83336  0.35525  1.0000
  C   C2473     1.0  0.00970  0.94446  0.09658  1.0000
  H   H1950     1.0  0.99679  0.86108  0.15608  1.0000
  H   H1951     1.0  0.31717  0.78865  0.44575  1.0000
  C   C2474     1.0  0.33989  0.96948  0.18997  1.0000
  H   H1952     1.0  0.26529  0.81555  0.39971  1.0000
  C   C2475     1.0  0.20846  0.95652  0.10124  1.0000
  C   C2476     1.0  0.26135  0.90853  0.98508  1.0000
  C   C2477     1.0  0.13164  0.96899  0.30497  1.0000
  C   C2478     1.0  0.33170  0.79890  0.19959  1.0000
  C   C2479     1.0  0.48459  0.95492  0.31540  1.0000
  H   H1953     1.0  0.45940  0.94690  0.12115  1.0000
  S   S334      1.0  0.47975  0.85363  0.34619  1.0000
  H   H1954     1.0  0.39356  0.96664  0.08753  1.0000
  H   H1955     1.0  0.03325  0.84827  0.01963  1.0000
  C   C2480     1.0  0.46141  0.93107  0.27912  1.0000
  C   C2481     1.0  0.26063  0.94634  0.06086  1.0000
  H   H1956     1.0  0.24221  0.90177  0.08271  1.0000
  C   C2482     1.0  0.10205  0.95919  0.29652  1.0000
  H   H1957     1.0  0.33105  0.83234  0.31531  1.0000
  C   C2483     1.0  0.07078  0.81408  0.99619  1.0000
  C   C2484     1.0  0.34006  0.80096  0.31024  1.0000
  H   H1958     1.0  0.25428  0.81233  0.34043  1.0000
  C   C2485     1.0  0.20860  0.96761  0.08119  1.0000
  H   H1959     1.0  0.40397  0.95004  0.32955  1.0000
  H   H1960     1.0  0.10608  0.80729  0.06158  1.0000
  C   C2486     1.0  0.21978  0.96152  0.11443  1.0000
  C   C2487     1.0  0.01689  0.80297  0.15521  1.0000
  C   C2488     1.0  0.36259  0.92560  0.31524  1.0000
  H   H1961     1.0  0.02620  0.94278  0.09635  1.0000
  S   S335      1.0  0.34667  0.79354  0.02389  1.0000
  C   C2489     1.0  0.48650  0.83119  0.23824  1.0000
  H   H1962     1.0  0.99641  0.93381  0.14456  1.0000
  Fe  Fe167     1.0  0.36476  0.78886  0.99244  1.0000
  H   H1963     1.0  0.45433  0.78784  0.41401  1.0000
  C   C2490     1.0  0.31026  0.79995  0.20529  1.0000
  H   H1964     1.0  0.05989  0.81779  0.02780  1.0000
  S   S336      1.0  0.37269  0.79818  0.40616  1.0000
  C   C2491     1.0  0.44508  0.92571  0.25243  1.0000
  H   H1965     1.0  0.31926  0.98265  0.30219  1.0000
  H   H1966     1.0  0.38824  0.80031  0.26563  1.0000
  C   C2492     1.0  0.25354  0.91057  0.05046  1.0000
  C   C2493     1.0  0.00931  0.78388  0.04193  1.0000
  S   S337      1.0  0.38381  0.81327  0.99049  1.0000
  H   H1967     1.0  0.46682  0.88103  0.21994  1.0000
  C   C2494     1.0  0.36649  0.92116  0.33537  1.0000
  C   C2495     1.0  0.46960  0.86430  0.22214  1.0000
  C   C2496     1.0  0.46216  0.92162  0.26236  1.0000
  H   H1968     1.0  0.05371  0.79614  0.08554  1.0000
  H   H1969     1.0  0.10110  0.84494  0.03692  1.0000
  H   H1970     1.0  0.09331  0.81706  0.09583  1.0000
  C   C2497     1.0  0.00523  0.79593  0.00633  1.0000
  C   C2498     1.0  0.29309  0.95313  0.09635  1.0000
  H   H1971     1.0  0.11634  0.94410  0.32282  1.0000
  C   C2499     1.0  0.25627  0.81834  0.26322  1.0000
  C   C2500     1.0  0.38668  0.78492  0.26430  1.0000
  H   H1972     1.0  0.10110  0.90892  0.99774  1.0000
  H   H1973     1.0  0.01251  0.78667  0.05611  1.0000
  P   P83       1.0  0.36791  0.89961  0.04339  1.0000
  C   C2501     1.0  0.38332  0.88449  0.02446  1.0000
  C   C2502     1.0  0.37450  0.88130  0.00849  1.0000
  C   C2503     1.0  0.25476  0.88958  0.99290  1.0000
  C   C2504     1.0  0.25076  0.97994  0.00998  1.0000
  C   C2505     1.0  0.41602  0.86449  0.01048  1.0000
  C   C2506     1.0  0.40426  0.87607  0.02525  1.0000
  C   C2507     1.0  0.34161  0.89480  0.05008  1.0000
  C   C2508     1.0  0.33721  0.87550  0.04914  1.0000
  C   C2509     1.0  0.31723  0.87104  0.05639  1.0000
  C   C2510     1.0  0.30162  0.88560  0.06512  1.0000
  C   C2511     1.0  0.30597  0.90472  0.06641  1.0000
  C   C2512     1.0  0.32581  0.90939  0.05873  1.0000
  H   H1974     1.0  0.36521  0.93579  0.06269  1.0000
  C   C2513     1.0  0.44403  0.97879  0.11709  1.0000
  H   H1975     1.0  0.21590  0.88602  0.12137  1.0000
  H   H1976     1.0  0.41146  0.87786  0.03750  1.0000
  C   C2514     1.0  0.36896  0.93418  0.01187  1.0000
  C   C2515     1.0  0.32689  0.97348  0.33257  1.0000
  H   H1977     1.0  0.28624  0.88193  0.07107  1.0000
  H   H1978     1.0  0.29409  0.91580  0.07367  1.0000
  C   C2516     1.0  0.32782  0.93474  0.09901  1.0000
  C   C2517     1.0  0.41260  0.85354  0.26307  1.0000
  C   C2518     1.0  0.40551  0.85129  0.24566  1.0000
  P   P84       1.0  0.40451  0.87739  0.27293  1.0000
  C   C2519     1.0  0.38096  0.87371  0.29065  1.0000
  C   C2520     1.0  0.42352  0.88249  0.28570  1.0000
  C   C2521     1.0  0.41728  0.89481  0.30107  1.0000
  H   H1979     1.0  0.34172  0.81359  0.24116  1.0000
  H   H1980     1.0  0.24892  0.91678  0.21089  1.0000
  C   C2522     1.0  0.45856  0.87568  0.29277  1.0000
  C   C2523     1.0  0.44447  0.87360  0.28108  1.0000
  C   C2524     1.0  0.36262  0.87576  0.28301  1.0000
  C   C2525     1.0  0.34420  0.87293  0.29649  1.0000
  C   C2526     1.0  0.34408  0.86791  0.31760  1.0000
  C   C2527     1.0  0.36243  0.86473  0.32535  1.0000
  C   C2528     1.0  0.38096  0.86731  0.31187  1.0000
  C   C2529     1.0  0.40021  0.89874  0.25207  1.0000
  C   C2530     1.0  0.41383  0.89923  0.23315  1.0000
  C   C2531     1.0  0.41007  0.91521  0.21662  1.0000
  C   C2532     1.0  0.39287  0.93099  0.21899  1.0000
  C   C2533     1.0  0.37948  0.93083  0.23790  1.0000
  C   C2534     1.0  0.38307  0.91473  0.25435  1.0000
  H   H1981     1.0  0.01193  0.81466  0.02558  1.0000
  H   H1982     1.0  0.39543  0.86388  0.23775  1.0000
  H   H1983     1.0  0.40131  0.90209  0.30461  1.0000
  H   H1984     1.0  0.24888  0.93318  0.09206  1.0000
  H   H1985     1.0  0.47452  0.86820  0.28958  1.0000
  H   H1986     1.0  0.44992  0.86470  0.26877  1.0000
  H   H1987     1.0  0.36259  0.87962  0.26663  1.0000
  H   H1988     1.0  0.32991  0.87479  0.29069  1.0000
  H   H1989     1.0  0.32976  0.86612  0.32787  1.0000
  H   H1990     1.0  0.33575  0.91632  0.99505  1.0000
  H   H1991     1.0  0.39514  0.86415  0.31810  1.0000
  H   H1992     1.0  0.42709  0.88698  0.23105  1.0000
  H   H1993     1.0  0.42024  0.91510  0.20184  1.0000
  H   H1994     1.0  0.38967  0.94310  0.20607  1.0000
  H   H1995     1.0  0.36589  0.94280  0.23969  1.0000
  H   H1996     1.0  0.37214  0.91456  0.26862  1.0000
  C   C2535     1.0  0.19032  0.84611  0.00463  1.0000
  H   H1997     1.0  0.35761  0.91115  0.34707  1.0000
  H   H1998     1.0  0.00230  0.97448  0.10551  1.0000
  H   H1999     1.0  0.35152  0.97319  0.21595  1.0000
  H   H2000     1.0  0.31402  0.85609  0.05559  1.0000
  C   C2536     1.0  0.33282  0.80927  0.23155  1.0000
  H   H2001     1.0  0.02380  0.82305  0.19500  1.0000
  C   C2537     1.0  0.99610  0.80084  0.16174  1.0000
  C   C2538     1.0  0.23199  0.97716  0.10767  1.0000
  C   C2539     1.0  0.27367  0.93441  0.20007  1.0000
  C   C2540     1.0  0.10556  0.84432  0.02069  1.0000
  C   C2541     1.0  0.42964  0.81761  0.26667  1.0000
  H   H2002     1.0  0.22394  0.81749  0.26506  1.0000
  C   C2542     1.0  0.17793  0.96083  0.00786  1.0000
  H   H2003     1.0  0.40383  0.91061  0.05445  1.0000
  H   H2004     1.0  0.19925  0.94438  0.10671  1.0000
  C   C2543     1.0  0.42631  0.94879  0.27610  1.0000
  C   C2544     1.0  0.37337  0.93914  0.30023  1.0000
  C   C2545     1.0  0.38921  0.97862  0.26501  1.0000
  C   C2546     1.0  0.26539  0.80083  0.34819  1.0000
  H   H2005     1.0  0.03410  0.90799  0.02990  1.0000
  H   H2006     1.0  0.40610  0.83109  0.22468  1.0000
  H   H2007     1.0  0.43370  0.93563  0.15137  1.0000
  S   S338      1.0  0.34167  0.81057  0.97507  1.0000
  C   C2547     1.0  0.27058  0.87971  0.26534  1.0000
  C   C2548     1.0  0.42373  0.81594  0.24849  1.0000
  C   C2549     1.0  0.40707  0.86137  0.99472  1.0000
  Fe  Fe168     1.0  0.99131  0.86341  0.10699  1.0000
  C   C2550     1.0  0.24893  0.91331  0.07095  1.0000
  H   H2008     1.0  0.99701  0.92147  0.04189  1.0000
  H   H2009     1.0  0.33066  0.90774  0.12226  1.0000
  H   H2010     1.0  0.24536  0.79917  0.37752  1.0000
  H   H2011     1.0  0.30750  0.85135  0.22358  1.0000
  C   C2551     1.0  0.36633  0.94091  0.04627  1.0000
  Fe  Fe169     1.0  0.35916  0.83532  0.97544  1.0000
  H   H2012     1.0  0.07797  0.86535  0.01359  1.0000
  C   C2552     1.0  0.04063  0.84898  0.98670  1.0000
  H   H2013     1.0  0.21613  0.79702  0.00247  1.0000
  H   H2014     1.0  0.41386  0.94172  0.25179  1.0000
  H   H2015     1.0  0.36220  0.86015  0.34180  1.0000
  C   C2553     1.0  0.99732  0.82447  0.46369  1.0000
  P   P85       1.0  0.27312  0.96422  0.01988  1.0000
  H   H2016     1.0  0.45872  0.82417  0.41113  1.0000
  H   H2017     1.0  0.26409  0.92382  0.01931  1.0000
  C   C2554     1.0  0.42714  0.93912  0.25935  1.0000
  H   H2018     1.0  0.23094  0.87179  0.99501  1.0000
  C   C2555     1.0  0.48281  0.85281  0.23570  1.0000
  H   H2019     1.0  0.37036  0.96070  0.98755  1.0000
  C   C2556     1.0  0.47200  0.81179  0.41207  1.0000
  H   H2020     1.0  0.33173  0.96777  0.16144  1.0000
  C   C2557     1.0  0.35986  0.94494  0.12711  1.0000
  H   H2021     1.0  0.27138  0.85000  0.28486  1.0000
  H   H2022     1.0  0.28272  0.96654  0.08996  1.0000
  S   S339      1.0  0.99759  0.87837  0.07390  1.0000
  C   C2558     1.0  0.34294  0.80362  0.21269  1.0000
  P   P86       1.0  0.40279  0.96519  0.28573  1.0000
  C   C2559     1.0  0.42388  0.83628  0.27408  1.0000
  H   H2023     1.0  0.42638  0.90591  0.32497  1.0000
  H   H2024     1.0  0.20166  0.93520  0.00082  1.0000
  C   C2560     1.0  0.01232  0.88590  0.00050  1.0000
  S   S340      1.0  0.19373  0.96260  0.06425  1.0000
  C   C2561     1.0  0.33561  0.97894  0.34730  1.0000
  C   C2562     1.0  0.23618  0.88642  0.98888  1.0000
  C   C2563     1.0  0.23079  0.97566  0.01834  1.0000
  C   C2564     1.0  0.29675  0.85889  0.23524  1.0000
  C   C2565     1.0  0.18590  0.97266  0.23436  1.0000
  H   H2025     1.0  0.28340  0.80687  0.22799  1.0000
  H   H2026     1.0  0.17642  0.95552  0.02430  1.0000
  C   C2566     1.0  0.26037  0.79324  0.36924  1.0000
  H   H2027     1.0  0.47446  0.92732  0.28712  1.0000
  H   H2028     1.0  0.35085  0.91884  0.31146  1.0000
  C   C2567     1.0  0.01612  0.81665  0.18580  1.0000
  C   C2568     1.0  0.16560  0.97917  0.00012  1.0000
  H   H2029     1.0  0.34351  0.94660  0.13345  1.0000
  H   H2030     1.0  0.01230  0.91471  0.08804  1.0000
  H   H2031     1.0  0.31004  0.93227  0.02174  1.0000
  H   H2032     1.0  0.30149  0.79669  0.19492  1.0000
  H   H2033     1.0  0.29646  0.88910  0.21626  1.0000
  C   C2569     1.0  0.26151  0.92042  0.19852  1.0000
  H   H2034     1.0  0.26091  0.88781  0.27724  1.0000
  H   H2035     1.0  0.44563  0.91810  0.23964  1.0000
  C   C2570     1.0  0.44643  0.95809  0.12687  1.0000
  H   H2036     1.0  0.35622  0.87418  0.08401  1.0000
  C   C2571     1.0  0.31517  0.81294  0.27955  1.0000
  C   C2572     1.0  0.40407  0.89705  0.08616  1.0000
  C   C2573     1.0  0.36921  0.95517  0.00396  1.0000
  H   H2037     1.0  0.40585  0.84390  0.06395  1.0000
  C   C2574     1.0  0.44301  0.80056  0.36945  1.0000
  H   H2038     1.0  0.38435  0.92656  0.35608  1.0000
  H   H2039     1.0  0.40368  0.96050  0.16414  1.0000
  H   H2040     1.0  0.35834  0.88717  0.00773  1.0000
  C   C2575     1.0  0.05809  0.82376  0.01192  1.0000
  C   C2576     1.0  0.21249  0.78620  0.44171  1.0000
  C   C2577     1.0  0.26142  0.92582  0.03513  1.0000
  C   C2578     1.0  0.36688  0.95867  0.10946  1.0000
  C   C2579     1.0  0.44353  0.94457  0.28605  1.0000
  H   H2041     1.0  0.14374  0.82316  0.98511  1.0000
  C   C2580     1.0  0.02214  0.90434  0.02332  1.0000
  C   C2581     1.0  0.30548  0.79435  0.43606  1.0000
  C   C2582     1.0  0.47589  0.81300  0.35911  1.0000
  H   H2042     1.0  0.33955  0.79490  0.18481  1.0000
  H   H2043     1.0  0.33682  0.96857  0.36179  1.0000
  H   H2044     1.0  0.35840  0.97842  0.28300  1.0000
  C   C2583     1.0  0.29157  0.95232  0.00018  1.0000
  C   C2584     1.0  0.32610  0.79258  0.28331  1.0000
  H   H2045     1.0  0.20602  0.79356  0.45505  1.0000
  H   H2046     1.0  0.34933  0.79624  0.32237  1.0000
  C   C2585     1.0  0.28905  0.95738  0.97945  1.0000
  H   H2047     1.0  0.21888  0.96945  0.22332  1.0000
  H   H2048     1.0  0.31663  0.96783  0.02050  1.0000
  H   H2049     1.0  0.26413  0.87730  0.00195  1.0000
  C   C2586     1.0  0.11665  0.95626  0.30938  1.0000
  C   C2587     1.0  0.38796  0.94860  0.30530  1.0000
  C   C2588     1.0  0.36833  0.96895  0.01716  1.0000
  H   H2050     1.0  0.45710  0.95804  0.33860  1.0000
  H   H2051     1.0  0.32757  0.96175  0.19932  1.0000
  H   H2052     1.0  0.02679  0.82301  0.44314  1.0000
  H   H2053     1.0  0.04290  0.81290  0.16192  1.0000
  H   H2054     1.0  0.36184  0.79929  0.11445  1.0000
  C   C2589     1.0  0.11710  0.90538  0.99038  1.0000
  C   C2590     1.0  0.01887  0.82321  0.45885  1.0000
  H   H2055     1.0  0.47973  0.96993  0.27208  1.0000
  C   C2591     1.0  0.38635  0.86988  0.99365  1.0000
  H   H2056     1.0  0.48156  0.80460  0.22792  1.0000
  H   H2057     1.0  0.11901  0.79439  0.00930  1.0000
  C   C2592     1.0  0.32293  0.92806  0.99070  1.0000
  H   H2058     1.0  0.36594  0.97246  0.04871  1.0000
  H   H2059     1.0  0.04692  0.82133  0.47057  1.0000
  C   C2593     1.0  0.10245  0.97484  0.27919  1.0000
  C   C2594     1.0  0.34205  0.97318  0.16858  1.0000
  C   C2595     1.0  0.35336  0.97612  0.19933  1.0000
  H   H2060     1.0  0.18206  0.97264  0.30422  1.0000
  H   H2061     1.0  0.14275  0.96639  0.31517  1.0000
  H   H2062     1.0  0.38505  0.79301  0.23207  1.0000
  C   C2596     1.0  0.06846  0.82182  0.97575  1.0000
  P   P87       1.0  0.01991  0.87004  0.98072  1.0000
  C   C2597     1.0  0.00127  0.91193  0.03005  1.0000
  H   H2063     1.0  0.24365  0.78951  0.44170  1.0000
  C   C2598     1.0  0.23817  0.80991  0.27065  1.0000
  H   H2064     1.0  0.08691  0.86432  0.97633  1.0000
  H   H2065     1.0  0.27576  0.96811  0.97471  1.0000
  C   C2599     1.0  0.30603  0.97972  0.02782  1.0000
  S   S341      1.0  0.34997  0.97834  0.09628  1.0000
  H   H2066     1.0  0.19487  0.97339  0.33562  1.0000
  H   H2067     1.0  0.15395  0.97791  0.24847  1.0000
  C   C2600     1.0  0.22419  0.90222  0.97712  1.0000
  C   C2601     1.0  0.33812  0.78656  0.29888  1.0000
  C   C2602     1.0  0.23379  0.78393  0.43405  1.0000
  C   C2603     1.0  0.99952  0.85778  0.97752  1.0000
  S   S342      1.0  0.24607  0.98231  0.12525  1.0000
  H   H2068     1.0  0.26891  0.78345  0.47366  1.0000
  C   C2604     1.0  0.16928  0.98053  0.24860  1.0000
  C   C2605     1.0  0.12764  0.78318  0.01982  1.0000
  C   C2606     1.0  0.03022  0.82227  0.47425  1.0000
  H   H2069     1.0  0.32622  0.78377  0.85305  1.0000
  Fe  Fe170     1.0  0.43664  0.84217  0.79575  1.0000
  S   S343      1.0  0.45589  0.81724  0.77912  1.0000
  C   C2607     1.0  0.20531  0.85354  0.95020  1.0000
  Fe  Fe171     1.0  0.39705  0.83676  0.78404  1.0000
  S   S344      1.0  0.41339  0.81177  0.76587  1.0000
  S   S345      1.0  0.36220  0.84349  0.78966  1.0000
  C   C2608     1.0  0.17107  0.92800  0.92732  1.0000
  H   H2070     1.0  0.10353  0.80258  0.91737  1.0000
  Fe  Fe172     1.0  0.43774  0.83202  0.75396  1.0000
  S   S346      1.0  0.45510  0.83761  0.72132  1.0000
  S   S347      1.0  0.41213  0.82337  0.81171  1.0000
  S   S348      1.0  0.41987  0.85823  0.76967  1.0000
  Fe  Fe173     1.0  0.26390  0.89881  0.86837  1.0000
  S   S349      1.0  0.24954  0.92184  0.88894  1.0000
  S   S350      1.0  0.24994  0.86996  0.87522  1.0000
  Fe  Fe174     1.0  0.29686  0.92389  0.84659  1.0000
  S   S351      1.0  0.28520  0.94903  0.86547  1.0000
  S   S352      1.0  0.32595  0.92656  0.82380  1.0000
  Fe  Fe175     1.0  0.28189  0.92278  0.89186  1.0000
  S   S353      1.0  0.28898  0.92305  0.92291  1.0000
  Fe  Fe176     1.0  0.25401  0.94590  0.86066  1.0000
  P   P88       1.0  0.03612  0.93182  0.63027  1.0000
  S   S354      1.0  0.29610  0.89770  0.87340  1.0000
  S   S355      1.0  0.26587  0.92271  0.83946  1.0000
  C   C2609     1.0  0.24932  0.92444  0.97344  1.0000
  C   C2610     1.0  0.18540  0.81331  0.89428  1.0000
  S   S356      1.0  0.07186  0.79797  0.56130  1.0000
  C   C2611     1.0  0.10345  0.79154  0.93160  1.0000
  C   C2612     1.0  0.23039  0.92154  0.96961  1.0000
  C   C2613     1.0  0.00927  0.96495  0.58151  1.0000
  S   S357      1.0  0.45339  0.85851  0.81123  1.0000
  Fe  Fe177     1.0  0.09343  0.81169  0.53393  1.0000
  S   S358      1.0  0.10042  0.84433  0.53054  1.0000
  H   H2071     1.0  0.08490  0.86623  0.63141  1.0000
  S   S359      1.0  0.07507  0.80816  0.51063  1.0000
  Fe  Fe178     1.0  0.16684  0.95587  0.57932  1.0000
  S   S360      1.0  0.14736  0.94664  0.56034  1.0000
  C   C2614     1.0  0.98966  0.89797  0.64347  1.0000
  Fe  Fe179     1.0  0.13995  0.94066  0.61914  1.0000
  S   S361      1.0  0.11774  0.93084  0.60395  1.0000
  S   S362      1.0  0.13726  0.93789  0.65330  1.0000
  Fe  Fe180     1.0  0.14629  0.91728  0.58364  1.0000
  S   S363      1.0  0.15076  0.88376  0.57866  1.0000
  Fe  Fe181     1.0  0.12020  0.96068  0.58195  1.0000
  H   H2072     1.0  0.46663  0.79373  0.85931  1.0000
  S   S364      1.0  0.16852  0.92517  0.60065  1.0000
  H   H2073     1.0  0.00588  0.96200  0.56750  1.0000
  Fe  Fe182     1.0  0.03660  0.92075  0.74899  1.0000
  S   S365      1.0  0.06465  0.89623  0.75172  1.0000
  S   S366      1.0  0.03807  0.95412  0.74977  1.0000
  Fe  Fe183     1.0  0.01047  0.89042  0.74253  1.0000
  S   S367      1.0  0.03660  0.86347  0.74609  1.0000
  Fe  Fe184     1.0  0.04247  0.87668  0.77209  1.0000
  S   S368      1.0  0.05610  0.85555  0.79883  1.0000
  Fe  Fe185     1.0  0.05666  0.88518  0.72583  1.0000
  S   S369      1.0  0.07935  0.87358  0.69934  1.0000
  S   S370      1.0  0.01432  0.90191  0.77072  1.0000
  S   S371      1.0  0.03041  0.91160  0.72089  1.0000
  Fe  Fe186     1.0  0.12170  0.84084  0.92056  1.0000
  S   S372      1.0  0.09063  0.85868  0.93166  1.0000
  Fe  Fe187     1.0  0.13354  0.87733  0.88855  1.0000
  S   S373      1.0  0.10354  0.89809  0.89775  1.0000
  S   S374      1.0  0.15663  0.89165  0.86331  1.0000
  Fe  Fe188     1.0  0.10801  0.88428  0.93019  1.0000
  S   S375      1.0  0.10146  0.90196  0.95673  1.0000
  Fe  Fe189     1.0  0.08916  0.87058  0.89814  1.0000
  S   S376      1.0  0.05885  0.87613  0.88603  1.0000
  S   S377      1.0  0.13915  0.86583  0.92082  1.0000
  S   S378      1.0  0.11912  0.85046  0.88697  1.0000
  Fe  Fe190     1.0  0.42987  0.79980  0.79274  1.0000
  C   C2615     1.0  0.14239  0.89591  0.96117  1.0000
  H   H2074     1.0  0.21562  0.93366  0.68097  1.0000
  H   H2075     1.0  0.14610  0.89265  0.94573  1.0000
  C   C2616     1.0  0.05745  0.86313  0.82205  1.0000
  C   C2617     1.0  0.04146  0.87700  0.83145  1.0000
  C   C2618     1.0  0.04195  0.88069  0.85114  1.0000
  C   C2619     1.0  0.05878  0.87117  0.86125  1.0000
  C   C2620     1.0  0.07506  0.85786  0.85153  1.0000
  C   C2621     1.0  0.07421  0.85360  0.83220  1.0000
  H   H2076     1.0  0.02832  0.88417  0.82394  1.0000
  H   H2077     1.0  0.02920  0.89089  0.85859  1.0000
  H   H2078     1.0  0.08803  0.85035  0.85916  1.0000
  H   H2079     1.0  0.08651  0.84268  0.82516  1.0000
  C   C2622     1.0  0.12304  0.91844  0.66640  1.0000
  C   C2623     1.0  0.11420  0.91843  0.68705  1.0000
  C   C2624     1.0  0.10106  0.90441  0.69737  1.0000
  C   C2625     1.0  0.09697  0.89012  0.68709  1.0000
  C   C2626     1.0  0.10663  0.88939  0.66668  1.0000
  C   C2627     1.0  0.11962  0.90361  0.65631  1.0000
  H   H2080     1.0  0.11676  0.92998  0.69465  1.0000
  H   H2081     1.0  0.09380  0.90487  0.71316  1.0000
  H   H2082     1.0  0.10365  0.87822  0.65871  1.0000
  H   H2083     1.0  0.12688  0.90310  0.64051  1.0000
  C   C2628     1.0  0.11439  0.85483  0.54436  1.0000
  C   C2629     1.0  0.12622  0.84243  0.55865  1.0000
  C   C2630     1.0  0.13745  0.85153  0.56879  1.0000
  C   C2631     1.0  0.13666  0.87311  0.56510  1.0000
  C   C2632     1.0  0.12472  0.88551  0.55091  1.0000
  C   C2633     1.0  0.11379  0.87639  0.54052  1.0000
  H   H2084     1.0  0.12696  0.82583  0.56163  1.0000
  H   H2085     1.0  0.14681  0.84182  0.57959  1.0000
  H   H2086     1.0  0.12416  0.90209  0.54772  1.0000
  H   H2087     1.0  0.10485  0.88611  0.52935  1.0000
  H   H2088     1.0  0.46192  0.80776  0.91587  1.0000
  C   C2634     1.0  0.01371  0.83355  0.55102  1.0000
  C   C2635     1.0  0.30776  0.81481  0.88940  1.0000
  H   H2089     1.0  0.02950  0.83427  0.54336  1.0000
  C   C2636     1.0  0.99858  0.82343  0.49945  1.0000
  H   H2090     1.0  0.04271  0.85894  0.69531  1.0000
  H   H2091     1.0  0.20998  0.89938  0.97399  1.0000
  H   H2092     1.0  0.39316  0.80706  0.91725  1.0000
  C   C2637     1.0  0.18283  0.91221  0.91705  1.0000
  H   H2093     1.0  0.06283  0.93429  0.58929  1.0000
  H   H2094     1.0  0.99771  0.89595  0.94834  1.0000
  C   C2638     1.0  0.33422  0.81206  0.91778  1.0000
  H   H2095     1.0  0.17487  0.96893  0.79579  1.0000
  C   C2639     1.0  0.00082  0.79700  0.94210  1.0000
  H   H2096     1.0  0.23695  0.84108  0.95378  1.0000
  C   C2640     1.0  0.22357  0.87689  0.87356  1.0000
  C   C2641     1.0  0.21658  0.89487  0.86041  1.0000
  C   C2642     1.0  0.19590  0.89939  0.85749  1.0000
  C   C2643     1.0  0.18198  0.88641  0.86837  1.0000
  C   C2644     1.0  0.18863  0.86913  0.88255  1.0000
  C   C2645     1.0  0.20952  0.86420  0.88495  1.0000
  H   H2097     1.0  0.22732  0.90487  0.85196  1.0000
  H   H2098     1.0  0.19067  0.91289  0.84672  1.0000
  H   H2099     1.0  0.17778  0.85932  0.89122  1.0000
  H   H2100     1.0  0.21477  0.85069  0.89566  1.0000
  C   C2646     1.0  0.31052  0.90430  0.92891  1.0000
  C   C2647     1.0  0.31278  0.89754  0.94949  1.0000
  H   H2101     1.0  0.00765  0.96645  0.71415  1.0000
  C   C2648     1.0  0.34507  0.87498  0.93942  1.0000
  C   C2649     1.0  0.34296  0.88183  0.91876  1.0000
  C   C2650     1.0  0.32561  0.89632  0.91352  1.0000
  H   H2102     1.0  0.22918  0.90958  0.93120  1.0000
  H   H2103     1.0  0.35474  0.87604  0.90675  1.0000
  H   H2104     1.0  0.32436  0.90182  0.89755  1.0000
  C   C2651     1.0  0.35248  0.86606  0.80017  1.0000
  C   C2652     1.0  0.36517  0.88059  0.79861  1.0000
  C   C2653     1.0  0.35694  0.89917  0.80597  1.0000
  C   C2654     1.0  0.33619  0.90295  0.81544  1.0000
  C   C2655     1.0  0.32361  0.88816  0.81760  1.0000
  C   C2656     1.0  0.33169  0.86983  0.80967  1.0000
  H   H2105     1.0  0.38118  0.87776  0.79128  1.0000
  H   H2106     1.0  0.36665  0.91062  0.80430  1.0000
  H   H2107     1.0  0.30750  0.89115  0.82478  1.0000
  H   H2108     1.0  0.32187  0.85865  0.81075  1.0000
  C   C2657     1.0  0.13006  0.96170  0.72664  1.0000
  C   C2658     1.0  0.01171  0.97584  0.69927  1.0000
  H   H2109     1.0  0.06446  0.92943  0.69272  1.0000
  C   C2659     1.0  0.32984  0.88275  0.95479  1.0000
  C   C2660     1.0  0.34398  0.82941  0.91069  1.0000
  C   C2661     1.0  0.23841  0.88007  0.72322  1.0000
  H   H2110     1.0  0.99887  0.79706  0.75806  1.0000
  C   C2662     1.0  0.00721  0.90669  0.63399  1.0000
  S   S379      1.0  0.09317  0.97983  0.56775  1.0000
  S   S380      1.0  0.02059  0.79362  0.54368  1.0000
  C   C2663     1.0  0.08680  0.96830  0.78145  1.0000
  C   C2664     1.0  0.00453  0.92277  0.66361  1.0000
  C   C2665     1.0  0.01144  0.80920  0.92545  1.0000
  C   C2666     1.0  0.05684  0.95922  0.76227  1.0000
  C   C2667     1.0  0.06719  0.94370  0.77577  1.0000
  C   C2668     1.0  0.08205  0.94826  0.78534  1.0000
  H   H2111     1.0  0.99203  0.96915  0.78466  1.0000
  H   H2112     1.0  0.06369  0.92821  0.77894  1.0000
  H   H2113     1.0  0.08997  0.93615  0.79570  1.0000
  H   H2114     1.0  0.15184  0.78774  0.49333  1.0000
  H   H2115     1.0  0.01273  0.79145  0.59037  1.0000
  H   H2116     1.0  0.48920  0.89445  0.87049  1.0000
  H   H2117     1.0  0.03724  0.96015  0.83651  1.0000
  H   H2118     1.0  0.02884  0.82189  0.50643  1.0000
  H   H2119     1.0  0.33137  0.87765  0.97077  1.0000
  S   S381      1.0  0.36710  0.85741  0.94592  1.0000
  C   C2669     1.0  0.46056  0.82240  0.83845  1.0000
  C   C2670     1.0  0.01481  0.91912  0.64399  1.0000
  C   C2671     1.0  0.18019  0.93714  0.93917  1.0000
  H   H2120     1.0  0.44558  0.81994  0.83690  1.0000
  C   C2672     1.0  0.28235  0.96592  0.57315  1.0000
  C   C2673     1.0  0.06387  0.93685  0.67695  1.0000
  C   C2674     1.0  0.00556  0.81553  0.55302  1.0000
  H   H2121     1.0  0.14505  0.80310  0.87701  1.0000
  H   H2122     1.0  0.22704  0.95343  0.91082  1.0000
  H   H2123     1.0  0.17427  0.89355  0.96387  1.0000
  C   C2675     1.0  0.35847  0.92039  0.56521  1.0000
  C   C2676     1.0  0.01997  0.91193  0.92682  1.0000
  H   H2124     1.0  0.25508  0.93873  0.96736  1.0000
  H   H2125     1.0  0.24496  0.95885  0.54910  1.0000
  H   H2126     1.0  0.04327  0.91824  0.67310  1.0000
  Fe  Fe191     1.0  0.05507  0.79263  0.53802  1.0000
  C   C2677     1.0  0.18758  0.79641  0.91039  1.0000
  C   C2678     1.0  0.28613  0.93436  0.78529  1.0000
  H   H2127     1.0  0.29640  0.84786  0.88189  1.0000
  H   H2128     1.0  0.08693  0.97102  0.63909  1.0000
  C   C2679     1.0  0.17015  0.81572  0.88224  1.0000
  H   H2129     1.0  0.05488  0.89010  0.64568  1.0000
  C   C2680     1.0  0.29711  0.79280  0.93340  1.0000
  C   C2681     1.0  0.01328  0.94799  0.80218  1.0000
  H   H2130     1.0  0.30536  0.79948  0.96042  1.0000
  H   H2131     1.0  0.45896  0.84460  0.89975  1.0000
  H   H2132     1.0  0.30117  0.90355  0.96138  1.0000
  C   C2682     1.0  0.05560  0.91334  0.61800  1.0000
  C   C2683     1.0  0.10328  0.91882  0.83354  1.0000
  C   C2684     1.0  0.08404  0.91245  0.83886  1.0000
  C   C2685     1.0  0.06859  0.92149  0.85328  1.0000
  C   C2686     1.0  0.07241  0.93669  0.86258  1.0000
  C   C2687     1.0  0.09173  0.94315  0.85739  1.0000
  C   C2688     1.0  0.10702  0.93436  0.84248  1.0000
  P   P89       1.0  0.09566  0.96457  0.86755  1.0000
  C   C2689     1.0  0.08287  0.96268  0.89415  1.0000
  C   C2690     1.0  0.12320  0.96387  0.86571  1.0000
  C   C2691     1.0  0.13612  0.94519  0.87205  1.0000
  C   C2692     1.0  0.15733  0.94454  0.87088  1.0000
  C   C2693     1.0  0.16597  0.96239  0.86298  1.0000
  H   H2133     1.0  0.15043  0.97433  0.90990  1.0000
  H   H2134     1.0  0.26490  0.90884  0.74059  1.0000
  C   C2694     1.0  0.30185  0.83341  0.87622  1.0000
  H   H2135     1.0  0.18875  0.97115  0.90349  1.0000
  C   C2695     1.0  0.06234  0.95939  0.93524  1.0000
  C   C2696     1.0  0.08360  0.95210  0.93077  1.0000
  C   C2697     1.0  0.09382  0.95353  0.91035  1.0000
  H   H2136     1.0  0.33210  0.92670  0.95840  1.0000
  H   H2137     1.0  0.01772  0.86043  0.64162  1.0000
  H   H2138     1.0  0.48511  0.79615  0.67163  1.0000
  H   H2139     1.0  0.24950  0.97762  0.89010  1.0000
  H   H2140     1.0  0.37077  0.90703  0.56449  1.0000
  C   C2698     1.0  0.15834  0.89655  0.97146  1.0000
  H   H2141     1.0  0.11513  0.91195  0.82218  1.0000
  H   H2142     1.0  0.08109  0.90058  0.83172  1.0000
  H   H2143     1.0  0.05369  0.91653  0.85745  1.0000
  C   C2699     1.0  0.11646  0.79193  0.94515  1.0000
  H   H2144     1.0  0.12173  0.93965  0.83750  1.0000
  H   H2145     1.0  0.12983  0.93104  0.87782  1.0000
  H   H2146     1.0  0.16707  0.93008  0.87593  1.0000
  H   H2147     1.0  0.18245  0.96185  0.86196  1.0000
  H   H2148     1.0  0.27672  0.97418  0.54170  1.0000
  H   H2149     1.0  0.03932  0.82214  0.91333  1.0000
  H   H2150     1.0  0.00543  0.89110  0.58308  1.0000
  H   H2151     1.0  0.47304  0.83029  0.65168  1.0000
  C   C2700     1.0  0.31675  0.79693  0.88084  1.0000
  H   H2152     1.0  0.17050  0.94865  0.94767  1.0000
  H   H2153     1.0  0.31460  0.81651  0.83032  1.0000
  C   C2701     1.0  0.30381  0.83385  0.85512  1.0000
  H   H2154     1.0  0.06224  0.78715  0.61623  1.0000
  C   C2702     1.0  0.24038  0.89322  0.75954  1.0000
  H   H2155     1.0  0.23241  0.97345  0.96584  1.0000
  P   P90       1.0  0.21372  0.94223  0.95566  1.0000
  C   C2703     1.0  0.07936  0.88058  0.62182  1.0000
  H   H2156     1.0  0.21315  0.86549  0.74126  1.0000
  H   H2157     1.0  0.46215  0.79950  0.70569  1.0000
  H   H2158     1.0  0.05570  0.80580  0.94377  1.0000
  P   P91       1.0  0.20715  0.79391  0.92591  1.0000
  H   H2159     1.0  0.00927  0.93316  0.67128  1.0000
  C   C2704     1.0  0.19480  0.95645  0.97319  1.0000
  C   C2705     1.0  0.23611  0.97422  0.94930  1.0000
  H   H2160     1.0  0.46883  0.85522  0.75060  1.0000
  S   S382      1.0  0.13960  0.97198  0.59905  1.0000
  C   C2706     1.0  0.99937  0.80191  0.63902  1.0000
  C   C2707     1.0  0.25763  0.94653  0.59686  1.0000
  C   C2708     1.0  0.22880  0.96099  0.93994  1.0000
  C   C2709     1.0  0.27151  0.96673  0.55722  1.0000
  C   C2710     1.0  0.02453  0.95276  0.61245  1.0000
  C   C2711     1.0  0.06174  0.97922  0.75832  1.0000
  H   H2161     1.0  0.08719  0.95472  0.67571  1.0000
  H   H2162     1.0  0.42271  0.84623  0.91890  1.0000
  C   C2712     1.0  0.47998  0.85630  0.73646  1.0000
  C   C2713     1.0  0.45054  0.79761  0.92026  1.0000
  H   H2163     1.0  0.16968  0.78829  0.95599  1.0000
  H   H2164     1.0  0.04851  0.78479  0.65529  1.0000
  C   C2714     1.0  0.99893  0.79372  0.62174  1.0000
  H   H2165     1.0  0.26801  0.80786  0.87273  1.0000
  C   C2715     1.0  0.19435  0.95123  0.77357  1.0000
  H   H2166     1.0  0.43585  0.80954  0.94806  1.0000
  H   H2167     1.0  0.01184  0.86077  0.60985  1.0000
  C   C2716     1.0  0.22352  0.83890  0.94845  1.0000
  C   C2717     1.0  0.43599  0.79853  0.93836  1.0000
  H   H2168     1.0  0.05885  0.88541  0.96361  1.0000
  H   H2169     1.0  0.18449  0.98093  0.94909  1.0000
  H   H2170     1.0  0.29924  0.84835  0.84516  1.0000
  H   H2171     1.0  0.04536  0.92600  0.90818  1.0000
  H   H2172     1.0  0.03596  0.93054  0.82048  1.0000
  C   C2718     1.0  0.47245  0.80763  0.85129  1.0000
  C   C2719     1.0  0.02785  0.88785  0.95771  1.0000
  H   H2173     1.0  0.25209  0.93883  0.61222  1.0000
  C   C2720     1.0  0.31893  0.79748  0.85965  1.0000
  C   C2721     1.0  0.32666  0.95503  0.56701  1.0000
  H   H2174     1.0  0.31934  0.92559  0.77845  1.0000
  C   C2722     1.0  0.04027  0.91579  0.92219  1.0000
  C   C2723     1.0  0.05132  0.93100  0.66591  1.0000
  C   C2724     1.0  0.20374  0.90563  0.91853  1.0000
  H   H2175     1.0  0.03773  0.78341  0.97278  1.0000
  S   S383      1.0  0.22842  0.97360  0.85770  1.0000
  C   C2725     1.0  0.03110  0.81262  0.92619  1.0000
  C   C2726     1.0  0.01364  0.89834  0.94475  1.0000
  H   H2176     1.0  0.06014  0.94350  0.87356  1.0000
  H   H2177     1.0  0.11997  0.84371  0.96216  1.0000
  H   H2178     1.0  0.11017  0.94728  0.90747  1.0000
  H   H2179     1.0  0.01463  0.81953  0.65215  1.0000
  P   P92       1.0  0.30576  0.97686  0.56811  1.0000
  C   C2727     1.0  0.19721  0.94499  0.80957  1.0000
  C   C2728     1.0  0.21373  0.92877  0.80625  1.0000
  C   C2729     1.0  0.22035  0.92332  0.78667  1.0000
  H   H2180     1.0  0.99323  0.83390  0.69278  1.0000
  P   P93       1.0  0.24138  0.90195  0.78287  1.0000
  C   C2730     1.0  0.22461  0.87473  0.74127  1.0000
  C   C2731     1.0  0.23720  0.88107  0.80439  1.0000
  C   C2732     1.0  0.21696  0.87743  0.81271  1.0000
  C   C2733     1.0  0.21347  0.86116  0.82904  1.0000
  C   C2734     1.0  0.23012  0.84857  0.83747  1.0000
  C   C2735     1.0  0.25026  0.85230  0.82962  1.0000
  C   C2736     1.0  0.25383  0.86848  0.81317  1.0000
  S   S384      1.0  0.13316  0.81012  0.93931  1.0000
  C   C2737     1.0  0.18745  0.95611  0.79327  1.0000
  H   H2181     1.0  0.14518  0.96418  0.72783  1.0000
  H   H2182     1.0  0.09214  0.94500  0.94320  1.0000
  H   H2183     1.0  0.46573  0.86393  0.86420  1.0000
  H   H2184     1.0  0.23731  0.81776  0.89810  1.0000
  C   C2738     1.0  0.12168  0.90058  0.97043  1.0000
  H   H2185     1.0  0.99114  0.82326  0.51535  1.0000
  C   C2739     1.0  0.33070  0.94429  0.55046  1.0000
  C   C2740     1.0  0.05408  0.90639  0.93565  1.0000
  C   C2741     1.0  0.22556  0.88127  0.75935  1.0000
  H   H2186     1.0  0.30147  0.95173  0.94852  1.0000
  C   C2742     1.0  0.44621  0.85419  0.89280  1.0000
  H   H2187     1.0  0.19229  0.94931  0.82466  1.0000
  H   H2188     1.0  0.22148  0.92059  0.81889  1.0000
  C   C2743     1.0  0.25958  0.79604  0.88215  1.0000
  H   H2189     1.0  0.20379  0.88739  0.80683  1.0000
  H   H2190     1.0  0.19775  0.85883  0.83570  1.0000
  H   H2191     1.0  0.22734  0.83647  0.85064  1.0000
  H   H2192     1.0  0.26304  0.84308  0.83676  1.0000
  H   H2193     1.0  0.26953  0.87123  0.80776  1.0000
  C   C2744     1.0  0.22427  0.82114  0.94041  1.0000
  C   C2745     1.0  0.34602  0.79276  0.92434  1.0000
  C   C2746     1.0  0.31239  0.81593  0.84680  1.0000
  C   C2747     1.0  0.06152  0.97033  0.89883  1.0000
  H   H2194     1.0  0.07310  0.83351  0.68365  1.0000
  H   H2195     1.0  0.09209  0.90959  0.57479  1.0000
  H   H2196     1.0  0.23245  0.94152  0.58418  1.0000
  H   H2197     1.0  0.26357  0.89654  0.70910  1.0000
  H   H2198     1.0  0.24665  0.96504  0.81644  1.0000
  H   H2199     1.0  0.21463  0.87702  0.77307  1.0000
  C   C2748     1.0  0.45716  0.78298  0.73673  1.0000
  C   C2749     1.0  0.21084  0.93494  0.77022  1.0000
  C   C2750     1.0  0.23319  0.96278  0.91847  1.0000
  C   C2751     1.0  0.32081  0.93384  0.97004  1.0000
  C   C2752     1.0  0.13223  0.86890  0.72334  1.0000
  C   C2753     1.0  0.11822  0.86127  0.74025  1.0000
  C   C2754     1.0  0.11268  0.87086  0.75755  1.0000
  C   C2755     1.0  0.12073  0.88842  0.75774  1.0000
  C   C2756     1.0  0.13483  0.89623  0.74079  1.0000
  C   C2757     1.0  0.14055  0.88629  0.72358  1.0000
  P   P94       1.0  0.14376  0.91986  0.74084  1.0000
  C   C2758     1.0  0.12448  0.94199  0.73343  1.0000
  C   C2759     1.0  0.14903  0.91862  0.76627  1.0000
  C   C2760     1.0  0.14431  0.93630  0.77545  1.0000
  C   C2761     1.0  0.14824  0.93501  0.79527  1.0000
  C   C2762     1.0  0.15704  0.91617  0.80600  1.0000
  C   C2763     1.0  0.16174  0.89845  0.79698  1.0000
  C   C2764     1.0  0.15794  0.89968  0.77712  1.0000
  C   C2765     1.0  0.08344  0.90512  0.58999  1.0000
  C   C2766     1.0  0.02851  0.86131  0.66894  1.0000
  H   H2200     1.0  0.00921  0.91932  0.91644  1.0000
  C   C2767     1.0  0.09136  0.95570  0.72222  1.0000
  C   C2768     1.0  0.10468  0.93937  0.73187  1.0000
  C   C2769     1.0  0.16701  0.92292  0.72202  1.0000
  C   C2770     1.0  0.16570  0.92824  0.70100  1.0000
  C   C2771     1.0  0.18319  0.93191  0.68628  1.0000
  C   C2772     1.0  0.20211  0.93068  0.69243  1.0000
  C   C2773     1.0  0.20352  0.92574  0.71333  1.0000
  C   C2774     1.0  0.18610  0.92171  0.72809  1.0000
  H   H2201     1.0  0.13594  0.86185  0.70968  1.0000
  H   H2202     1.0  0.11120  0.84828  0.73972  1.0000
  H   H2203     1.0  0.10145  0.86517  0.77050  1.0000
  H   H2204     1.0  0.11548  0.89620  0.77092  1.0000
  H   H2205     1.0  0.15083  0.89220  0.71002  1.0000
  H   H2206     1.0  0.13729  0.95103  0.76755  1.0000
  H   H2207     1.0  0.14418  0.94867  0.80243  1.0000
  H   H2208     1.0  0.15980  0.91524  0.82146  1.0000
  H   H2209     1.0  0.16791  0.88372  0.80562  1.0000
  H   H2210     1.0  0.16163  0.88579  0.77037  1.0000
  C   C2775     1.0  0.00132  0.85074  0.55894  1.0000
  C   C2776     1.0  0.28464  0.89679  0.77448  1.0000
  C   C2777     1.0  0.18828  0.83237  0.93642  1.0000
  C   C2778     1.0  0.15331  0.98095  0.85632  1.0000
  H   H2211     1.0  0.09968  0.92457  0.73726  1.0000
  H   H2212     1.0  0.15111  0.92973  0.69589  1.0000
  H   H2213     1.0  0.18186  0.93582  0.67010  1.0000
  C   C2779     1.0  0.06105  0.83923  0.67433  1.0000
  H   H2214     1.0  0.21811  0.92512  0.71808  1.0000
  H   H2215     1.0  0.18753  0.91797  0.74417  1.0000
  C   C2780     1.0  0.45008  0.86527  0.87282  1.0000
  C   C2781     1.0  0.02689  0.96211  0.82563  1.0000
  H   H2216     1.0  0.18916  0.97305  0.60825  1.0000
  H   H2217     1.0  0.17334  0.86117  0.94636  1.0000
  C   C2782     1.0  0.18767  0.85019  0.94433  1.0000
  H   H2218     1.0  0.19536  0.82471  0.89121  1.0000
  C   C2783     1.0  0.06226  0.89416  0.62985  1.0000
  C   C2784     1.0  0.26697  0.92866  0.78636  1.0000
  C   C2785     1.0  0.45854  0.78524  0.71549  1.0000
  C   C2786     1.0  0.05326  0.83905  0.97101  1.0000
  C   C2787     1.0  0.02112  0.88266  0.58330  1.0000
  C   C2788     1.0  0.42166  0.78507  0.94407  1.0000
  C   C2789     1.0  0.21295  0.91489  0.93016  1.0000
  C   C2790     1.0  0.08986  0.88597  0.60184  1.0000
  H   H2219     1.0  0.07499  0.97421  0.83107  1.0000
  C   C2791     1.0  0.05025  0.94078  0.64554  1.0000
  H   H2220     1.0  0.01521  0.87235  0.67422  1.0000
  H   H2221     1.0  0.10337  0.87560  0.59579  1.0000
  H   H2222     1.0  0.48854  0.84605  0.68800  1.0000
  C   C2792     1.0  0.37679  0.80835  0.91728  1.0000
  C   C2793     1.0  0.33837  0.94800  0.58289  1.0000
  H   H2223     1.0  0.03425  0.90114  0.55539  1.0000
  C   C2794     1.0  0.03013  0.85466  0.65030  1.0000
  H   H2224     1.0  0.33517  0.95561  0.59613  1.0000
  H   H2225     1.0  0.18705  0.96038  0.76092  1.0000
  H   H2226     1.0  0.17566  0.90478  0.90826  1.0000
  C   C2795     1.0  0.41298  0.93424  0.81296  1.0000
  C   C2796     1.0  0.41799  0.92341  0.79654  1.0000
  C   C2797     1.0  0.41485  0.90298  0.79976  1.0000
  C   C2798     1.0  0.40652  0.89335  0.81931  1.0000
  C   C2799     1.0  0.40120  0.90420  0.83584  1.0000
  C   C2800     1.0  0.40482  0.92462  0.83259  1.0000
  P   P95       1.0  0.39168  0.89160  0.86144  1.0000
  C   C2801     1.0  0.37409  0.91111  0.87453  1.0000
  C   C2802     1.0  0.37816  0.87152  0.85975  1.0000
  C   C2803     1.0  0.35668  0.87541  0.86000  1.0000
  C   C2804     1.0  0.34666  0.85961  0.85860  1.0000
  C   C2805     1.0  0.35790  0.83980  0.85707  1.0000
  C   C2806     1.0  0.37920  0.83577  0.85698  1.0000
  C   C2807     1.0  0.38935  0.85155  0.85808  1.0000
  C   C2808     1.0  0.37541  0.91318  0.89447  1.0000
  C   C2809     1.0  0.36102  0.92783  0.90448  1.0000
  C   C2810     1.0  0.34542  0.94070  0.89459  1.0000
  C   C2811     1.0  0.34450  0.93928  0.87447  1.0000
  C   C2812     1.0  0.35888  0.92472  0.86442  1.0000
  C   C2813     1.0  0.41321  0.87860  0.87431  1.0000
  C   C2814     1.0  0.43370  0.87742  0.86357  1.0000
  H   H2227     1.0  0.48652  0.80258  0.80739  1.0000
  C   C2815     1.0  0.15730  0.80094  0.88589  1.0000
  C   C2816     1.0  0.42587  0.85512  0.90354  1.0000
  C   C2817     1.0  0.40944  0.86710  0.89427  1.0000
  H   H2228     1.0  0.41558  0.95003  0.81051  1.0000
  H   H2229     1.0  0.42453  0.93071  0.78135  1.0000
  H   H2230     1.0  0.41924  0.89441  0.78716  1.0000
  H   H2231     1.0  0.40459  0.87737  0.82146  1.0000
  H   H2232     1.0  0.40138  0.93310  0.84522  1.0000
  H   H2233     1.0  0.34751  0.89056  0.86097  1.0000
  H   H2234     1.0  0.33021  0.86291  0.85835  1.0000
  H   H2235     1.0  0.35019  0.82762  0.85575  1.0000
  H   H2236     1.0  0.38799  0.82050  0.85580  1.0000
  H   H2237     1.0  0.40601  0.84811  0.85738  1.0000
  H   H2238     1.0  0.38714  0.90333  0.90260  1.0000
  H   H2239     1.0  0.36162  0.92875  0.92016  1.0000
  H   H2240     1.0  0.33384  0.95152  0.90259  1.0000
  H   H2241     1.0  0.33240  0.94914  0.86672  1.0000
  H   H2242     1.0  0.35784  0.92377  0.84884  1.0000
  H   H2243     1.0  0.43712  0.88514  0.84777  1.0000
  C   C2818     1.0  0.26606  0.90974  0.78110  1.0000
  C   C2819     1.0  0.20133  0.93083  0.94047  1.0000
  C   C2820     1.0  0.30376  0.90261  0.77333  1.0000
  H   H2244     1.0  0.39374  0.86704  0.90257  1.0000
  C   C2821     1.0  0.29222  0.83719  0.92588  1.0000
  C   C2822     1.0  0.27371  0.84715  0.91888  1.0000
  C   C2823     1.0  0.26255  0.86520  0.92584  1.0000
  C   C2824     1.0  0.26883  0.87241  0.94109  1.0000
  C   C2825     1.0  0.28618  0.86148  0.94944  1.0000
  C   C2826     1.0  0.29815  0.84427  0.94154  1.0000
  H   H2245     1.0  0.26801  0.84120  0.90785  1.0000
  H   H2246     1.0  0.24891  0.87342  0.91952  1.0000
  H   H2247     1.0  0.26033  0.88643  0.94647  1.0000
  H   H2248     1.0  0.29056  0.86644  0.96193  1.0000
  H   H2249     1.0  0.31189  0.83646  0.94786  1.0000
  H   H2250     1.0  0.37266  0.84091  0.90509  1.0000
  H   H2251     1.0  0.33522  0.84441  0.90533  1.0000
  C   C2827     1.0  0.36520  0.82749  0.91040  1.0000
  H   H2252     1.0  0.17769  0.79018  0.51377  1.0000
  H   H2253     1.0  0.28682  0.94864  0.79001  1.0000
  H   H2254     1.0  0.23394  0.97764  0.78306  1.0000
  H   H2255     1.0  0.36335  0.92545  0.59416  1.0000
  H   H2256     1.0  0.15467  0.93259  0.92674  1.0000
  H   H2257     1.0  0.00280  0.85482  0.71458  1.0000
  C   C2828     1.0  0.06661  0.91898  0.59817  1.0000
  H   H2258     1.0  0.28438  0.88205  0.77047  1.0000
  C   C2829     1.0  0.27561  0.95521  0.59287  1.0000
  H   H2259     1.0  0.06965  0.90977  0.93229  1.0000
  C   C2830     1.0  0.11207  0.81083  0.60712  1.0000
  H   H2260     1.0  0.00752  0.86473  0.55709  1.0000
  C   C2831     1.0  0.25369  0.95778  0.56122  1.0000
  C   C2832     1.0  0.07589  0.79417  0.61363  1.0000
  C   C2833     1.0  0.07439  0.81543  0.61345  1.0000
  C   C2834     1.0  0.09271  0.82353  0.61047  1.0000
  P   P96       1.0  0.04937  0.83179  0.61914  1.0000
  C   C2835     1.0  0.02899  0.81753  0.62044  1.0000
  C   C2836     1.0  0.04733  0.84028  0.64339  1.0000
  C   C2837     1.0  0.30365  0.94815  0.96446  1.0000
  C   C2838     1.0  0.47672  0.84936  0.71949  1.0000
  C   C2839     1.0  0.25297  0.89225  0.72315  1.0000
  H   H2261     1.0  0.23769  0.87492  0.70925  1.0000
  C   C2840     1.0  0.06266  0.83235  0.65579  1.0000
  C   C2841     1.0  0.02769  0.81011  0.60292  1.0000
  C   C2842     1.0  0.01316  0.79771  0.60377  1.0000
  H   H2262     1.0  0.13198  0.97879  0.66941  1.0000
  H   H2263     1.0  0.17422  0.82966  0.93267  1.0000
  C   C2843     1.0  0.01449  0.81362  0.63848  1.0000
  C   C2844     1.0  0.04499  0.85389  0.59886  1.0000
  C   C2845     1.0  0.06096  0.85917  0.58259  1.0000
  C   C2846     1.0  0.05709  0.87628  0.56715  1.0000
  C   C2847     1.0  0.03725  0.88816  0.56761  1.0000
  H   H2264     1.0  0.31809  0.89235  0.76875  1.0000
  C   C2848     1.0  0.02488  0.86543  0.59863  1.0000
  H   H2265     1.0  0.12609  0.81731  0.60461  1.0000
  C   C2849     1.0  0.23114  0.78644  0.90908  1.0000
  H   H2266     1.0  0.00444  0.81605  0.91195  1.0000
  H   H2267     1.0  0.47541  0.96064  0.68704  1.0000
  H   H2268     1.0  0.09206  0.83968  0.61077  1.0000
  C   C2850     1.0  0.20677  0.81798  0.93390  1.0000
  C   C2851     1.0  0.02617  0.94540  0.81664  1.0000
  C   C2852     1.0  0.35430  0.93080  0.58191  1.0000
  H   H2269     1.0  0.07591  0.82090  0.65133  1.0000
  H   H2270     1.0  0.03803  0.81383  0.58861  1.0000
  C   C2853     1.0  0.04397  0.85367  0.68090  1.0000
  C   C2854     1.0  0.46807  0.84027  0.82769  1.0000
  C   C2855     1.0  0.00993  0.78792  0.95956  1.0000
  C   C2856     1.0  0.36718  0.79100  0.92432  1.0000
  H   H2271     1.0  0.07632  0.84999  0.58120  1.0000
  H   H2272     1.0  0.06945  0.87998  0.55453  1.0000
  H   H2273     1.0  0.07843  0.81437  0.96360  1.0000
  H   H2274     1.0  0.02426  0.93365  0.59039  1.0000
  C   C2857     1.0  0.24223  0.80158  0.89678  1.0000
  P   P97       1.0  0.30727  0.81436  0.91641  1.0000
  H   H2275     1.0  0.16799  0.82927  0.87037  1.0000
  C   C2858     1.0  0.07660  0.95131  0.66735  1.0000
  C   C2859     1.0  0.01798  0.97256  0.61768  1.0000
  H   H2276     1.0  0.45969  0.79544  0.74327  1.0000
  H   H2277     1.0  0.32150  0.94920  0.53831  1.0000
  C   C2860     1.0  0.25381  0.89903  0.74115  1.0000
  C   C2861     1.0  0.04032  0.80348  0.94339  1.0000
  H   H2278     1.0  0.05127  0.84452  0.95515  1.0000
  C   C2862     1.0  0.11337  0.78984  0.60691  1.0000
  H   H2279     1.0  0.25302  0.93893  0.79165  1.0000
  C   C2863     1.0  0.01986  0.94897  0.59442  1.0000
  C   C2864     1.0  0.24663  0.94790  0.58106  1.0000
  C   C2865     1.0  0.02997  0.79094  0.95988  1.0000
  H   H2280     1.0  0.21284  0.89332  0.91067  1.0000
  H   H2281     1.0  0.05447  0.95777  0.95111  1.0000
  S   S385      1.0  0.19407  0.97246  0.56415  1.0000
  C   C2866     1.0  0.04793  0.89247  0.95335  1.0000
  C   C2867     1.0  0.06309  0.95539  0.63595  1.0000
  H   H2282     1.0  0.21617  0.93161  0.75482  1.0000
  H   H2283     1.0  0.07640  0.95330  0.72042  1.0000
  C   C2868     1.0  0.24578  0.97667  0.90665  1.0000
  C   C2869     1.0  0.30449  0.92137  0.77876  1.0000
  C   C2870     1.0  0.02005  0.82250  0.49449  1.0000
  H   H2284     1.0  0.01010  0.85807  0.94481  1.0000
  C   C2871     1.0  0.29827  0.78943  0.95441  1.0000
  H   H2285     1.0  0.01329  0.93522  0.79468  1.0000
  C   C2872     1.0  0.18270  0.97516  0.96549  1.0000
  H   H2286     1.0  0.28412  0.95376  0.60522  1.0000
  C   C2873     1.0  0.48893  0.82620  0.65426  1.0000
  H   H2287     1.0  0.34972  0.91889  0.53669  1.0000
  C   C2874     1.0  0.34663  0.92709  0.54953  1.0000
  H   H2288     1.0  0.47838  0.92267  0.69279  1.0000
  C   C2875     1.0  0.09713  0.97510  0.71519  1.0000
  H   H2289     1.0  0.01471  0.90394  0.61873  1.0000
  H   H2290     1.0  0.23838  0.80973  0.93963  1.0000
  C   C2876     1.0  0.15999  0.78356  0.90131  1.0000
  H   H2291     1.0  0.20425  0.97750  0.68208  1.0000
  C   C2877     1.0  0.11633  0.97823  0.71773  1.0000
  H   H2292     1.0  0.39410  0.78761  0.84559  1.0000
  C   C2878     1.0  0.99764  0.78782  0.74712  1.0000
  S   S386      1.0  0.10519  0.97345  0.79421  1.0000
  C   C2879     1.0  0.99860  0.85388  0.95811  1.0000
  C   C2880     1.0  0.07637  0.96048  0.64679  1.0000
  C   C2881     1.0  0.00118  0.96729  0.79657  1.0000
  C   C2882     1.0  0.23225  0.97582  0.81573  1.0000
  H   H2293     1.0  0.20470  0.86721  0.95660  1.0000
  H   H2294     1.0  0.02107  0.97572  0.63170  1.0000
  C   C2883     1.0  0.01472  0.98143  0.82017  1.0000
  H   H2295     1.0  0.03479  0.97417  0.92277  1.0000
  H   H2296     1.0  0.05270  0.97744  0.88665  1.0000
  C   C2884     1.0  0.05130  0.96855  0.91928  1.0000
  H   H2297     1.0  0.06358  0.96210  0.61981  1.0000
  H   H2298     1.0  0.04330  0.97259  0.70337  1.0000
  C   C2885     1.0  0.03213  0.97927  0.69321  1.0000
  C   C2886     1.0  0.48768  0.84317  0.82953  1.0000
  H   H2299     1.0  0.41040  0.78569  0.95814  1.0000
  H   H2300     1.0  0.46212  0.78302  0.89396  1.0000
  H   H2301     1.0  0.07846  0.98178  0.52107  1.0000
  C   C2887     1.0  0.45072  0.78331  0.90785  1.0000
  C   C2888     1.0  0.13208  0.98173  0.85769  1.0000
  H   H2302     1.0  0.16549  0.98244  0.53566  1.0000
  H   H2303     1.0  0.01481  0.78303  0.67832  1.0000
  H   H2304     1.0  0.48891  0.97700  0.70976  1.0000
  C   C2889     1.0  0.22065  0.98263  0.83361  1.0000
  Fe  Fe192     1.0  0.50660  0.14616  0.13771  1.0000
  S   S387      1.0  0.52432  0.12374  0.11741  1.0000
  H   H2305     1.0  0.65502  0.16117  0.04506  1.0000
  C   C2890     1.0  0.52273  0.99158  0.26651  1.0000
  S   S388      1.0  0.51720  0.08676  0.15820  1.0000
  C   C2891     1.0  0.76381  0.06296  0.99781  1.0000
  Fe  Fe193     1.0  0.54000  0.10834  0.14437  1.0000
  S   S389      1.0  0.57486  0.10107  0.14051  1.0000
  C   C2892     1.0  0.91414  0.15121  0.07446  1.0000
  S   S390      1.0  0.52418  0.13263  0.16353  1.0000
  C   C2893     1.0  0.54351  0.11301  0.98753  1.0000
  Fe  Fe194     1.0  0.65236  0.02408  0.08297  1.0000
  S   S391      1.0  0.66318  0.00665  0.05664  1.0000
  S   S392      1.0  0.61973  0.02293  0.09979  1.0000
  Fe  Fe195     1.0  0.69266  0.04009  0.07610  1.0000
  S   S393      1.0  0.70644  0.02459  0.04884  1.0000
  S   S394      1.0  0.71291  0.05697  0.08692  1.0000
  Fe  Fe196     1.0  0.67517  0.03537  0.03963  1.0000
  S   S395      1.0  0.67143  0.04487  0.00632  1.0000
  Fe  Fe197     1.0  0.69333  0.99738  0.06826  1.0000
  C   C2894     1.0  0.78067  0.98604  0.20946  1.0000
  S   S396      1.0  0.66231  0.05361  0.06526  1.0000
  S   S397      1.0  0.68152  0.01207  0.09635  1.0000
  H   H2306     1.0  0.67147  0.00682  0.47314  1.0000
  Fe  Fe198     1.0  0.88395  0.05471  0.16737  1.0000
  S   S398      1.0  0.86233  0.08273  0.15531  1.0000
  S   S399      1.0  0.87564  0.02281  0.17219  1.0000
  Fe  Fe199     1.0  0.91361  0.08062  0.17573  1.0000
  S   S400      1.0  0.89425  0.11053  0.16332  1.0000
  S   S401      1.0  0.94111  0.07603  0.19271  1.0000
  Fe  Fe200     1.0  0.86706  0.09616  0.18128  1.0000
  S   S402      1.0  0.84037  0.11532  0.19893  1.0000
  Fe  Fe201     1.0  0.89121  0.09433  0.13822  1.0000
  S   S403      1.0  0.89177  0.11075  0.10503  1.0000
  S   S404      1.0  0.88621  0.06718  0.19499  1.0000
  S   S405      1.0  0.91309  0.06531  0.14892  1.0000
  Fe  Fe202     1.0  0.77340  0.12945  0.01059  1.0000
  S   S406      1.0  0.79669  0.10027  0.01294  1.0000
  S   S407      1.0  0.73921  0.12961  0.01679  1.0000
  C   C2895     1.0  0.49923  0.06059  0.05128  1.0000
  C   C2896     1.0  0.97656  0.12002  0.21062  1.0000
  H   H2307     1.0  0.75129  0.08398  0.16927  1.0000
  Fe  Fe203     1.0  0.81408  0.11738  0.02701  1.0000
  S   S408      1.0  0.82387  0.09938  0.05682  1.0000
  H   H2308     1.0  0.73729  0.09795  0.10777  1.0000
  S   S409      1.0  0.78907  0.14551  0.02707  1.0000
  S   S410      1.0  0.97003  0.11803  0.31706  1.0000
  H   H2309     1.0  0.68356  0.99489  0.14684  1.0000
  C   C2897     1.0  0.95636  0.07637  0.35883  1.0000
  H   H2310     1.0  0.83909  0.05644  0.04133  1.0000
  Fe  Fe204     1.0  0.85868  0.16103  0.38155  1.0000
  S   S411      1.0  0.87280  0.15972  0.40951  1.0000
  S   S412      1.0  0.85626  0.13166  0.37086  1.0000
  C   C2898     1.0  0.63937  0.10278  0.00819  1.0000
  C   C2899     1.0  0.73286  0.09314  0.12420  1.0000
  C   C2900     1.0  0.74834  0.03449  0.99441  1.0000
  C   C2901     1.0  0.74466  0.07609  0.99781  1.0000
  C   C2902     1.0  0.97777  0.06972  0.35480  1.0000
  C   C2903     1.0  0.89438  0.00523  0.30081  1.0000
  Fe  Fe205     1.0  0.82466  0.02924  0.32560  1.0000
  S   S413      1.0  0.80378  0.01885  0.30951  1.0000
  S   S414      1.0  0.85844  0.01661  0.32598  1.0000
  Fe  Fe206     1.0  0.79105  0.06222  0.34332  1.0000
  S   S415      1.0  0.76673  0.05408  0.32927  1.0000
  S   S416      1.0  0.78332  0.08811  0.36219  1.0000
  Fe  Fe207     1.0  0.78056  0.02074  0.33875  1.0000
  H   H2311     1.0  0.79396  0.98557  0.38015  1.0000
  Fe  Fe208     1.0  0.79156  0.05278  0.30118  1.0000
  S   S417      1.0  0.78195  0.06747  0.27070  1.0000
  S   S418      1.0  0.80260  0.02895  0.35564  1.0000
  S   S419      1.0  0.81477  0.06315  0.31445  1.0000
  C   C2904     1.0  0.83534  0.12009  0.36911  1.0000
  C   C2905     1.0  0.81459  0.12792  0.37627  1.0000
  C   C2906     1.0  0.79872  0.11784  0.37443  1.0000
  C   C2907     1.0  0.80345  0.10019  0.36500  1.0000
  C   C2908     1.0  0.82414  0.09257  0.35771  1.0000
  C   C2909     1.0  0.83997  0.10224  0.36008  1.0000
  H   H2312     1.0  0.81081  0.14153  0.38344  1.0000
  H   H2313     1.0  0.78272  0.12382  0.38017  1.0000
  H   H2314     1.0  0.82788  0.07910  0.35038  1.0000
  H   H2315     1.0  0.85595  0.09581  0.35497  1.0000
  C   C2910     1.0  0.86693  0.98677  0.30111  1.0000
  C   C2911     1.0  0.89372  0.17518  0.05086  1.0000
  C   C2912     1.0  0.49090  0.17908  0.01102  1.0000
  H   H2316     1.0  0.72560  0.99603  0.46375  1.0000
  C   C2913     1.0  0.97000  0.00585  0.28749  1.0000
  C   C2914     1.0  0.60581  0.14128  0.11572  1.0000
  C   C2915     1.0  0.91705  0.01593  0.06085  1.0000
  H   H2317     1.0  0.73130  0.01721  0.33283  1.0000
  C   C2916     1.0  0.97596  0.03080  0.17334  1.0000
  C   C2917     1.0  0.92117  0.00150  0.13210  1.0000
  C   C2918     1.0  0.96008  0.13195  0.33734  1.0000
  C   C2919     1.0  0.94081  0.12910  0.34936  1.0000
  C   C2920     1.0  0.93166  0.14097  0.36473  1.0000
  C   C2921     1.0  0.94212  0.15524  0.36871  1.0000
  C   C2922     1.0  0.96189  0.15737  0.35742  1.0000
  C   C2923     1.0  0.97079  0.14591  0.34156  1.0000
  H   H2318     1.0  0.91649  0.13906  0.37352  1.0000
  C   C2924     1.0  0.94468  0.98736  0.06853  1.0000
  H   H2319     1.0  0.82839  0.99727  0.18652  1.0000
  C   C2925     1.0  0.79951  0.08105  0.25261  1.0000
  C   C2926     1.0  0.82021  0.07193  0.24687  1.0000
  C   C2927     1.0  0.83310  0.08234  0.23047  1.0000
  C   C2928     1.0  0.82541  0.10206  0.22025  1.0000
  C   C2929     1.0  0.80508  0.11150  0.22683  1.0000
  C   C2930     1.0  0.79205  0.10086  0.24261  1.0000
  H   H2320     1.0  0.82602  0.05658  0.25451  1.0000
  H   H2321     1.0  0.84885  0.07504  0.22566  1.0000
  H   H2322     1.0  0.79913  0.12684  0.21928  1.0000
  H   H2323     1.0  0.77609  0.10797  0.24705  1.0000
  C   C2931     1.0  0.95420  0.09355  0.19947  1.0000
  H   H2324     1.0  0.94032  0.12107  0.18098  1.0000
  C   C2932     1.0  0.73904  0.02713  0.20666  1.0000
  C   C2933     1.0  0.87253  0.10806  0.09177  1.0000
  C   C2934     1.0  0.86066  0.09240  0.09924  1.0000
  C   C2935     1.0  0.84576  0.09019  0.08840  1.0000
  C   C2936     1.0  0.84247  0.10357  0.06994  1.0000
  C   C2937     1.0  0.85430  0.11929  0.06232  1.0000
  C   C2938     1.0  0.86933  0.12147  0.07320  1.0000
  H   H2325     1.0  0.86328  0.08162  0.11314  1.0000
  H   H2326     1.0  0.83694  0.07783  0.09430  1.0000
  H   H2327     1.0  0.85200  0.12956  0.04802  1.0000
  H   H2328     1.0  0.87850  0.13355  0.06723  1.0000
  H   H2329     1.0  0.94806  0.14701  0.23694  1.0000
  H   H2330     1.0  0.96025  0.14414  0.19026  1.0000
  C   C2939     1.0  0.86285  0.02087  0.11646  1.0000
  C   C2940     1.0  0.86806  0.02783  0.13264  1.0000
  C   C2941     1.0  0.86933  0.01461  0.15151  1.0000
  H   H2331     1.0  0.87957  0.12508  0.99701  1.0000
  C   C2942     1.0  0.97941  0.09884  0.21878  1.0000
  H   H2332     1.0  0.86168  0.03134  0.10202  1.0000
  H   H2333     1.0  0.87103  0.04344  0.13054  1.0000
  C   C2943     1.0  0.73913  0.03160  0.13332  1.0000
  H   H2334     1.0  0.90584  0.17825  0.45071  1.0000
  C   C2944     1.0  0.72145  0.07587  0.06659  1.0000
  C   C2945     1.0  0.73901  0.08402  0.06676  1.0000
  C   C2946     1.0  0.74503  0.10010  0.05104  1.0000
  C   C2947     1.0  0.73312  0.10836  0.03553  1.0000
  C   C2948     1.0  0.71577  0.09997  0.03527  1.0000
  C   C2949     1.0  0.71019  0.08349  0.05054  1.0000
  H   H2335     1.0  0.74794  0.07788  0.07898  1.0000
  H   H2336     1.0  0.75851  0.10649  0.05126  1.0000
  H   H2337     1.0  0.70657  0.10620  0.02331  1.0000
  H   H2338     1.0  0.69670  0.07721  0.05026  1.0000
  C   C2950     1.0  0.65653  0.17074  0.98090  1.0000
  H   H2339     1.0  0.98578  0.14802  0.33248  1.0000
  H   H2340     1.0  0.94883  0.01464  0.04571  1.0000
  H   H2341     1.0  0.75113  0.12348  0.16142  1.0000
  C   C2951     1.0  0.91855  0.15707  0.22676  1.0000
  C   C2952     1.0  0.65728  0.06962  0.99954  1.0000
  C   C2953     1.0  0.65151  0.08342  0.01343  1.0000
  C   C2954     1.0  0.94326  0.02716  0.11814  1.0000
  H   H2342     1.0  0.65639  0.07924  0.02818  1.0000
  H   H2343     1.0  0.63480  0.11335  0.01904  1.0000
  H   H2344     1.0  0.71229  0.07857  0.99667  1.0000
  C   C2955     1.0  0.54404  0.18251  0.16599  1.0000
  H   H2345     1.0  0.85220  0.16784  0.05077  1.0000
  C   C2956     1.0  0.58708  0.07928  0.12924  1.0000
  C   C2957     1.0  0.57580  0.06462  0.12746  1.0000
  C   C2958     1.0  0.58599  0.04724  0.11856  1.0000
  C   C2959     1.0  0.60738  0.04467  0.11110  1.0000
  C   C2960     1.0  0.61860  0.05946  0.11269  1.0000
  C   C2961     1.0  0.60847  0.07667  0.12185  1.0000
  H   H2346     1.0  0.55930  0.06656  0.13312  1.0000
  H   H2347     1.0  0.57726  0.03582  0.11738  1.0000
  H   H2348     1.0  0.63505  0.05760  0.10688  1.0000
  H   H2349     1.0  0.61716  0.08812  0.12296  1.0000
  C   C2962     1.0  0.78806  0.07866  0.11882  1.0000
  C   C2963     1.0  0.90806  0.99265  0.28797  1.0000
  C   C2964     1.0  0.79027  0.07612  0.09830  1.0000
  C   C2965     1.0  0.80345  0.05895  0.09139  1.0000
  C   C2966     1.0  0.81431  0.04410  0.10493  1.0000
  C   C2967     1.0  0.81172  0.04617  0.12554  1.0000
  C   C2968     1.0  0.79858  0.06337  0.13252  1.0000
  C   C2969     1.0  0.76342  0.99434  0.02922  1.0000
  H   H2350     1.0  0.73716  0.13464  0.11594  1.0000
  C   C2970     1.0  0.68552  0.14831  0.99458  1.0000
  H   H2351     1.0  0.78217  0.08755  0.08745  1.0000
  H   H2352     1.0  0.80563  0.05745  0.07537  1.0000
  H   H2353     1.0  0.82461  0.03093  0.09942  1.0000
  H   H2354     1.0  0.82010  0.03452  0.13604  1.0000
  H   H2355     1.0  0.79682  0.06481  0.14850  1.0000
  H   H2356     1.0  0.81353  0.10086  0.13283  1.0000
  C   C2971     1.0  0.57676  0.10710  0.08420  1.0000
  C   C2972     1.0  0.58819  0.08965  0.07649  1.0000
  C   C2973     1.0  0.60873  0.08946  0.06669  1.0000
  C   C2974     1.0  0.61811  0.10652  0.06527  1.0000
  C   C2975     1.0  0.60698  0.12374  0.07397  1.0000
  C   C2976     1.0  0.58601  0.12426  0.08275  1.0000
  H   H2357     1.0  0.56098  0.10695  0.09203  1.0000
  H   H2358     1.0  0.58129  0.07603  0.07883  1.0000
  H   H2359     1.0  0.61756  0.07582  0.06079  1.0000
  H   H2360     1.0  0.63412  0.10599  0.05778  1.0000
  C   C2977     1.0  0.60183  0.14793  0.13468  1.0000
  H   H2361     1.0  0.82715  0.11726  0.15544  1.0000
  H   H2362     1.0  0.76333  0.03434  0.06968  1.0000
  H   H2363     1.0  0.62583  0.02841  0.98088  1.0000
  H   H2364     1.0  0.79822  0.13747  0.33290  1.0000
  C   C2978     1.0  0.70785  0.08013  0.15289  1.0000
  H   H2365     1.0  0.77385  0.06065  0.03965  1.0000
  C   C2979     1.0  0.93303  0.08120  0.25762  1.0000
  C   C2980     1.0  0.93804  0.10051  0.25700  1.0000
  C   C2981     1.0  0.94186  0.10554  0.27473  1.0000
  C   C2982     1.0  0.94049  0.09132  0.29314  1.0000
  C   C2983     1.0  0.93575  0.07177  0.29382  1.0000
  C   C2984     1.0  0.93143  0.06701  0.27604  1.0000
  P   P98       1.0  0.93573  0.05271  0.31711  1.0000
  C   C2985     1.0  0.94649  0.02740  0.31041  1.0000
  C   C2986     1.0  0.95211  0.05872  0.33240  1.0000
  H   H2366     1.0  0.94974  0.08623  0.37023  1.0000
  S   S420      1.0  0.76534  0.99255  0.35329  1.0000
  H   H2367     1.0  0.66425  0.13796  0.98072  1.0000
  H   H2368     1.0  0.78313  0.98433  0.12729  1.0000
  C   C2987     1.0  0.94358  0.07120  0.34747  1.0000
  C   C2988     1.0  0.93943  0.00961  0.32241  1.0000
  C   C2989     1.0  0.52193  0.08611  0.03835  1.0000
  C   C2990     1.0  0.77567  0.13052  0.17318  1.0000
  H   H2369     1.0  0.55827  0.06089  0.00145  1.0000
  C   C2991     1.0  0.96206  0.02531  0.29304  1.0000
  C   C2992     1.0  0.90972  0.05281  0.33140  1.0000
  C   C2993     1.0  0.89249  0.06055  0.32152  1.0000
  C   C2994     1.0  0.87247  0.05982  0.33262  1.0000
  C   C2995     1.0  0.86949  0.05137  0.35357  1.0000
  C   C2996     1.0  0.88651  0.04385  0.36354  1.0000
  C   C2997     1.0  0.90657  0.04447  0.35251  1.0000
  H   H2370     1.0  0.93087  0.07704  0.24366  1.0000
  H   H2371     1.0  0.93937  0.11135  0.24265  1.0000
  H   H2372     1.0  0.94630  0.12029  0.27423  1.0000
  H   H2373     1.0  0.94352  0.09553  0.30669  1.0000
  H   H2374     1.0  0.92736  0.05217  0.27626  1.0000
  C   C2998     1.0  0.93100  0.99521  0.14926  1.0000
  H   H2375     1.0  0.91170  0.03095  0.05218  1.0000
  C   C2999     1.0  0.98065  0.00981  0.17146  1.0000
  H   H2376     1.0  0.92716  0.07744  0.35013  1.0000
  H   H2377     1.0  0.92744  0.01065  0.33583  1.0000
  H   H2378     1.0  0.75043  0.03653  0.20630  1.0000
  C   C3000     1.0  0.83174  0.99382  0.23132  1.0000
  H   H2379     1.0  0.96741  0.16579  0.40851  1.0000
  H   H2380     1.0  0.96801  0.03872  0.28367  1.0000
  H   H2381     1.0  0.89440  0.06686  0.30526  1.0000
  H   H2382     1.0  0.85919  0.06525  0.32495  1.0000
  H   H2383     1.0  0.85396  0.05041  0.36200  1.0000
  H   H2384     1.0  0.68167  0.10087  0.09506  1.0000
  H   H2385     1.0  0.91962  0.03823  0.36042  1.0000
  C   C3001     1.0  0.55648  0.17771  0.18112  1.0000
  H   H2386     1.0  0.53168  0.05300  0.03956  1.0000
  C   C3002     1.0  0.96277  0.98828  0.29943  1.0000
  C   C3003     1.0  0.79707  0.12904  0.17131  1.0000
  C   C3004     1.0  0.71432  0.00546  0.22579  1.0000
  C   C3005     1.0  0.92713  0.01762  0.11665  1.0000
  C   C3006     1.0  0.51889  0.06543  0.04267  1.0000
  S   S421      1.0  0.93005  0.17110  0.38700  1.0000
  C   C3007     1.0  0.78939  0.99726  0.25190  1.0000
  H   H2387     1.0  0.73667  0.16521  0.08823  1.0000
  C   C3008     1.0  0.61348  0.18007  0.11781  1.0000
  C   C3009     1.0  0.65446  0.11993  0.08458  1.0000
  H   H2388     1.0  0.98769  0.07447  0.36305  1.0000
  C   C3010     1.0  0.95329  0.02074  0.13521  1.0000
  H   H2389     1.0  0.59159  0.08381  0.01115  1.0000
  C   C3011     1.0  0.75242  0.99513  0.14286  1.0000
  H   H2390     1.0  0.72720  0.04502  0.13479  1.0000
  C   C3012     1.0  0.91739  0.16030  0.00028  1.0000
  C   C3013     1.0  0.94215  0.00172  0.19643  1.0000
  Fe  Fe209     1.0  0.50002  0.10447  0.13275  1.0000
  H   H2391     1.0  0.49675  0.12676  0.08697  1.0000
  C   C3014     1.0  0.97366  0.05208  0.32848  1.0000
  C   C3015     1.0  0.54268  0.14129  0.05693  1.0000
  C   C3016     1.0  0.64674  0.13694  0.07048  1.0000
  C   C3017     1.0  0.68191  0.14198  0.05581  1.0000
  H   H2392     1.0  0.59562  0.13799  0.14846  1.0000
  C   C3018     1.0  0.80465  0.04339  0.03199  1.0000
  H   H2393     1.0  0.62027  0.05676  0.02221  1.0000
  C   C3019     1.0  0.84137  0.18090  0.22631  1.0000
  H   H2394     1.0  0.88168  0.18123  0.28514  1.0000
  C   C3020     1.0  0.66058  0.14794  0.05599  1.0000
  C   C3021     1.0  0.87385  0.00227  0.30755  1.0000
  C   C3022     1.0  0.94705  0.00484  0.15103  1.0000
  H   H2395     1.0  0.70356  0.08670  0.12127  1.0000
  H   H2396     1.0  0.86718  0.15347  0.01671  1.0000
  H   H2397     1.0  0.67763  0.03108  0.19000  1.0000
  H   H2398     1.0  0.57701  0.13757  0.08916  1.0000
  C   C3023     1.0  0.80340  0.13076  0.31905  1.0000
  C   C3024     1.0  0.79005  0.12115  0.31241  1.0000
  C   C3025     1.0  0.79661  0.11260  0.29448  1.0000
  C   C3026     1.0  0.81673  0.11311  0.28354  1.0000
  C   C3027     1.0  0.83056  0.12184  0.29070  1.0000
  C   C3028     1.0  0.82355  0.13125  0.30820  1.0000
  P   P99       1.0  0.85594  0.12356  0.27561  1.0000
  C   C3029     1.0  0.87425  0.12659  0.29041  1.0000
  C   C3030     1.0  0.86709  0.10012  0.26546  1.0000
  C   C3031     1.0  0.86214  0.08103  0.27635  1.0000
  C   C3032     1.0  0.87110  0.06276  0.26871  1.0000
  C   C3033     1.0  0.88508  0.06349  0.25014  1.0000
  C   C3034     1.0  0.89036  0.08240  0.23942  1.0000
  C   C3035     1.0  0.88167  0.10061  0.24719  1.0000
  C   C3036     1.0  0.88995  0.13820  0.28117  1.0000
  C   C3037     1.0  0.90382  0.14105  0.29274  1.0000
  C   C3038     1.0  0.90232  0.13204  0.31347  1.0000
  C   C3039     1.0  0.88742  0.11958  0.32251  1.0000
  C   C3040     1.0  0.87353  0.11669  0.31097  1.0000
  C   C3041     1.0  0.85147  0.14587  0.25585  1.0000
  C   C3042     1.0  0.84921  0.16581  0.26031  1.0000
  H   H2399     1.0  0.74998  0.00510  0.03485  1.0000
  C   C3043     1.0  0.63919  0.09494  0.97485  1.0000
  C   C3044     1.0  0.84322  0.16106  0.22194  1.0000
  C   C3045     1.0  0.84800  0.14363  0.23675  1.0000
  C   C3046     1.0  0.51520  0.01146  0.25663  1.0000
  H   H2400     1.0  0.77471  0.12011  0.32132  1.0000
  H   H2401     1.0  0.78623  0.10520  0.28927  1.0000
  H   H2402     1.0  0.82152  0.10653  0.26959  1.0000
  H   H2403     1.0  0.83353  0.13887  0.31365  1.0000
  H   H2404     1.0  0.85138  0.08024  0.29075  1.0000
  H   H2405     1.0  0.86710  0.04808  0.27719  1.0000
  H   H2406     1.0  0.89186  0.04946  0.24400  1.0000
  H   H2407     1.0  0.90142  0.08293  0.22514  1.0000
  H   H2408     1.0  0.88629  0.11503  0.23887  1.0000
  H   H2409     1.0  0.89144  0.14508  0.26508  1.0000
  H   H2410     1.0  0.91582  0.15017  0.28575  1.0000
  H   H2411     1.0  0.91278  0.13468  0.32245  1.0000
  H   H2412     1.0  0.88643  0.11246  0.33859  1.0000
  H   H2413     1.0  0.86206  0.10698  0.31815  1.0000
  H   H2414     1.0  0.92623  0.13796  0.07739  1.0000
  C   C3047     1.0  0.72652  0.99996  0.99522  1.0000
  H   H2415     1.0  0.96562  0.02847  0.13608  1.0000
  C   C3048     1.0  0.72723  0.06845  0.99648  1.0000
  H   H2416     1.0  0.84852  0.12843  0.23341  1.0000
  H   H2417     1.0  0.86398  0.07829  0.04233  1.0000
  C   C3049     1.0  0.91071  0.13144  0.98784  1.0000
  C   C3050     1.0  0.54140  0.17875  0.11592  1.0000
  P   P100      1.0  0.77110  0.10085  0.12768  1.0000
  C   C3051     1.0  0.96242  0.12785  0.19688  1.0000
  H   H2418     1.0  0.97979  0.14843  0.44110  1.0000
  C   C3052     1.0  0.74072  0.08531  0.15874  1.0000
  C   C3053     1.0  0.74619  0.09315  0.13772  1.0000
  H   H2419     1.0  0.61402  0.03129  0.05426  1.0000
  H   H2420     1.0  0.69498  0.13311  0.99737  1.0000
  H   H2421     1.0  0.57898  0.03284  0.07537  1.0000
  H   H2422     1.0  0.76526  0.13911  0.18428  1.0000
  H   H2423     1.0  0.78834  0.00222  0.07901  1.0000
  Fe  Fe210     1.0  0.89547  0.17776  0.38767  1.0000
  S   S422      1.0  0.83273  0.12955  0.99661  1.0000
  H   H2424     1.0  0.64398  0.11122  0.09586  1.0000
  P   P101      1.0  0.80549  0.00362  0.22722  1.0000
  H   H2425     1.0  0.81599  0.00315  0.00342  1.0000
  C   C3054     1.0  0.80286  0.03102  0.21724  1.0000
  C   C3055     1.0  0.78394  0.04436  0.22163  1.0000
  C   C3056     1.0  0.78205  0.06552  0.21362  1.0000
  C   C3057     1.0  0.79888  0.07341  0.20084  1.0000
  C   C3058     1.0  0.81759  0.06018  0.19602  1.0000
  C   C3059     1.0  0.81960  0.03905  0.20410  1.0000
  C   C3060     1.0  0.98643  0.05760  0.33962  1.0000
  C   C3061     1.0  0.66837  0.15106  0.98501  1.0000
  C   C3062     1.0  0.61738  0.17345  0.09883  1.0000
  Fe  Fe211     1.0  0.50003  0.11238  0.17531  1.0000
  C   C3063     1.0  0.78256  0.01172  0.26525  1.0000
  C   C3064     1.0  0.63321  0.10854  0.98895  1.0000
  H   H2426     1.0  0.57394  0.17899  0.11137  1.0000
  H   H2427     1.0  0.70590  0.12128  0.07042  1.0000
  P   P102      1.0  0.71346  0.00946  0.16448  1.0000
  C   C3065     1.0  0.77067  0.00736  0.41239  1.0000
  C   C3066     1.0  0.73703  0.00894  0.40383  1.0000
  H   H2428     1.0  0.66952  0.05547  0.11699  1.0000
  C   C3067     1.0  0.54899  0.09399  0.00027  1.0000
  H   H2429     1.0  0.52499  0.02320  0.25226  1.0000
  H   H2430     1.0  0.75436  0.98356  0.30484  1.0000
  C   C3068     1.0  0.78782  0.14431  0.07820  1.0000
  H   H2431     1.0  0.77075  0.03858  0.23158  1.0000
  H   H2432     1.0  0.76778  0.07593  0.21794  1.0000
  H   H2433     1.0  0.79768  0.08986  0.19522  1.0000
  H   H2434     1.0  0.83076  0.06638  0.18648  1.0000
  H   H2435     1.0  0.83432  0.02909  0.20020  1.0000
  H   H2436     1.0  0.73272  0.01947  0.23979  1.0000
  C   C3069     1.0  0.55447  0.07577  0.99182  1.0000
  H   H2437     1.0  0.76902  0.98750  0.22307  1.0000
  H   H2438     1.0  0.76408  0.01824  0.29414  1.0000
  H   H2439     1.0  0.78737  0.02668  0.26134  1.0000
  H   H2440     1.0  0.98075  0.04308  0.31650  1.0000
  C   C3070     1.0  0.98379  0.16336  0.40939  1.0000
  C   C3071     1.0  0.72906  0.04774  0.99472  1.0000
  C   C3072     1.0  0.60555  0.16739  0.13572  1.0000
  H   H2441     1.0  0.71712  0.07342  0.18261  1.0000
  C   C3073     1.0  0.70877  0.99703  0.33750  1.0000
  C   C3074     1.0  0.90193  0.16009  0.09092  1.0000
  C   C3075     1.0  0.89672  0.16398  0.01037  1.0000
  C   C3076     1.0  0.60124  0.04273  0.04911  1.0000
  C   C3077     1.0  0.86149  0.99717  0.24483  1.0000
  C   C3078     1.0  0.68738  0.98859  0.00161  1.0000
  H   H2442     1.0  0.69992  0.02971  0.12540  1.0000
  C   C3079     1.0  0.74150  0.98731  0.35018  1.0000
  C   C3080     1.0  0.60971  0.17639  0.01587  1.0000
  C   C3081     1.0  0.58139  0.04354  0.06094  1.0000
  H   H2443     1.0  0.92392  0.99504  0.28301  1.0000
  C   C3082     1.0  0.65124  0.07542  0.98018  1.0000
  C   C3083     1.0  0.55631  0.15321  0.04345  1.0000
  C   C3084     1.0  0.49507  0.01628  0.25227  1.0000
  H   H2444     1.0  0.96650  0.17775  0.21261  1.0000
  H   H2445     1.0  0.83297  0.01899  0.24628  1.0000
  C   C3085     1.0  0.56498  0.05870  0.05471  1.0000
  C   C3086     1.0  0.69408  0.00183  0.98361  1.0000
  C   C3087     1.0  0.73441  0.02459  0.18821  1.0000
  C   C3088     1.0  0.92432  0.14416  0.98900  1.0000
  H   H2446     1.0  0.56338  0.16174  0.18601  1.0000
  C   C3089     1.0  0.93121  0.17447  0.24839  1.0000
  C   C3090     1.0  0.86563  0.99434  0.15400  1.0000
  H   H2447     1.0  0.84054  0.15905  0.20723  1.0000
  H   H2448     1.0  0.53446  0.14621  0.07121  1.0000
  H   H2449     1.0  0.70675  0.17863  0.03481  1.0000
  C   C3091     1.0  0.88317  0.15108  0.00915  1.0000
  C   C3092     1.0  0.94979  0.99807  0.21493  1.0000
  H   H2450     1.0  0.60321  0.12603  0.11536  1.0000
  C   C3093     1.0  0.85884  0.00066  0.11905  1.0000
  C   C3094     1.0  0.71968  0.01241  0.18838  1.0000
  H   H2451     1.0  0.78060  0.03231  0.99619  1.0000
  C   C3095     1.0  0.89015  0.13491  0.99790  1.0000
  C   C3096     1.0  0.61305  0.15423  0.09757  1.0000
  C   C3097     1.0  0.65877  0.05082  0.16915  1.0000
  C   C3098     1.0  0.65639  0.05779  0.14862  1.0000
  H   H2452     1.0  0.48926  0.03169  0.24454  1.0000
  P   P103      1.0  0.54737  0.09240  0.02757  1.0000
  H   H2453     1.0  0.90512  0.01265  0.24700  1.0000
  C   C3099     1.0  0.67628  0.03650  0.17400  1.0000
  C   C3100     1.0  0.93791  0.00678  0.05730  1.0000
  H   H2454     1.0  0.57831  0.15546  0.01505  1.0000
  C   C3101     1.0  0.76563  0.04220  0.99630  1.0000
  C   C3102     1.0  0.81294  0.01073  0.05454  1.0000
  C   C3103     1.0  0.76960  0.00687  0.28405  1.0000
  C   C3104     1.0  0.83773  0.02441  0.99488  1.0000
  C   C3105     1.0  0.71369  0.08685  0.13181  1.0000
  H   H2455     1.0  0.55000  0.05965  0.06466  1.0000
  H   H2456     1.0  0.69296  0.07531  0.15872  1.0000
  H   H2457     1.0  0.89158  0.02022  0.21408  1.0000
  C   C3106     1.0  0.80275  0.10869  0.14433  1.0000
  C   C3107     1.0  0.89546  0.04629  0.01150  1.0000
  C   C3108     1.0  0.88907  0.06245  0.02276  1.0000
  C   C3109     1.0  0.56478  0.12807  0.02063  1.0000
  C   C3110     1.0  0.71359  0.00746  0.98039  1.0000
  C   C3111     1.0  0.77083  0.99755  0.12908  1.0000
  C   C3112     1.0  0.77343  0.01696  0.11759  1.0000
  H   H2458     1.0  0.57396  0.12298  0.00677  1.0000
  H   H2459     1.0  0.53001  0.11335  0.06324  1.0000
  H   H2460     1.0  0.81780  0.98772  0.34656  1.0000
  H   H2461     1.0  0.64270  0.06868  0.14492  1.0000
  C   C3113     1.0  0.50467  0.10193  0.04108  1.0000
  H   H2462     1.0  0.98786  0.05785  0.17444  1.0000
  C   C3114     1.0  0.90040  0.17187  0.22725  1.0000
  Fe  Fe212     1.0  0.81302  0.11476  0.98260  1.0000
  H   H2463     1.0  0.91608  0.11889  0.97918  1.0000
  C   C3115     1.0  0.72146  0.07911  0.16632  1.0000
  C   C3116     1.0  0.56828  0.07289  0.03628  1.0000
  C   C3117     1.0  0.72761  0.00200  0.33946  1.0000
  C   C3118     1.0  0.86044  0.98739  0.13781  1.0000
  C   C3119     1.0  0.86684  0.99020  0.04549  1.0000
  H   H2464     1.0  0.84791  0.16996  0.98586  1.0000
  C   C3120     1.0  0.90298  0.00566  0.07560  1.0000
  C   C3121     1.0  0.68879  0.03584  0.13774  1.0000
  C   C3122     1.0  0.84647  0.18182  0.04074  1.0000
  H   H2465     1.0  0.78778  0.01872  0.10714  1.0000
  H   H2466     1.0  0.70445  0.16250  0.00707  1.0000
  H   H2467     1.0  0.69275  0.14986  0.04432  1.0000
  H   H2468     1.0  0.98172  0.00442  0.27386  1.0000
  C   C3123     1.0  0.68941  0.12556  0.07037  1.0000
  C   C3124     1.0  0.76928  0.15811  0.07616  1.0000
  H   H2469     1.0  0.91959  0.15134  0.04209  1.0000
  C   C3125     1.0  0.70955  0.00296  0.20734  1.0000
  C   C3126     1.0  0.69078  0.16518  0.00020  1.0000
  C   C3127     1.0  0.86098  0.03727  0.02141  1.0000
  Fe  Fe213     1.0  0.80617  0.15654  0.99569  1.0000
  C   C3128     1.0  0.81886  0.02537  0.03726  1.0000
  C   C3129     1.0  0.79298  0.01394  0.06611  1.0000
  H   H2470     1.0  0.54280  0.16281  0.12368  1.0000
  C   C3130     1.0  0.73636  0.01215  0.14509  1.0000
  H   H2471     1.0  0.80888  0.05474  0.01856  1.0000
  C   C3131     1.0  0.92119  0.01019  0.19621  1.0000
  P   P104      1.0  0.84356  0.02040  0.02056  1.0000
  H   H2472     1.0  0.88411  0.03735  0.37979  1.0000
  H   H2473     1.0  0.60087  0.06057  0.98594  1.0000
  C   C3132     1.0  0.75130  0.13691  0.10523  1.0000
  C   C3133     1.0  0.61759  0.16202  0.03187  1.0000
  H   H2474     1.0  0.64686  0.05633  0.18130  1.0000
  H   H2475     1.0  0.77734  0.06903  0.99850  1.0000
  H   H2476     1.0  0.74345  0.09230  0.99841  1.0000
  H   H2477     1.0  0.75756  0.03053  0.38901  1.0000
  C   C3134     1.0  0.78124  0.11008  0.14611  1.0000
  H   H2478     1.0  0.91121  0.04353  0.00324  1.0000
  H   H2479     1.0  0.82348  0.99663  0.05898  1.0000
  H   H2480     1.0  0.76910  0.17165  0.06412  1.0000
  C   C3135     1.0  0.81057  0.11814  0.15692  1.0000
  S   S423      1.0  0.85197  0.99239  0.09858  1.0000
  C   C3136     1.0  0.88151  0.03367  0.01093  1.0000
  C   C3137     1.0  0.76983  0.12277  0.10702  1.0000
  H   H2481     1.0  0.97115  0.06930  0.21919  1.0000
  H   H2482     1.0  0.89979  0.07228  0.02330  1.0000
  C   C3138     1.0  0.76803  0.98947  0.42697  1.0000
  H   H2483     1.0  0.75938  0.04898  0.11033  1.0000
  C   C3139     1.0  0.67575  0.11421  0.08443  1.0000
  H   H2484     1.0  0.74239  0.03219  0.17388  1.0000
  C   C3140     1.0  0.72907  0.01753  0.22546  1.0000
  H   H2485     1.0  0.89980  0.01712  0.30582  1.0000
  H   H2486     1.0  0.91503  0.01385  0.18212  1.0000
  H   H2487     1.0  0.80270  0.11646  0.09512  1.0000
  C   C3141     1.0  0.78812  0.12682  0.09363  1.0000
  C   C3142     1.0  0.76775  0.12133  0.16043  1.0000
  H   H2488     1.0  0.53860  0.12723  0.99374  1.0000
  H   H2489     1.0  0.91897  0.02299  0.10376  1.0000
  H   H2490     1.0  0.80206  0.14689  0.06776  1.0000
  H   H2491     1.0  0.67203  0.98472  0.00441  1.0000
  H   H2492     1.0  0.50626  0.11808  0.03682  1.0000
  P   P105      1.0  0.61916  0.14541  0.07315  1.0000
  H   H2493     1.0  0.92822  0.16983  0.00125  1.0000
  C   C3143     1.0  0.75753  0.03396  0.11953  1.0000
  C   C3144     1.0  0.75101  0.15442  0.08969  1.0000
  C   C3145     1.0  0.85471  0.05341  0.03283  1.0000
  C   C3146     1.0  0.54006  0.12275  0.05225  1.0000
  C   C3147     1.0  0.58842  0.07236  0.02483  1.0000
  C   C3148     1.0  0.82340  0.01375  0.99108  1.0000
  H   H2494     1.0  0.55852  0.16743  0.04720  1.0000
  P   P106      1.0  0.75139  0.00799  0.99092  1.0000
  H   H2495     1.0  0.80328  0.13634  0.18099  1.0000
  C   C3149     1.0  0.61061  0.16489  0.05235  1.0000
  H   H2496     1.0  0.94768  0.03986  0.10629  1.0000
  C   C3150     1.0  0.60476  0.05716  0.03110  1.0000
  H   H2497     1.0  0.93272  0.11793  0.34656  1.0000
  H   H2498     1.0  0.92077  0.14460  0.21814  1.0000
  C   C3151     1.0  0.93648  0.00223  0.23305  1.0000
  H   H2499     1.0  0.49710  0.04458  0.05526  1.0000
  P   P107      1.0  0.95966  0.99616  0.17327  1.0000
  C   C3152     1.0  0.90785  0.01412  0.21439  1.0000
  C   C3153     1.0  0.69161  0.02912  0.15828  1.0000
  H   H2500     1.0  0.73833  0.16481  0.97973  1.0000
  H   H2501     1.0  0.62872  0.14846  0.02826  1.0000
  C   C3154     1.0  0.77889  0.03192  0.06078  1.0000
  C   C3155     1.0  0.86879  0.06589  0.03348  1.0000
  C   C3156     1.0  0.78479  0.04672  0.04380  1.0000
  H   H2502     1.0  0.88677  0.01266  0.07807  1.0000
  H   H2503     1.0  0.60203  0.17275  0.15032  1.0000
  C   C3157     1.0  0.56744  0.14651  0.02539  1.0000
  C   C3158     1.0  0.93389  0.15836  0.23739  1.0000
  H   H2504     1.0  0.69802  0.00850  0.32930  1.0000
  H   H2505     1.0  0.88667  0.02113  0.00221  1.0000
  C   C3159     1.0  0.95109  0.11479  0.19157  1.0000
  H   H2506     1.0  0.81448  0.17908  0.05226  1.0000
  C   C3160     1.0  0.55051  0.11641  0.03366  1.0000
  C   C3161     1.0  0.67142  0.05033  0.13293  1.0000
  C   C3162     1.0  0.96852  0.08570  0.21301  1.0000
  H   H2507     1.0  0.78478  0.01370  0.40990  1.0000
  H   H2508     1.0  0.94347  0.17528  0.25623  1.0000
  C   C3163     1.0  0.91548  0.01004  0.23283  1.0000
  C   C3164     1.0  0.90973  0.98640  0.08714  1.0000
  H   H2509     1.0  0.90464  0.15365  0.10647  1.0000
  C   C3165     1.0  0.91013  0.15874  0.05448  1.0000
  C   C3166     1.0  0.84123  0.00469  0.24129  1.0000
  H   H2510     1.0  0.90851  0.99423  0.13111  1.0000
  H   H2511     1.0  0.53838  0.98830  0.26965  1.0000
  C   C3167     1.0  0.75529  0.01695  0.40066  1.0000
  H   H2512     1.0  0.54145  0.17034  0.15907  1.0000
  C   C3168     1.0  0.76790  0.99215  0.00845  1.0000
  H   H2513     1.0  0.94233  0.99883  0.24739  1.0000
  S   S424      1.0  0.61810  0.13291  0.98318  1.0000
  H   H2514     1.0  0.85081  0.16779  0.27535  1.0000
  H   H2515     1.0  0.72524  0.01627  0.39452  1.0000
  H   H2516     1.0  0.96994  0.16846  0.36035  1.0000
  C   C3169     1.0  0.88583  0.17669  0.08741  1.0000
  C   C3170     1.0  0.73416  0.99129  0.41865  1.0000
  H   H2517     1.0  0.96000  0.03876  0.17544  1.0000
  C   C3171     1.0  0.59514  0.18186  0.05656  1.0000
  C   C3172     1.0  0.76414  0.98725  0.29008  1.0000
  H   H2518     1.0  0.86677  0.00244  0.05373  1.0000
  S   S425      1.0  0.78829  0.14276  0.97916  1.0000
  H   H2519     1.0  0.85631  0.04846  0.98150  1.0000
  C   C3173     1.0  0.84614  0.03907  0.97894  1.0000
  S   S426      1.0  0.88289  0.17732  0.35959  1.0000
  H   H2520     1.0  0.86874  0.00557  0.25255  1.0000
  C   C3174     1.0  0.70680  0.98425  0.16662  1.0000
  S   S427      1.0  0.49942  0.18006  0.12480  1.0000
  C   C3175     1.0  0.94766  0.99015  0.31699  1.0000
  C   C3176     1.0  0.85683  0.99436  0.02839  1.0000
  H   H2521     1.0  0.74316  0.17052  0.03951  1.0000
  H   H2522     1.0  0.88852  0.17082  0.21901  1.0000
  H   H2523     1.0  0.61453  0.17378  0.00016  1.0000
  H   H2524     1.0  0.96598  0.99174  0.21541  1.0000
  H   H2525     1.0  0.93176  0.17525  0.32919  1.0000
  S   S428      1.0  0.98584  0.15611  0.26681  1.0000
  H   H2526     1.0  0.71537  0.04227  0.99357  1.0000
  H   H2527     1.0  0.86687  0.98393  0.16849  1.0000
  H   H2528     1.0  0.85110  0.98435  0.30643  1.0000
  H   H2529     1.0  0.70649  0.99811  0.24040  1.0000
  H   H2530     1.0  0.77211  0.98387  0.05909  1.0000
  C   C3177     1.0  0.71985  0.98635  0.01307  1.0000
  C   C3178     1.0  0.79968  0.99266  0.20728  1.0000
  H   H2531     1.0  0.69788  0.99379  0.20789  1.0000
  H   H2532     1.0  0.50163  0.17988  0.03867  1.0000
  H   H2533     1.0  0.94027  0.14151  0.98117  1.0000
  H   H2534     1.0  0.71980  0.98549  0.42090  1.0000
  C   C3179     1.0  0.81390  0.99165  0.18883  1.0000
  H   H2535     1.0  0.92564  0.98326  0.16150  1.0000
  C   C3180     1.0  0.80962  0.98313  0.17331  1.0000
  S   S429      1.0  0.96948  0.10031  0.68244  1.0000
  Fe  Fe214     1.0  0.74439  0.04379  0.86234  1.0000
  S   S430      1.0  0.75878  0.06395  0.83421  1.0000
  C   C3181     1.0  0.52367  0.98927  0.77983  1.0000
  Fe  Fe215     1.0  0.75559  0.06806  0.89139  1.0000
  S   S431      1.0  0.77014  0.09010  0.86550  1.0000
  S   S432      1.0  0.75173  0.07325  0.92412  1.0000
  Fe  Fe216     1.0  0.74305  0.09031  0.85086  1.0000
  S   S433      1.0  0.72681  0.12019  0.83475  1.0000
  Fe  Fe217     1.0  0.78476  0.06186  0.85160  1.0000
  S   S434      1.0  0.81851  0.05775  0.83590  1.0000
  S   S435      1.0  0.72712  0.07056  0.87776  1.0000
  S   S436      1.0  0.77176  0.03943  0.87856  1.0000
  Fe  Fe218     1.0  0.94030  0.10800  0.80008  1.0000
  S   S437      1.0  0.94355  0.09822  0.83349  1.0000
  S   S438      1.0  0.95739  0.08498  0.77952  1.0000
  Fe  Fe219     1.0  0.91375  0.14949  0.80739  1.0000
  S   S439      1.0  0.91453  0.14239  0.84098  1.0000
  Fe  Fe220     1.0  0.94849  0.13085  0.83176  1.0000
  H   H2536     1.0  0.65581  0.06480  0.96935  1.0000
  Fe  Fe221     1.0  0.90926  0.11086  0.83930  1.0000
  S   S440      1.0  0.88491  0.09671  0.86362  1.0000
  S   S441      1.0  0.94785  0.13941  0.79783  1.0000
  S   S442      1.0  0.90585  0.11885  0.80612  1.0000
  Fe  Fe222     1.0  0.54081  0.12687  0.79637  1.0000
  S   S443      1.0  0.51303  0.11125  0.80119  1.0000
  S   S444      1.0  0.54923  0.14742  0.81523  1.0000
  Fe  Fe223     1.0  0.55741  0.11482  0.75414  1.0000
  S   S445      1.0  0.53215  0.09707  0.75602  1.0000
  S   S446      1.0  0.57861  0.12198  0.72394  1.0000
  Fe  Fe224     1.0  0.51070  0.12391  0.76782  1.0000
  Fe  Fe225     1.0  0.53641  0.08531  0.78882  1.0000
  S   S447      1.0  0.53165  0.05275  0.80360  1.0000
  S   S448      1.0  0.53592  0.14238  0.76432  1.0000
  S   S449      1.0  0.56430  0.10020  0.78578  1.0000
  Fe  Fe226     1.0  0.61126  0.14423  0.95117  1.0000
  C   C3182     1.0  0.60624  0.07475  0.95404  1.0000
  Fe  Fe227     1.0  0.58603  0.14601  0.91781  1.0000
  C   C3183     1.0  0.51035  0.12992  0.68572  1.0000
  Fe  Fe228     1.0  0.62446  0.16499  0.90725  1.0000
  H   H2537     1.0  0.95914  0.08665  0.93788  1.0000
  S   S450      1.0  0.61923  0.13262  0.92098  1.0000
  H   H2538     1.0  0.78591  0.03286  0.92020  1.0000
  H   H2539     1.0  0.91899  0.06277  0.68661  1.0000
  H   H2540     1.0  0.60219  0.01535  0.81037  1.0000
  Fe  Fe229     1.0  0.56725  0.16170  0.54845  1.0000
  S   S451      1.0  0.57480  0.12726  0.54934  1.0000
  C   C3184     1.0  0.61723  0.16651  0.68429  1.0000
  Fe  Fe230     1.0  0.64046  0.05246  0.61582  1.0000
  S   S452      1.0  0.65832  0.03521  0.64083  1.0000
  S   S453      1.0  0.64957  0.08079  0.59445  1.0000
  Fe  Fe231     1.0  0.60835  0.02486  0.62719  1.0000
  P   P108      1.0  0.50574  0.98840  0.66601  1.0000
  S   S454      1.0  0.58034  0.01898  0.61748  1.0000
  Fe  Fe232     1.0  0.62680  0.03547  0.66039  1.0000
  S   S455      1.0  0.62094  0.03774  0.69394  1.0000
  Fe  Fe233     1.0  0.65313  0.00675  0.63152  1.0000
  H   H2541     1.0  0.95623  0.05931  0.68798  1.0000
  S   S456      1.0  0.60923  0.05496  0.63622  1.0000
  S   S457      1.0  0.63814  0.02397  0.60468  1.0000
  S   S458      1.0  0.82466  0.09692  0.95640  1.0000
  H   H2542     1.0  0.97750  0.02752  0.83448  1.0000
  H   H2543     1.0  0.49390  0.12008  0.49228  1.0000
  C   C3185     1.0  0.83482  0.12731  0.75185  1.0000
  H   H2544     1.0  0.49475  0.02191  0.58336  1.0000
  C   C3186     1.0  0.59586  0.11455  0.56151  1.0000
  C   C3187     1.0  0.59689  0.09362  0.57049  1.0000
  C   C3188     1.0  0.61328  0.08330  0.58077  1.0000
  C   C3189     1.0  0.62900  0.09372  0.58162  1.0000
  C   C3190     1.0  0.62825  0.11453  0.57221  1.0000
  C   C3191     1.0  0.61149  0.12505  0.56247  1.0000
  H   H2545     1.0  0.58479  0.08549  0.56981  1.0000
  H   H2546     1.0  0.61381  0.06722  0.58789  1.0000
  H   H2547     1.0  0.64050  0.12258  0.57259  1.0000
  H   H2548     1.0  0.61079  0.14119  0.55545  1.0000
  C   C3192     1.0  0.66279  0.05126  0.55360  1.0000
  C   C3193     1.0  0.50470  0.98602  0.82132  1.0000
  C   C3194     1.0  0.55806  0.00668  0.84386  1.0000
  C   C3195     1.0  0.96032  0.98500  0.73728  1.0000
  S   S459      1.0  0.54191  0.17806  0.53088  1.0000
  C   C3196     1.0  0.59106  0.09886  0.71544  1.0000
  C   C3197     1.0  0.59747  0.09849  0.69439  1.0000
  C   C3198     1.0  0.60665  0.07977  0.68749  1.0000
  C   C3199     1.0  0.61013  0.06159  0.70178  1.0000
  C   C3200     1.0  0.60434  0.06218  0.72287  1.0000
  C   C3201     1.0  0.59446  0.08068  0.72969  1.0000
  H   H2549     1.0  0.59491  0.11257  0.68339  1.0000
  H   H2550     1.0  0.61102  0.07940  0.67120  1.0000
  H   H2551     1.0  0.60724  0.04832  0.73402  1.0000
  H   H2552     1.0  0.58965  0.08089  0.74599  1.0000
  C   C3202     1.0  0.55540  0.14035  0.84037  1.0000
  C   C3203     1.0  0.56537  0.15343  0.84719  1.0000
  C   C3204     1.0  0.56962  0.14912  0.86738  1.0000
  C   C3205     1.0  0.56366  0.13181  0.88111  1.0000
  C   C3206     1.0  0.55388  0.11856  0.87426  1.0000
  C   C3207     1.0  0.54985  0.12275  0.85395  1.0000
  H   H2553     1.0  0.56965  0.16712  0.83685  1.0000
  H   H2554     1.0  0.55950  0.06256  0.96431  1.0000
  H   H2555     1.0  0.54188  0.11277  0.84896  1.0000
  C   C3208     1.0  0.55972  0.99979  0.74799  1.0000
  C   C3209     1.0  0.50153  0.15103  0.58070  1.0000
  C   C3210     1.0  0.96770  0.14137  0.51335  1.0000
  H   H2556     1.0  0.50426  0.11796  0.58306  1.0000
  H   H2557     1.0  0.51634  0.15175  0.57068  1.0000
  H   H2558     1.0  0.52286  0.16724  0.95823  1.0000
  H   H2559     1.0  0.94077  0.13885  0.87781  1.0000
  H   H2560     1.0  0.84217  0.17515  0.70869  1.0000
  H   H2561     1.0  0.78017  0.10381  0.96929  1.0000
  H   H2562     1.0  0.87467  0.16452  0.87398  1.0000
  H   H2563     1.0  0.52942  0.01730  0.59300  1.0000
  C   C3211     1.0  0.65745  0.01717  0.55120  1.0000
  C   C3212     1.0  0.70536  0.13445  0.84883  1.0000
  C   C3213     1.0  0.69748  0.15434  0.83940  1.0000
  C   C3214     1.0  0.68042  0.16638  0.84968  1.0000
  C   C3215     1.0  0.67068  0.15857  0.86937  1.0000
  C   C3216     1.0  0.67857  0.13870  0.87911  1.0000
  C   C3217     1.0  0.69602  0.12665  0.86884  1.0000
  H   H2564     1.0  0.70465  0.16054  0.82405  1.0000
  H   H2565     1.0  0.53460  0.00228  0.62838  1.0000
  H   H2566     1.0  0.67118  0.13259  0.89437  1.0000
  H   H2567     1.0  0.70205  0.11136  0.87634  1.0000
  C   C3218     1.0  0.83676  0.06846  0.84407  1.0000
  C   C3219     1.0  0.83294  0.07447  0.86333  1.0000
  C   C3220     1.0  0.84793  0.08282  0.86932  1.0000
  C   C3221     1.0  0.86655  0.08583  0.85585  1.0000
  C   C3222     1.0  0.87039  0.07969  0.83665  1.0000
  C   C3223     1.0  0.85573  0.07069  0.83102  1.0000
  H   H2568     1.0  0.81866  0.07222  0.87374  1.0000
  H   H2569     1.0  0.84507  0.08702  0.88441  1.0000
  H   H2570     1.0  0.88481  0.08152  0.82629  1.0000
  H   H2571     1.0  0.85899  0.06562  0.81639  1.0000
  C   C3224     1.0  0.77235  0.08012  0.93225  1.0000
  C   C3225     1.0  0.76792  0.09056  0.94898  1.0000
  C   C3226     1.0  0.78387  0.09595  0.95622  1.0000
  C   C3227     1.0  0.80448  0.09092  0.94678  1.0000
  C   C3228     1.0  0.80898  0.08075  0.92978  1.0000
  C   C3229     1.0  0.79295  0.07527  0.92257  1.0000
  H   H2572     1.0  0.75207  0.09454  0.95641  1.0000
  H   H2573     1.0  0.68483  0.01912  0.90069  1.0000
  H   H2574     1.0  0.82485  0.07711  0.92216  1.0000
  H   H2575     1.0  0.79654  0.06740  0.90951  1.0000
  S   S460      1.0  0.62299  0.00551  0.65329  1.0000
  C   C3230     1.0  0.58592  0.01719  0.81704  1.0000
  C   C3231     1.0  0.57167  0.03330  0.80792  1.0000
  C   C3232     1.0  0.55051  0.03541  0.81628  1.0000
  C   C3233     1.0  0.54381  0.02207  0.83426  1.0000
  H   H2576     1.0  0.77125  0.12882  0.82267  1.0000
  H   H2577     1.0  0.57689  0.04365  0.79407  1.0000
  H   H2578     1.0  0.52749  0.02364  0.84079  1.0000
  C   C3234     1.0  0.98297  0.16310  0.94454  1.0000
  C   C3235     1.0  0.96748  0.09813  0.70925  1.0000
  C   C3236     1.0  0.53564  0.17692  0.70815  1.0000
  C   C3237     1.0  0.58363  0.03451  0.56021  1.0000
  C   C3238     1.0  0.96199  0.09205  0.75252  1.0000
  C   C3239     1.0  0.94778  0.10662  0.74207  1.0000
  C   C3240     1.0  0.95044  0.10950  0.72047  1.0000
  H   H2579     1.0  0.77061  0.03669  0.95578  1.0000
  H   H2580     1.0  0.93434  0.11504  0.75065  1.0000
  H   H2581     1.0  0.93903  0.12021  0.71247  1.0000
  C   C3241     1.0  0.84343  0.17693  0.81261  1.0000
  H   H2582     1.0  0.66846  0.16028  0.92412  1.0000
  C   C3242     1.0  0.98919  0.14637  0.68087  1.0000
  H   H2583     1.0  0.55269  0.99654  0.85781  1.0000
  C   C3243     1.0  0.62983  0.14158  0.65036  1.0000
  C   C3244     1.0  0.63451  0.14005  0.62940  1.0000
  C   C3245     1.0  0.64463  0.12133  0.62324  1.0000
  C   C3246     1.0  0.64978  0.10391  0.63791  1.0000
  C   C3247     1.0  0.64481  0.10519  0.65880  1.0000
  C   C3248     1.0  0.63472  0.12390  0.66505  1.0000
  C   C3249     1.0  0.49623  0.14772  0.68983  1.0000
  C   C3250     1.0  0.71989  0.98793  0.49668  1.0000
  H   H2584     1.0  0.64822  0.12016  0.60708  1.0000
  H   H2585     1.0  0.65729  0.08932  0.63306  1.0000
  H   H2586     1.0  0.63454  0.09942  0.95992  1.0000
  C   C3251     1.0  0.51449  0.16537  0.91089  1.0000
  C   C3252     1.0  0.79771  0.11860  0.80062  1.0000
  C   C3253     1.0  0.88020  0.05616  0.77628  1.0000
  H   H2587     1.0  0.56525  0.99806  0.59268  1.0000
  C   C3254     1.0  0.49694  0.01532  0.59902  1.0000
  C   C3255     1.0  0.87413  0.09920  0.77271  1.0000
  C   C3256     1.0  0.85717  0.08956  0.77360  1.0000
  C   C3257     1.0  0.86037  0.06790  0.77547  1.0000
  P   P109      1.0  0.83174  0.10506  0.77192  1.0000
  C   C3258     1.0  0.81532  0.08998  0.76554  1.0000
  C   C3259     1.0  0.71647  0.00969  0.84588  1.0000
  C   C3260     1.0  0.50258  0.99871  0.63967  1.0000
  H   H2588     1.0  0.49681  0.13358  0.97018  1.0000
  C   C3261     1.0  0.54900  0.11535  0.62426  1.0000
  H   H2589     1.0  0.52380  0.13310  0.53743  1.0000
  H   H2590     1.0  0.71306  0.00361  0.49894  1.0000
  C   C3262     1.0  0.81222  0.09196  0.74522  1.0000
  C   C3263     1.0  0.79928  0.08028  0.74067  1.0000
  C   C3264     1.0  0.78940  0.06656  0.75632  1.0000
  C   C3265     1.0  0.79250  0.06444  0.77654  1.0000
  C   C3266     1.0  0.80542  0.07606  0.78112  1.0000
  H   H2591     1.0  0.88249  0.03945  0.77795  1.0000
  C   C3267     1.0  0.65475  0.99027  0.52419  1.0000
  C   C3268     1.0  0.98504  0.13779  0.52293  1.0000
  H   H2592     1.0  0.87207  0.11586  0.77141  1.0000
  H   H2593     1.0  0.84760  0.05995  0.77664  1.0000
  C   C3269     1.0  0.58612  0.01257  0.75921  1.0000
  C   C3270     1.0  0.51738  0.01097  0.73821  1.0000
  C   C3271     1.0  0.93670  0.18104  0.87092  1.0000
  H   H2594     1.0  0.65685  0.06759  0.55368  1.0000
  H   H2595     1.0  0.87355  0.14066  0.95235  1.0000
  H   H2596     1.0  0.81964  0.10250  0.73288  1.0000
  H   H2597     1.0  0.79684  0.08191  0.72500  1.0000
  H   H2598     1.0  0.77930  0.05758  0.75283  1.0000
  H   H2599     1.0  0.78485  0.05384  0.78875  1.0000
  H   H2600     1.0  0.80762  0.07421  0.79688  1.0000
  H   H2601     1.0  0.65936  0.00554  0.85559  1.0000
  C   C3272     1.0  0.82229  0.14667  0.75375  1.0000
  C   C3273     1.0  0.98016  0.03360  0.73705  1.0000
  H   H2602     1.0  0.75557  0.16732  0.83524  1.0000
  C   C3274     1.0  0.61727  0.07257  0.93439  1.0000
  C   C3275     1.0  0.63130  0.05424  0.93131  1.0000
  C   C3276     1.0  0.63425  0.03831  0.94819  1.0000
  P   P110      1.0  0.64735  0.05169  0.90661  1.0000
  C   C3277     1.0  0.64030  0.07456  0.88814  1.0000
  C   C3278     1.0  0.67348  0.04843  0.91158  1.0000
  C   C3279     1.0  0.67851  0.06268  0.92151  1.0000
  C   C3280     1.0  0.69790  0.05925  0.92751  1.0000
  C   C3281     1.0  0.71235  0.04155  0.92382  1.0000
  C   C3282     1.0  0.70745  0.02727  0.91408  1.0000
  C   C3283     1.0  0.68812  0.03061  0.90803  1.0000
  C   C3284     1.0  0.65300  0.08967  0.88096  1.0000
  C   C3285     1.0  0.64615  0.10804  0.86810  1.0000
  C   C3286     1.0  0.62669  0.11148  0.86238  1.0000
  C   C3287     1.0  0.61421  0.09631  0.86904  1.0000
  C   C3288     1.0  0.62102  0.07785  0.88173  1.0000
  C   C3289     1.0  0.64273  0.03017  0.89697  1.0000
  C   C3290     1.0  0.62644  0.01948  0.90693  1.0000
  H   H2603     1.0  0.97066  0.13513  0.57935  1.0000
  H   H2604     1.0  0.60547  0.02082  0.85706  1.0000
  C   C3291     1.0  0.65038  0.00924  0.87008  1.0000
  C   C3292     1.0  0.65453  0.02503  0.87839  1.0000
  C   C3293     1.0  0.49997  0.06010  0.63102  1.0000
  C   C3294     1.0  0.98223  0.08443  0.71966  1.0000
  H   H2605     1.0  0.95723  0.00164  0.73267  1.0000
  H   H2606     1.0  0.61507  0.08545  0.92189  1.0000
  H   H2607     1.0  0.64550  0.02436  0.94622  1.0000
  H   H2608     1.0  0.66737  0.07633  0.92482  1.0000
  H   H2609     1.0  0.70196  0.07037  0.93481  1.0000
  H   H2610     1.0  0.72751  0.03915  0.92809  1.0000
  C   C3295     1.0  0.62313  0.04053  0.96781  1.0000
  C   C3296     1.0  0.56604  0.00825  0.76256  1.0000
  H   H2611     1.0  0.66811  0.08745  0.88522  1.0000
  H   H2612     1.0  0.65588  0.11973  0.86253  1.0000
  H   H2613     1.0  0.62125  0.12597  0.85288  1.0000
  H   H2614     1.0  0.59904  0.09906  0.86473  1.0000
  H   H2615     1.0  0.61094  0.06643  0.88704  1.0000
  H   H2616     1.0  0.61658  0.02355  0.92087  1.0000
  H   H2617     1.0  0.64998  0.15360  0.68114  1.0000
  S   S461      1.0  0.64915  0.17482  0.88094  1.0000
  H   H2618     1.0  0.52310  0.16204  0.89607  1.0000
  H   H2619     1.0  0.66700  0.03318  0.87035  1.0000
  C   C3297     1.0  0.57366  0.99653  0.72984  1.0000
  C   C3298     1.0  0.49089  0.04118  0.71563  1.0000
  C   C3299     1.0  0.95388  0.00823  0.69181  1.0000
  C   C3300     1.0  0.57906  0.00378  0.83501  1.0000
  S   S462      1.0  0.59150  0.17808  0.90292  1.0000
  P   P111      1.0  0.98747  0.00960  0.79682  1.0000
  S   S463      1.0  0.69210  0.98579  0.79767  1.0000
  H   H2620     1.0  0.72877  0.03124  0.82015  1.0000
  H   H2621     1.0  0.55106  0.09640  0.94177  1.0000
  H   H2622     1.0  0.88127  0.18143  0.96908  1.0000
  C   C3301     1.0  0.57982  0.99257  0.61930  1.0000
  H   H2623     1.0  0.80751  0.00845  0.96855  1.0000
  H   H2624     1.0  0.78673  0.00035  0.90785  1.0000
  C   C3302     1.0  0.84087  0.04235  0.95939  1.0000
  S   S464      1.0  0.62007  0.17522  0.93764  1.0000
  H   H2625     1.0  0.97828  0.02487  0.69156  1.0000
  H   H2626     1.0  0.49844  0.12702  0.63978  1.0000
  C   C3303     1.0  0.67800  0.00907  0.55389  1.0000
  C   C3304     1.0  0.67241  0.12884  0.93975  1.0000
  H   H2627     1.0  0.68080  0.09733  0.95466  1.0000
  H   H2628     1.0  0.52493  0.02523  0.65679  1.0000
  H   H2629     1.0  0.81531  0.17876  0.73981  1.0000
  H   H2630     1.0  0.63013  0.15324  0.61782  1.0000
  C   C3305     1.0  0.60778  0.01798  0.52633  1.0000
  C   C3306     1.0  0.57599  0.03801  0.54183  1.0000
  H   H2631     1.0  0.95948  0.13574  0.61643  1.0000
  C   C3307     1.0  0.56573  0.12254  0.61052  1.0000
  C   C3308     1.0  0.49482  0.13003  0.50265  1.0000
  C   C3309     1.0  0.53515  0.01269  0.66448  1.0000
  H   H2632     1.0  0.63025  0.12425  0.68135  1.0000
  C   C3310     1.0  0.63449  0.99837  0.88028  1.0000
  H   H2633     1.0  0.53497  0.11556  0.61858  1.0000
  H   H2634     1.0  0.56457  0.12803  0.59444  1.0000
  C   C3311     1.0  0.61574  0.01486  0.54462  1.0000
  H   H2635     1.0  0.58199  0.03227  0.51074  1.0000
  C   C3312     1.0  0.76312  0.98752  0.95744  1.0000
  C   C3313     1.0  0.63631  0.15985  0.69121  1.0000
  H   H2636     1.0  0.79245  0.13279  0.84715  1.0000
  C   C3314     1.0  0.96216  0.02604  0.69086  1.0000
  C   C3315     1.0  0.85252  0.14258  0.71861  1.0000
  C   C3316     1.0  0.70068  0.99521  0.81664  1.0000
  H   H2637     1.0  0.94499  0.10195  0.87676  1.0000
  C   C3317     1.0  0.79628  0.11828  0.88904  1.0000
  H   H2638     1.0  0.83086  0.12396  0.83917  1.0000
  H   H2639     1.0  0.65333  0.02089  0.72165  1.0000
  C   C3318     1.0  0.69069  0.02197  0.55673  1.0000
  C   C3319     1.0  0.94429  0.12781  0.89124  1.0000
  H   H2640     1.0  0.54062  0.16053  0.70768  1.0000
  H   H2641     1.0  0.49722  0.98490  0.83726  1.0000
  C   C3320     1.0  0.58987  0.16682  0.65372  1.0000
  H   H2642     1.0  0.54916  0.10515  0.88477  1.0000
  H   H2643     1.0  0.55596  0.01109  0.77677  1.0000
  C   C3321     1.0  0.77982  0.02006  0.93068  1.0000
  C   C3322     1.0  0.70487  0.99355  0.85197  1.0000
  H   H2644     1.0  0.82743  0.12299  0.87668  1.0000
  C   C3323     1.0  0.71213  0.01150  0.81056  1.0000
  H   H2645     1.0  0.57036  0.04090  0.86540  1.0000
  C   C3324     1.0  0.70054  0.14851  0.92769  1.0000
  H   H2646     1.0  0.85965  0.11057  0.73223  1.0000
  C   C3325     1.0  0.66468  0.05309  0.78553  1.0000
  C   C3326     1.0  0.64323  0.05952  0.79120  1.0000
  C   C3327     1.0  0.62941  0.05083  0.78397  1.0000
  P   P112      1.0  0.63313  0.07844  0.80793  1.0000
  C   C3328     1.0  0.61349  0.06732  0.82746  1.0000
  C   C3329     1.0  0.65398  0.08193  0.81958  1.0000
  C   C3330     1.0  0.66475  0.06497  0.83157  1.0000
  C   C3331     1.0  0.68203  0.06708  0.83904  1.0000
  C   C3332     1.0  0.68861  0.08615  0.83482  1.0000
  C   C3333     1.0  0.67812  0.10310  0.82292  1.0000
  C   C3334     1.0  0.66100  0.10100  0.81518  1.0000
  C   C3335     1.0  0.59328  0.07849  0.83205  1.0000
  C   C3336     1.0  0.57793  0.06907  0.84593  1.0000
  C   C3337     1.0  0.58245  0.04841  0.85525  1.0000
  C   C3338     1.0  0.60233  0.03712  0.85065  1.0000
  C   C3339     1.0  0.61773  0.04641  0.83674  1.0000
  C   C3340     1.0  0.62175  0.10269  0.79364  1.0000
  C   C3341     1.0  0.62090  0.10466  0.77268  1.0000
  C   C3342     1.0  0.61058  0.12291  0.76226  1.0000
  C   C3343     1.0  0.60093  0.13926  0.77268  1.0000
  C   C3344     1.0  0.60230  0.13771  0.79332  1.0000
  C   C3345     1.0  0.61281  0.11960  0.80372  1.0000
  C   C3346     1.0  0.72624  0.17818  0.93137  1.0000
  H   H2647     1.0  0.49854  0.16548  0.53977  1.0000
  H   H2648     1.0  0.95293  0.12364  0.94001  1.0000
  H   H2649     1.0  0.67578  0.05961  0.79060  1.0000
  H   H2650     1.0  0.61281  0.05569  0.78803  1.0000
  H   H2651     1.0  0.66046  0.04987  0.83443  1.0000
  H   H2652     1.0  0.69067  0.05384  0.84778  1.0000
  H   H2653     1.0  0.70203  0.08774  0.84055  1.0000
  H   H2654     1.0  0.68349  0.11781  0.81953  1.0000
  H   H2655     1.0  0.65367  0.11423  0.80544  1.0000
  H   H2656     1.0  0.58882  0.09423  0.82461  1.0000
  H   H2657     1.0  0.56231  0.07763  0.84894  1.0000
  C   C3347     1.0  0.57076  0.98663  0.60512  1.0000
  C   C3348     1.0  0.78019  0.00179  0.92371  1.0000
  H   H2658     1.0  0.63258  0.03689  0.83253  1.0000
  H   H2659     1.0  0.62773  0.09208  0.76432  1.0000
  H   H2660     1.0  0.60953  0.12413  0.74624  1.0000
  H   H2661     1.0  0.59202  0.15295  0.76489  1.0000
  H   H2662     1.0  0.59452  0.15028  0.80148  1.0000
  H   H2663     1.0  0.61320  0.11845  0.81988  1.0000
  C   C3349     1.0  0.94771  0.03129  0.80846  1.0000
  H   H2664     1.0  0.61666  0.01152  0.51315  1.0000
  C   C3350     1.0  0.77348  0.14602  0.90442  1.0000
  C   C3351     1.0  0.78938  0.15773  0.89918  1.0000
  C   C3352     1.0  0.80914  0.14928  0.88965  1.0000
  C   C3353     1.0  0.81234  0.12965  0.88428  1.0000
  P   P113      1.0  0.83056  0.16308  0.88349  1.0000
  C   C3354     1.0  0.88946  0.13779  0.89261  1.0000
  C   C3355     1.0  0.85237  0.14660  0.89355  1.0000
  C   C3356     1.0  0.68301  0.04300  0.55681  1.0000
  H   H2665     1.0  0.65664  0.16999  0.63224  1.0000
  C   C3357     1.0  0.88687  0.12018  0.90752  1.0000
  C   C3358     1.0  0.86695  0.11612  0.91599  1.0000
  C   C3359     1.0  0.84971  0.12938  0.90920  1.0000
  C   C3360     1.0  0.88045  0.15218  0.94068  1.0000
  C   C3361     1.0  0.82705  0.03124  0.95561  1.0000
  C   C3362     1.0  0.71987  0.01882  0.82509  1.0000
  C   C3363     1.0  0.60333  0.02286  0.56165  1.0000
  C   C3364     1.0  0.55086  0.16556  0.64535  1.0000
  C   C3365     1.0  0.83600  0.16876  0.85576  1.0000
  C   C3366     1.0  0.85106  0.15536  0.84463  1.0000
  C   C3367     1.0  0.85476  0.15952  0.82315  1.0000
  H   H2666     1.0  0.49042  0.01065  0.76257  1.0000
  P   P114      1.0  0.70967  0.17255  0.91591  1.0000
  C   C3368     1.0  0.70728  0.11251  0.94444  1.0000
  H   H2667     1.0  0.75853  0.15211  0.91250  1.0000
  H   H2668     1.0  0.78617  0.17317  0.90274  1.0000
  C   C3369     1.0  0.92014  0.02991  0.68943  1.0000
  H   H2669     1.0  0.73081  0.13130  0.93295  1.0000
  C   C3370     1.0  0.95232  0.09189  0.90725  1.0000
  H   H2670     1.0  0.90025  0.10976  0.91252  1.0000
  H   H2671     1.0  0.86478  0.10258  0.92768  1.0000
  H   H2672     1.0  0.83443  0.12592  0.91608  1.0000
  C   C3371     1.0  0.55020  0.09565  0.95814  1.0000
  H   H2673     1.0  0.56943  0.98967  0.71866  1.0000
  H   H2674     1.0  0.98571  0.11119  0.86944  1.0000
  H   H2675     1.0  0.95313  0.17917  0.80698  1.0000
  H   H2676     1.0  0.85990  0.14160  0.85242  1.0000
  H   H2677     1.0  0.86670  0.14945  0.81461  1.0000
  C   C3372     1.0  0.66022  0.00656  0.71604  1.0000
  C   C3373     1.0  0.51039  0.12448  0.51474  1.0000
  C   C3374     1.0  0.98558  0.14962  0.53761  1.0000
  H   H2678     1.0  0.61564  0.01155  0.73884  1.0000
  P   P115      1.0  0.61579  0.16555  0.65812  1.0000
  H   H2679     1.0  0.50281  0.01918  0.81666  1.0000
  H   H2680     1.0  0.64343  0.17285  0.97313  1.0000
  C   C3375     1.0  0.79998  0.12766  0.83282  1.0000
  H   H2681     1.0  0.60898  0.02030  0.57606  1.0000
  H   H2682     1.0  0.71802  0.09889  0.94975  1.0000
  C   C3376     1.0  0.52974  0.99296  0.67097  1.0000
  H   H2683     1.0  0.71833  0.01817  0.96660  1.0000
  C   C3377     1.0  0.86769  0.16908  0.93109  1.0000
  C   C3378     1.0  0.53012  0.07155  0.63617  1.0000
  C   C3379     1.0  0.95083  0.15678  0.51830  1.0000
  C   C3380     1.0  0.96001  0.01172  0.80699  1.0000
  H   H2684     1.0  0.66737  0.02172  0.68467  1.0000
  C   C3381     1.0  0.97641  0.02892  0.75858  1.0000
  H   H2685     1.0  0.58223  0.00299  0.67925  1.0000
  C   C3382     1.0  0.71443  0.13090  0.93483  1.0000
  C   C3383     1.0  0.95163  0.11921  0.92589  1.0000
  H   H2686     1.0  0.63448  0.04545  0.54829  1.0000
  C   C3384     1.0  0.95063  0.99404  0.81327  1.0000
  C   C3385     1.0  0.92933  0.99596  0.82090  1.0000
  C   C3386     1.0  0.91726  0.01549  0.82238  1.0000
  C   C3387     1.0  0.92647  0.03315  0.81619  1.0000
  H   H2687     1.0  0.59116  0.01843  0.77072  1.0000
  C   C3388     1.0  0.94631  0.13432  0.90903  1.0000
  H   H2688     1.0  0.85103  0.17080  0.93563  1.0000
  H   H2689     1.0  0.71523  0.01836  0.79448  1.0000
  H   H2690     1.0  0.54672  0.07129  0.63241  1.0000
  H   H2691     1.0  0.86427  0.14101  0.70502  1.0000
  C   C3389     1.0  0.49629  0.08271  0.65569  1.0000
  H   H2692     1.0  0.49528  0.15326  0.70403  1.0000
  C   C3390     1.0  0.65005  0.03848  0.55071  1.0000
  H   H2693     1.0  0.76454  0.11728  0.90327  1.0000
  H   H2694     1.0  0.54192  0.16152  0.92399  1.0000
  H   H2695     1.0  0.57440  0.04089  0.57341  1.0000
  H   H2696     1.0  0.96252  0.03698  0.76689  1.0000
  H   H2697     1.0  0.96908  0.04489  0.72906  1.0000
  C   C3391     1.0  0.51699  0.00700  0.78905  1.0000
  P   P116      1.0  0.64138  0.00044  0.54709  1.0000
  C   C3392     1.0  0.51645  0.01276  0.60443  1.0000
  H   H2698     1.0  0.65649  0.98651  0.58709  1.0000
  C   C3393     1.0  0.55405  0.01625  0.66740  1.0000
  H   H2699     1.0  0.90077  0.01699  0.82842  1.0000
  H   H2700     1.0  0.91716  0.04832  0.81743  1.0000
  C   C3394     1.0  0.72363  0.17088  0.89007  1.0000
  C   C3395     1.0  0.73870  0.17255  0.96385  1.0000
  C   C3396     1.0  0.49471  0.13189  0.58775  1.0000
  H   H2701     1.0  0.84712  0.05397  0.94728  1.0000
  C   C3397     1.0  0.82496  0.16384  0.73821  1.0000
  C   C3398     1.0  0.51167  0.13730  0.52808  1.0000
  H   H2702     1.0  0.72768  0.13737  0.89371  1.0000
  H   H2703     1.0  0.96728  0.13208  0.50216  1.0000
  C   C3399     1.0  0.90201  0.15017  0.93513  1.0000
  C   C3400     1.0  0.51754  0.08352  0.65037  1.0000
  P   P117      1.0  0.52885  0.09861  0.66271  1.0000
  C   C3401     1.0  0.51090  0.12183  0.66801  1.0000
  C   C3402     1.0  0.53612  0.08153  0.68557  1.0000
  C   C3403     1.0  0.52234  0.08098  0.70441  1.0000
  C   C3404     1.0  0.52829  0.06828  0.72221  1.0000
  C   C3405     1.0  0.54777  0.05561  0.72123  1.0000
  C   C3406     1.0  0.56088  0.05485  0.70228  1.0000
  C   C3407     1.0  0.55510  0.06770  0.68448  1.0000
  C   C3408     1.0  0.55051  0.10788  0.64505  1.0000
  C   C3409     1.0  0.58401  0.12247  0.61741  1.0000
  C   C3410     1.0  0.58545  0.11547  0.63815  1.0000
  C   C3411     1.0  0.56865  0.10848  0.65197  1.0000
  C   C3412     1.0  0.84990  0.12537  0.73410  1.0000
  C   C3413     1.0  0.67210  0.03760  0.77352  1.0000
  H   H2704     1.0  0.54014  0.01476  0.71045  1.0000
  C   C3414     1.0  0.51420  0.16855  0.94603  1.0000
  H   H2705     1.0  0.90701  0.09487  0.77258  1.0000
  H   H2706     1.0  0.55256  0.04614  0.73510  1.0000
  H   H2707     1.0  0.57567  0.04446  0.70145  1.0000
  H   H2708     1.0  0.56560  0.06699  0.66996  1.0000
  H   H2709     1.0  0.52068  0.12250  0.69653  1.0000
  H   H2710     1.0  0.79902  0.10305  0.88506  1.0000
  H   H2711     1.0  0.59701  0.12787  0.60667  1.0000
  H   H2712     1.0  0.59958  0.11549  0.64350  1.0000
  H   H2713     1.0  0.56975  0.10369  0.66805  1.0000
  H   H2714     1.0  0.74835  0.13545  0.85952  1.0000
  C   C3415     1.0  0.51931  0.00434  0.62463  1.0000
  C   C3416     1.0  0.98657  0.14639  0.61957  1.0000
  H   H2715     1.0  0.71459  0.15842  0.95937  1.0000
  C   C3417     1.0  0.95131  0.16590  0.93120  1.0000
  H   H2716     1.0  0.60984  0.99539  0.90627  1.0000
  S   S465      1.0  0.72657  0.01748  0.86486  1.0000
  H   H2717     1.0  0.57719  0.15943  0.87236  1.0000
  H   H2718     1.0  0.56079  0.04725  0.54070  1.0000
  C   C3418     1.0  0.51115  0.03435  0.70644  1.0000
  C   C3419     1.0  0.77688  0.12635  0.89929  1.0000
  H   H2719     1.0  0.55852  0.03130  0.66158  1.0000
  H   H2720     1.0  0.95459  0.07558  0.90651  1.0000
  H   H2721     1.0  0.70642  0.01567  0.55915  1.0000
  C   C3420     1.0  0.65845  0.00388  0.50545  1.0000
  C   C3421     1.0  0.72537  0.16881  0.95216  1.0000
  C   C3422     1.0  0.50766  0.00535  0.80972  1.0000
  C   C3423     1.0  0.97941  0.08133  0.74123  1.0000
  C   C3424     1.0  0.62246  0.00355  0.89865  1.0000
  C   C3425     1.0  0.58430  0.17647  0.63460  1.0000
  C   C3426     1.0  0.74687  0.16837  0.85056  1.0000
  C   C3427     1.0  0.66814  0.00703  0.69512  1.0000
  C   C3428     1.0  0.83131  0.11609  0.80981  1.0000
  H   H2722     1.0  0.51895  0.02221  0.78027  1.0000
  H   H2723     1.0  0.51683  0.04134  0.69085  1.0000
  C   C3429     1.0  0.87233  0.15102  0.88569  1.0000
  C   C3430     1.0  0.94963  0.04561  0.68893  1.0000
  C   C3431     1.0  0.89699  0.06591  0.77518  1.0000
  H   H2724     1.0  0.90471  0.14123  0.88625  1.0000
  H   H2725     1.0  0.65612  0.12806  0.94174  1.0000
  C   C3432     1.0  0.49242  0.17329  0.94952  1.0000
  H   H2726     1.0  0.53590  0.16487  0.64201  1.0000
  H   H2727     1.0  0.65375  0.98713  0.74559  1.0000
  H   H2728     1.0  0.91237  0.05686  0.77578  1.0000
  C   C3433     1.0  0.49663  0.01728  0.74705  1.0000
  H   H2729     1.0  0.65258  0.15577  0.71653  1.0000
  C   C3434     1.0  0.95486  0.09814  0.92489  1.0000
  C   C3435     1.0  0.92864  0.04756  0.68816  1.0000
  H   H2730     1.0  0.65321  0.02042  0.50467  1.0000
  S   S466      1.0  0.57761  0.15450  0.94946  1.0000
  C   C3436     1.0  0.58799  0.02963  0.52495  1.0000
  H   H2731     1.0  0.84686  0.18041  0.79596  1.0000
  C   C3437     1.0  0.59358  0.00110  0.72644  1.0000
  C   C3438     1.0  0.63694  0.03561  0.77165  1.0000
  C   C3439     1.0  0.81945  0.11370  0.79592  1.0000
  C   C3440     1.0  0.57587  0.15623  0.66845  1.0000
  H   H2732     1.0  0.81161  0.17128  0.92481  1.0000
  H   H2733     1.0  0.91161  0.13689  0.94256  1.0000
  C   C3441     1.0  0.55645  0.15564  0.66426  1.0000
  H   H2734     1.0  0.59588  0.08915  0.95640  1.0000
  H   H2735     1.0  0.92575  0.99682  0.69255  1.0000
  H   H2736     1.0  0.90383  0.03142  0.68893  1.0000
  C   C3442     1.0  0.84008  0.16181  0.72067  1.0000
  H   H2737     1.0  0.78813  0.11702  0.79016  1.0000
  H   H2738     1.0  0.93820  0.18067  0.53666  1.0000
  C   C3443     1.0  0.68627  0.11155  0.94706  1.0000
  C   C3444     1.0  0.66886  0.99625  0.48760  1.0000
  C   C3445     1.0  0.91098  0.16498  0.91983  1.0000
  C   C3446     1.0  0.94690  0.10673  0.89050  1.0000
  C   C3447     1.0  0.77176  0.98555  0.93706  1.0000
  S   S467      1.0  0.97128  0.14763  0.83944  1.0000
  H   H2739     1.0  0.54091  0.12849  0.95646  1.0000
  H   H2740     1.0  0.52156  0.11030  0.51375  1.0000
  C   C3448     1.0  0.60170  0.17698  0.71725  1.0000
  C   C3449     1.0  0.52436  0.01934  0.71768  1.0000
  C   C3450     1.0  0.52131  0.06009  0.62635  1.0000
  H   H2741     1.0  0.81051  0.14863  0.76720  1.0000
  C   C3451     1.0  0.77110  0.02215  0.95100  1.0000
  C   C3452     1.0  0.73101  0.15159  0.88377  1.0000
  C   C3453     1.0  0.67949  0.14722  0.92996  1.0000
  C   C3454     1.0  0.93267  0.01030  0.69137  1.0000
  C   C3455     1.0  0.82158  0.12286  0.82826  1.0000
  C   C3456     1.0  0.55503  0.07662  0.97084  1.0000
  S   S468      1.0  0.56752  0.12672  0.90706  1.0000
  H   H2742     1.0  0.71884  0.01375  0.91079  1.0000
  H   H2743     1.0  0.95405  0.98678  0.76953  1.0000
  P   P118      1.0  0.93883  0.16133  0.91177  1.0000
  C   C3457     1.0  0.81838  0.01688  0.97144  1.0000
  H   H2744     1.0  0.62625  0.02875  0.76633  1.0000
  C   C3458     1.0  0.56749  0.00023  0.67722  1.0000
  H   H2745     1.0  0.63119  0.98626  0.87366  1.0000
  H   H2746     1.0  0.95454  0.04517  0.80363  1.0000
  C   C3459     1.0  0.56482  0.17597  0.63054  1.0000
  C   C3460     1.0  0.59989  0.00883  0.74126  1.0000
  H   H2747     1.0  0.62187  0.17091  0.73965  1.0000
  H   H2748     1.0  0.93735  0.15941  0.51098  1.0000
  H   H2749     1.0  0.60449  0.99807  0.71264  1.0000
  H   H2750     1.0  0.66416  0.01642  0.75785  1.0000
  C   C3461     1.0  0.63789  0.16123  0.71118  1.0000
  C   C3462     1.0  0.97248  0.15799  0.93101  1.0000
  C   C3463     1.0  0.74279  0.15039  0.86423  1.0000
  H   H2751     1.0  0.53108  0.05129  0.61506  1.0000
  C   C3464     1.0  0.78804  0.12550  0.81901  1.0000
  H   H2752     1.0  0.69852  0.99632  0.59836  1.0000
  C   C3465     1.0  0.65827  0.02879  0.76668  1.0000
  S   S469      1.0  0.89706  0.18034  0.79346  1.0000
  H   H2753     1.0  0.68411  0.99275  0.55411  1.0000
  C   C3466     1.0  0.49800  0.13260  0.65384  1.0000
  H   H2754     1.0  0.51770  0.06818  0.73675  1.0000
  C   C3467     1.0  0.76292  0.00576  0.96462  1.0000
  H   H2755     1.0  0.68861  0.03198  0.76991  1.0000
  H   H2756     1.0  0.50699  0.09033  0.70546  1.0000
  C   C3468     1.0  0.52513  0.16498  0.92669  1.0000
  H   H2757     1.0  0.54596  0.14705  0.67554  1.0000
  C   C3469     1.0  0.49741  0.15566  0.52934  1.0000
  H   H2758     1.0  0.58006  0.14808  0.68304  1.0000
  H   H2759     1.0  0.82279  0.03408  0.94050  1.0000
  H   H2760     1.0  0.92524  0.17178  0.87119  1.0000
  S   S470      1.0  0.55241  0.17437  0.57721  1.0000
  C   C3470     1.0  0.89394  0.08740  0.77340  1.0000
  H   H2761     1.0  0.69263  0.05294  0.55952  1.0000
  H   H2762     1.0  0.64832  0.09151  0.67019  1.0000
  H   H2763     1.0  0.84804  0.11242  0.80672  1.0000
  H   H2764     1.0  0.51544  0.18186  0.68610  1.0000
  H   H2765     1.0  0.98541  0.10861  0.82590  1.0000
  C   C3471     1.0  0.54445  0.11381  0.96648  1.0000
  C   C3472     1.0  0.60000  0.17546  0.69732  1.0000
  H   H2766     1.0  0.97534  0.14736  0.67457  1.0000
  H   H2767     1.0  0.98671  0.09960  0.79191  1.0000
  C   C3473     1.0  0.62059  0.16977  0.72420  1.0000
  P   P119      1.0  0.53468  0.99180  0.75279  1.0000
  C   C3474     1.0  0.49284  0.16984  0.91426  1.0000
  H   H2768     1.0  0.98164  0.14629  0.63592  1.0000
  C   C3475     1.0  0.96861  0.16518  0.54240  1.0000
  S   S471      1.0  0.59609  0.98315  0.84686  1.0000
  C   C3476     1.0  0.97401  0.14049  0.60854  1.0000
  H   H2769     1.0  0.58533  0.18145  0.69210  1.0000
  H   H2770     1.0  0.55393  0.17619  0.73094  1.0000
  H   H2771     1.0  0.90568  0.17893  0.48731  1.0000
  C   C3477     1.0  0.69699  0.98636  0.83748  1.0000
  H   H2772     1.0  0.70216  0.98635  0.86799  1.0000
  H   H2773     1.0  0.68195  0.98921  0.67124  1.0000
  C   C3478     1.0  0.67633  0.98859  0.68760  1.0000
  C   C3479     1.0  0.60911  0.05872  0.97071  1.0000
  H   H2774     1.0  0.98107  0.14841  0.91991  1.0000
  H   H2775     1.0  0.49300  0.05171  0.62301  1.0000
  C   C3480     1.0  0.95130  0.16872  0.53279  1.0000
  C   C3481     1.0  0.94592  0.17926  0.88824  1.0000
  C   C3482     1.0  0.94079  0.17910  0.94504  1.0000
  C   C3483     1.0  0.89801  0.18224  0.91080  1.0000
  C   C3484     1.0  0.97243  0.17629  0.95828  1.0000
  H   H2776     1.0  0.96875  0.17457  0.55360  1.0000
  C   C3485     1.0  0.98039  0.14026  0.58750  1.0000
  C   C3486     1.0  0.66045  0.98761  0.72947  1.0000
  H   H2777     1.0  0.68390  0.00836  0.97248  1.0000
  C   C3487     1.0  0.98704  0.14349  0.85844  1.0000
  C   C3488     1.0  0.98755  0.15145  0.70023  1.0000
  H   H2778     1.0  0.98072  0.18063  0.96842  1.0000
  H   H2779     1.0  0.97239  0.15658  0.70880  1.0000
  S   S472      1.0  0.63634  0.98354  0.79495  1.0000
  H   H2780     1.0  0.56980  0.98367  0.80588  1.0000
  H   H2781     1.0  0.67453  0.18177  0.84215  1.0000
  C   C3489     1.0  0.72701  0.98355  0.47675  1.0000
  Fe  Fe234     1.0  0.94456  0.34029  0.25687  1.0000
  S   S473      1.0  0.92597  0.36245  0.27749  1.0000
  S   S474      1.0  0.96038  0.35162  0.22454  1.0000
  Fe  Fe235     1.0  0.93282  0.30271  0.28767  1.0000
  S   S475      1.0  0.91359  0.32161  0.31075  1.0000
  S   S476      1.0  0.93742  0.26801  0.29428  1.0000
  Fe  Fe236     1.0  0.90145  0.34261  0.28372  1.0000
  S   S477      1.0  0.86711  0.35314  0.28312  1.0000
  Fe  Fe237     1.0  0.93989  0.33938  0.30260  1.0000
  S   S478      1.0  0.95146  0.34890  0.32767  1.0000
  S   S479      1.0  0.91892  0.32216  0.26106  1.0000
  S   S480      1.0  0.96021  0.31877  0.28153  1.0000
  C   C3490     1.0  0.52773  0.33956  0.14380  1.0000
  Fe  Fe238     1.0  0.58567  0.29498  0.06359  1.0000
  S   S481      1.0  0.57306  0.30416  0.03367  1.0000
  S   S482      1.0  0.59876  0.31060  0.08393  1.0000
  Fe  Fe239     1.0  0.57516  0.25131  0.07127  1.0000
  S   S483      1.0  0.56132  0.25675  0.04292  1.0000
  S   S484      1.0  0.57993  0.22003  0.09136  1.0000
  Fe  Fe240     1.0  0.58840  0.27206  0.02746  1.0000
  Fe  Fe241     1.0  0.54679  0.28791  0.05114  1.0000
  S   S485      1.0  0.51301  0.29748  0.04872  1.0000
  S   S486      1.0  0.60348  0.26454  0.05553  1.0000
  S   S487      1.0  0.55802  0.28089  0.08123  1.0000
  H   H2782     1.0  0.61737  0.21370  0.05197  1.0000
  C   C3491     1.0  0.76005  0.23842  0.42914  1.0000
  H   H2783     1.0  0.71298  0.32242  0.40575  1.0000
  Fe  Fe242     1.0  0.59126  0.36664  0.40964  1.0000
  S   S488      1.0  0.59948  0.33215  0.41298  1.0000
  C   C3492     1.0  0.92196  0.19054  0.30059  1.0000
  Fe  Fe243     1.0  0.60964  0.36734  0.44801  1.0000
  S   S489      1.0  0.61942  0.33281  0.45371  1.0000
  H   H2784     1.0  0.98363  0.31637  0.38764  1.0000
  Fe  Fe244     1.0  0.62967  0.33683  0.41938  1.0000
  S   S490      1.0  0.65890  0.31873  0.40395  1.0000
  Fe  Fe245     1.0  0.58842  0.33170  0.44678  1.0000
  H   H2785     1.0  0.97265  0.24626  0.16878  1.0000
  H   H2786     1.0  0.98357  0.31510  0.31452  1.0000
  S   S491      1.0  0.57792  0.36601  0.44299  1.0000
  H   H2787     1.0  0.58013  0.22495  0.37401  1.0000
  S   S492      1.0  0.53709  0.34756  0.26474  1.0000
  C   C3493     1.0  0.98136  0.27381  0.20736  1.0000
  H   H2788     1.0  0.84437  0.25152  0.29464  1.0000
  H   H2789     1.0  0.56978  0.29811  0.15942  1.0000
  C   C3494     1.0  0.98501  0.22262  0.19244  1.0000
  C   C3495     1.0  0.55679  0.36312  0.08119  1.0000
  S   S493      1.0  0.85563  0.23557  0.34274  1.0000
  C   C3496     1.0  0.56571  0.23919  0.97555  1.0000
  H   H2790     1.0  0.84232  0.19862  0.24919  1.0000
  H   H2791     1.0  0.53683  0.23598  0.08798  1.0000
  C   C3497     1.0  0.58023  0.26424  0.12603  1.0000
  C   C3498     1.0  0.74758  0.28583  0.38257  1.0000
  C   C3499     1.0  0.49153  0.20514  0.06903  1.0000
  C   C3500     1.0  0.74491  0.32429  0.39369  1.0000
  H   H2792     1.0  0.51612  0.37706  0.19633  1.0000
  H   H2793     1.0  0.52060  0.27127  0.97632  1.0000
  C   C3501     1.0  0.67508  0.21940  0.04272  1.0000
  C   C3502     1.0  0.50804  0.33514  0.14415  1.0000
  C   C3503     1.0  0.94334  0.27509  0.41014  1.0000
  H   H2794     1.0  0.97281  0.25027  0.26552  1.0000
  C   C3504     1.0  0.56266  0.35442  0.37224  1.0000
  C   C3505     1.0  0.55541  0.34580  0.35839  1.0000
  H   H2795     1.0  0.56691  0.30113  0.32046  1.0000
  H   H2796     1.0  0.88347  0.19931  0.23868  1.0000
  H   H2797     1.0  0.52473  0.31037  0.45754  1.0000
  H   H2798     1.0  0.56543  0.34531  0.38692  1.0000
  H   H2799     1.0  0.55263  0.33005  0.36258  1.0000
  C   C3506     1.0  0.97699  0.22747  0.42617  1.0000
  C   C3507     1.0  0.80382  0.26159  0.39959  1.0000
  C   C3508     1.0  0.50941  0.25640  0.18077  1.0000
  H   H2800     1.0  0.80081  0.21056  0.02899  1.0000
  C   C3509     1.0  0.96780  0.19271  0.20306  1.0000
  H   H2801     1.0  0.75851  0.24648  0.32583  1.0000
  C   C3510     1.0  0.76371  0.31461  0.38364  1.0000
  C   C3511     1.0  0.50726  0.19873  0.97970  1.0000
  C   C3512     1.0  0.97539  0.25690  0.24928  1.0000
  H   H2802     1.0  0.59012  0.28249  0.44801  1.0000
  C   C3513     1.0  0.69528  0.30502  0.44670  1.0000
  C   C3514     1.0  0.85241  0.21126  0.01384  1.0000
  H   H2803     1.0  0.50535  0.21983  0.10093  1.0000
  H   H2804     1.0  0.51052  0.31834  0.18307  1.0000
  C   C3515     1.0  0.50531  0.32342  0.13041  1.0000
  H   H2805     1.0  0.76424  0.31962  0.42603  1.0000
  C   C3516     1.0  0.57275  0.23876  0.40152  1.0000
  C   C3517     1.0  0.97023  0.33112  0.36073  1.0000
  C   C3518     1.0  0.60753  0.33463  0.07952  1.0000
  C   C3519     1.0  0.60716  0.34846  0.06089  1.0000
  C   C3520     1.0  0.61328  0.36782  0.05849  1.0000
  C   C3521     1.0  0.98383  0.31560  0.33032  1.0000
  C   C3522     1.0  0.62050  0.35963  0.09318  1.0000
  C   C3523     1.0  0.61432  0.34028  0.09560  1.0000
  C   C3524     1.0  0.73038  0.30182  0.45306  1.0000
  C   C3525     1.0  0.50411  0.24425  0.20011  1.0000
  H   H2806     1.0  0.61468  0.32969  0.11007  1.0000
  C   C3526     1.0  0.77087  0.24391  0.46519  1.0000
  C   C3527     1.0  0.49409  0.37161  0.41723  1.0000
  H   H2807     1.0  0.62337  0.18350  0.08510  1.0000
  C   C3528     1.0  0.90459  0.21205  0.99187  1.0000
  P   P120      1.0  0.68473  0.20709  0.00427  1.0000
  C   C3529     1.0  0.52084  0.32012  0.19260  1.0000
  C   C3530     1.0  0.70459  0.33551  0.35788  1.0000
  C   C3531     1.0  0.68880  0.32537  0.37016  1.0000
  C   C3532     1.0  0.67643  0.33337  0.38711  1.0000
  C   C3533     1.0  0.67946  0.35192  0.39135  1.0000
  C   C3534     1.0  0.82266  0.28872  0.38067  1.0000
  H   H2808     1.0  0.59089  0.24435  0.45599  1.0000
  H   H2809     1.0  0.68655  0.31099  0.36685  1.0000
  H   H2810     1.0  0.67010  0.35794  0.40460  1.0000
  H   H2811     1.0  0.90523  0.21352  0.04189  1.0000
  H   H2812     1.0  0.74827  0.27083  0.37876  1.0000
  H   H2813     1.0  0.68282  0.29800  0.44471  1.0000
  H   H2814     1.0  0.96563  0.18742  0.32006  1.0000
  H   H2815     1.0  0.98798  0.36852  0.18928  1.0000
  C   C3535     1.0  0.92702  0.20314  0.28145  1.0000
  H   H2816     1.0  0.60196  0.34435  0.04841  1.0000
  H   H2817     1.0  0.77710  0.32220  0.38029  1.0000
  C   C3536     1.0  0.83254  0.26813  0.41235  1.0000
  H   H2818     1.0  0.76861  0.37514  0.19202  1.0000
  C   C3537     1.0  0.71145  0.20255  0.00819  1.0000
  C   C3538     1.0  0.96320  0.21852  0.38654  1.0000
  C   C3539     1.0  0.56008  0.19350  0.18980  1.0000
  C   C3540     1.0  0.91453  0.25907  0.30717  1.0000
  C   C3541     1.0  0.89525  0.27206  0.30714  1.0000
  C   C3542     1.0  0.87720  0.26461  0.31784  1.0000
  C   C3543     1.0  0.87835  0.24430  0.32878  1.0000
  C   C3544     1.0  0.89764  0.23130  0.32865  1.0000
  C   C3545     1.0  0.91564  0.23866  0.31766  1.0000
  H   H2819     1.0  0.89425  0.28786  0.29898  1.0000
  H   H2820     1.0  0.86242  0.27474  0.31800  1.0000
  H   H2821     1.0  0.89872  0.21561  0.33701  1.0000
  H   H2822     1.0  0.93054  0.22873  0.31757  1.0000
  H   H2823     1.0  0.74366  0.33936  0.39777  1.0000
  H   H2824     1.0  0.82505  0.30120  0.36790  1.0000
  C   C3546     1.0  0.50346  0.27589  0.00620  1.0000
  C   C3547     1.0  0.86612  0.22025  0.44696  1.0000
  C   C3548     1.0  0.76505  0.29558  0.37750  1.0000
  C   C3549     1.0  0.59230  0.37990  0.14030  1.0000
  C   C3550     1.0  0.49349  0.34384  0.08198  1.0000
  H   H2825     1.0  0.63566  0.24562  0.43170  1.0000
  C   C3551     1.0  0.92403  0.30068  0.43072  1.0000
  C   C3552     1.0  0.67870  0.18501  0.99657  1.0000
  C   C3553     1.0  0.96986  0.33065  0.34020  1.0000
  C   C3554     1.0  0.64686  0.20977  0.03161  1.0000
  C   C3555     1.0  0.92698  0.23421  0.39373  1.0000
  C   C3556     1.0  0.85385  0.19916  0.29887  1.0000
  C   C3557     1.0  0.96729  0.27764  0.24272  1.0000
  P   P121      1.0  0.94978  0.23241  0.42409  1.0000
  C   C3558     1.0  0.55754  0.20867  0.09912  1.0000
  C   C3559     1.0  0.53817  0.22006  0.09581  1.0000
  C   C3560     1.0  0.52037  0.21097  0.10319  1.0000
  S   S494      1.0  0.77151  0.37159  0.37593  1.0000
  H   H2826     1.0  0.83979  0.30154  0.30143  1.0000
  C   C3561     1.0  0.90771  0.21758  0.02529  1.0000
  C   C3562     1.0  0.97426  0.37773  0.27943  1.0000
  H   H2827     1.0  0.89069  0.23337  0.45264  1.0000
  S   S495      1.0  0.56995  0.37595  0.27000  1.0000
  C   C3563     1.0  0.95492  0.19162  0.30929  1.0000
  C   C3564     1.0  0.75937  0.26055  0.45360  1.0000
  H   H2828     1.0  0.79599  0.33410  0.41222  1.0000
  C   C3565     1.0  0.91722  0.23469  0.01584  1.0000
  C   C3566     1.0  0.91292  0.18924  0.24918  1.0000
  C   C3567     1.0  0.61348  0.36412  0.32169  1.0000
  H   H2829     1.0  0.67122  0.36574  0.31518  1.0000
  C   C3568     1.0  0.77138  0.22191  0.44082  1.0000
  H   H2830     1.0  0.50789  0.20116  0.06991  1.0000
  C   C3569     1.0  0.51506  0.37287  0.41064  1.0000
  C   C3570     1.0  0.92576  0.20096  0.43907  1.0000
  H   H2831     1.0  0.57622  0.36799  0.10077  1.0000
  C   C3571     1.0  0.50321  0.18518  0.02221  1.0000
  C   C3572     1.0  0.66141  0.18757  0.98696  1.0000
  C   C3573     1.0  0.87442  0.23231  0.45681  1.0000
  C   C3574     1.0  0.97012  0.28608  0.22177  1.0000
  C   C3575     1.0  0.72590  0.21451  0.99589  1.0000
  H   H2832     1.0  0.82837  0.22090  0.31159  1.0000
  C   C3576     1.0  0.58049  0.25425  0.46582  1.0000
  H   H2833     1.0  0.66752  0.22973  0.07200  1.0000
  H   H2834     1.0  0.53360  0.34731  0.45381  1.0000
  H   H2835     1.0  0.82715  0.27928  0.33412  1.0000
  C   C3577     1.0  0.57614  0.28805  0.32885  1.0000
  H   H2836     1.0  0.90832  0.23198  0.37218  1.0000
  S   S496      1.0  0.83444  0.20260  0.44105  1.0000
  H   H2837     1.0  0.97850  0.21401  0.39056  1.0000
  C   C3578     1.0  0.51033  0.37486  0.16648  1.0000
  C   C3579     1.0  0.77722  0.29684  0.44986  1.0000
  C   C3580     1.0  0.79598  0.32114  0.42486  1.0000
  C   C3581     1.0  0.55993  0.21630  0.43285  1.0000
  H   H2838     1.0  0.95862  0.28712  0.25390  1.0000
  H   H2839     1.0  0.81308  0.24075  0.36731  1.0000
  C   C3582     1.0  0.81348  0.29666  0.45019  1.0000
  C   C3583     1.0  0.91485  0.18805  0.45467  1.0000
  H   H2840     1.0  0.71516  0.28833  0.39630  1.0000
  C   C3584     1.0  0.86033  0.19329  0.02673  1.0000
  C   C3585     1.0  0.63006  0.25537  0.41831  1.0000
  C   C3586     1.0  0.51969  0.20458  0.99094  1.0000
  C   C3587     1.0  0.66383  0.24551  0.98703  1.0000
  C   C3588     1.0  0.51451  0.28110  0.46609  1.0000
  H   H2841     1.0  0.65415  0.27390  0.41161  1.0000
  H   H2842     1.0  0.75617  0.23636  0.41500  1.0000
  H   H2843     1.0  0.53112  0.21414  0.98310  1.0000
  H   H2844     1.0  0.56411  0.34715  0.08082  1.0000
  C   C3589     1.0  0.56803  0.28571  0.15228  1.0000
  C   C3590     1.0  0.52203  0.30632  0.21116  1.0000
  C   C3591     1.0  0.98625  0.20783  0.43536  1.0000
  H   H2845     1.0  0.60733  0.37005  0.30758  1.0000
  H   H2846     1.0  0.98313  0.25779  0.40998  1.0000
  C   C3592     1.0  0.92115  0.37063  0.37956  1.0000
  H   H2847     1.0  0.50056  0.37758  0.13723  1.0000
  H   H2848     1.0  0.52852  0.26992  0.11820  1.0000
  H   H2849     1.0  0.61068  0.24292  0.35886  1.0000
  C   C3593     1.0  0.81154  0.35644  0.46737  1.0000
  C   C3594     1.0  0.83252  0.22931  0.46759  1.0000
  C   C3595     1.0  0.92367  0.22865  0.37603  1.0000
  H   H2850     1.0  0.90847  0.28857  0.46084  1.0000
  H   H2851     1.0  0.52074  0.33381  0.06040  1.0000
  C   C3596     1.0  0.60479  0.25925  0.32909  1.0000
  H   H2852     1.0  0.51355  0.28555  0.00860  1.0000
  H   H2853     1.0  0.56986  0.18981  0.20143  1.0000
  H   H2854     1.0  0.59504  0.28884  0.12869  1.0000
  H   H2855     1.0  0.62574  0.36375  0.10562  1.0000
  C   C3597     1.0  0.50212  0.26563  0.10764  1.0000
  C   C3598     1.0  0.79530  0.28853  0.45829  1.0000
  C   C3599     1.0  0.63419  0.36645  0.34629  1.0000
  C   C3600     1.0  0.84794  0.18527  0.97681  1.0000
  C   C3601     1.0  0.75452  0.25781  0.43525  1.0000
  H   H2856     1.0  0.77156  0.32517  0.34265  1.0000
  H   H2857     1.0  0.93115  0.37309  0.38917  1.0000
  C   C3602     1.0  0.61219  0.25231  0.41261  1.0000
  C   C3603     1.0  0.57186  0.28399  0.35034  1.0000
  H   H2858     1.0  0.97731  0.19551  0.44119  1.0000
  C   C3604     1.0  0.85273  0.36939  0.30045  1.0000
  H   H2859     1.0  0.57592  0.20968  0.04398  1.0000
  H   H2860     1.0  0.92204  0.24354  0.02512  1.0000
  H   H2861     1.0  0.58884  0.20481  0.00775  1.0000
  H   H2862     1.0  0.67803  0.33604  0.44139  1.0000
  S   S497      1.0  0.75581  0.36698  0.43479  1.0000
  C   C3605     1.0  0.98740  0.35061  0.21987  1.0000
  H   H2863     1.0  0.63247  0.34360  0.37395  1.0000
  H   H2864     1.0  0.86258  0.22025  0.00255  1.0000
  C   C3606     1.0  0.94631  0.20971  0.27635  1.0000
  C   C3607     1.0  0.95672  0.22029  0.17612  1.0000
  C   C3608     1.0  0.57413  0.24963  0.98700  1.0000
  C   C3609     1.0  0.84516  0.21847  0.45247  1.0000
  S   S498      1.0  0.87671  0.20882  0.39242  1.0000
  H   H2865     1.0  0.84737  0.29318  0.39422  1.0000
  C   C3610     1.0  0.57460  0.22280  0.39040  1.0000
  C   C3611     1.0  0.93760  0.21378  0.46476  1.0000
  H   H2866     1.0  0.87605  0.21194  0.43546  1.0000
  H   H2867     1.0  0.86279  0.33934  0.45080  1.0000
  C   C3612     1.0  0.61359  0.33938  0.35349  1.0000
  C   C3613     1.0  0.66188  0.22385  0.06084  1.0000
  H   H2868     1.0  0.49473  0.34069  0.15505  1.0000
  C   C3614     1.0  0.93672  0.21447  0.44401  1.0000
  C   C3615     1.0  0.94003  0.21818  0.36356  1.0000
  C   C3616     1.0  0.64119  0.22137  0.06431  1.0000
  C   C3617     1.0  0.52230  0.35423  0.44393  1.0000
  H   H2869     1.0  0.63075  0.22530  0.07810  1.0000
  H   H2870     1.0  0.77636  0.20705  0.43576  1.0000
  C   C3618     1.0  0.92555  0.26416  0.44464  1.0000
  S   S499      1.0  0.73007  0.36425  0.34849  1.0000
  C   C3619     1.0  0.72756  0.31470  0.39830  1.0000
  C   C3620     1.0  0.80689  0.27730  0.38249  1.0000
  C   C3621     1.0  0.63320  0.28392  0.38984  1.0000
  C   C3622     1.0  0.95978  0.21335  0.36868  1.0000
  H   H2871     1.0  0.56342  0.24754  0.43172  1.0000
  C   C3623     1.0  0.81663  0.25697  0.41441  1.0000
  H   H2872     1.0  0.53583  0.27281  0.38875  1.0000
  H   H2873     1.0  0.51280  0.29416  0.21563  1.0000
  C   C3624     1.0  0.49946  0.27706  0.17681  1.0000
  C   C3625     1.0  0.79875  0.30074  0.34115  1.0000
  C   C3626     1.0  0.72713  0.32337  0.45197  1.0000
  P   P122      1.0  0.78943  0.28366  0.36416  1.0000
  C   C3627     1.0  0.81273  0.36713  0.44702  1.0000
  H   H2874     1.0  0.57956  0.29625  0.41258  1.0000
  C   C3628     1.0  0.70845  0.33568  0.44752  1.0000
  C   C3629     1.0  0.83542  0.28415  0.39558  1.0000
  H   H2875     1.0  0.61652  0.35043  0.18239  1.0000
  H   H2876     1.0  0.76868  0.19118  0.01702  1.0000
  C   C3630     1.0  0.51222  0.30236  0.46573  1.0000
  C   C3631     1.0  0.71775  0.18730  0.02448  1.0000
  C   C3632     1.0  0.69614  0.38131  0.31466  1.0000
  H   H2877     1.0  0.92045  0.25247  0.45722  1.0000
  H   H2878     1.0  0.56400  0.25996  0.99663  1.0000
  C   C3633     1.0  0.56211  0.20038  0.42175  1.0000
  H   H2879     1.0  0.78479  0.34713  0.31077  1.0000
  C   C3634     1.0  0.53832  0.21893  0.16842  1.0000
  H   H2880     1.0  0.52855  0.27303  0.45790  1.0000
  H   H2881     1.0  0.70635  0.35235  0.44614  1.0000
  C   C3635     1.0  0.52807  0.31347  0.41373  1.0000
  C   C3636     1.0  0.80065  0.24217  0.35885  1.0000
  H   H2882     1.0  0.81423  0.24467  0.42748  1.0000
  C   C3637     1.0  0.78696  0.26098  0.35506  1.0000
  C   C3638     1.0  0.56505  0.23546  0.42278  1.0000
  H   H2883     1.0  0.69085  0.22215  0.04007  1.0000
  C   C3639     1.0  0.94669  0.22868  0.39936  1.0000
  H   H2884     1.0  0.69809  0.37599  0.38277  1.0000
  C   C3640     1.0  0.77205  0.26252  0.34272  1.0000
  Fe  Fe246     1.0  0.54211  0.36354  0.28922  1.0000
  Fe  Fe247     1.0  0.85280  0.19104  0.41203  1.0000
  C   C3641     1.0  0.97161  0.23119  0.17822  1.0000
  C   C3642     1.0  0.58014  0.27575  0.46139  1.0000
  H   H2885     1.0  0.54046  0.27964  0.17337  1.0000
  H   H2886     1.0  0.82661  0.37321  0.43935  1.0000
  C   C3643     1.0  0.92183  0.25299  0.21098  1.0000
  C   C3644     1.0  0.92331  0.27011  0.21897  1.0000
  C   C3645     1.0  0.92073  0.26893  0.24022  1.0000
  C   C3646     1.0  0.91679  0.25066  0.25347  1.0000
  C   C3647     1.0  0.91493  0.23348  0.24567  1.0000
  C   C3648     1.0  0.91761  0.23472  0.22425  1.0000
  P   P123      1.0  0.90931  0.21018  0.26328  1.0000
  C   C3649     1.0  0.88296  0.21394  0.27724  1.0000
  C   C3650     1.0  0.49477  0.25483  0.98535  1.0000
  H   H2887     1.0  0.60961  0.29112  0.37109  1.0000
  H   H2888     1.0  0.95276  0.27165  0.39572  1.0000
  C   C3651     1.0  0.58235  0.28039  0.13511  1.0000
  H   H2889     1.0  0.82504  0.23115  0.00455  1.0000
  C   C3652     1.0  0.56606  0.37490  0.36713  1.0000
  C   C3653     1.0  0.81308  0.32559  0.30404  1.0000
  H   H2890     1.0  0.94663  0.22677  0.16489  1.0000
  C   C3654     1.0  0.79882  0.22496  0.35119  1.0000
  C   C3655     1.0  0.87209  0.23380  0.27991  1.0000
  H   H2891     1.0  0.71447  0.32890  0.34517  1.0000
  H   H2892     1.0  0.97453  0.20988  0.28663  1.0000
  H   H2893     1.0  0.81879  0.33519  0.28978  1.0000
  C   C3656     1.0  0.79400  0.33228  0.31585  1.0000
  C   C3657     1.0  0.69554  0.36192  0.37922  1.0000
  S   S500      1.0  0.60703  0.26114  0.99837  1.0000
  H   H2894     1.0  0.92391  0.25390  0.19450  1.0000
  H   H2895     1.0  0.92650  0.28431  0.20876  1.0000
  H   H2896     1.0  0.92190  0.28210  0.24655  1.0000
  H   H2897     1.0  0.91517  0.24991  0.26987  1.0000
  H   H2898     1.0  0.91663  0.22167  0.21770  1.0000
  H   H2899     1.0  0.57098  0.19129  0.39195  1.0000
  H   H2900     1.0  0.60760  0.32661  0.36395  1.0000
  C   C3658     1.0  0.77020  0.24524  0.33515  1.0000
  H   H2901     1.0  0.95086  0.21916  0.26163  1.0000
  H   H2902     1.0  0.78617  0.21199  0.46746  1.0000
  Fe  Fe248     1.0  0.86208  0.20677  0.36623  1.0000
  H   H2903     1.0  0.87929  0.37435  0.31062  1.0000
  H   H2904     1.0  0.87890  0.24745  0.27339  1.0000
  H   H2905     1.0  0.65415  0.24622  0.00197  1.0000
  C   C3659     1.0  0.55193  0.35741  0.33912  1.0000
  C   C3660     1.0  0.52911  0.36425  0.42401  1.0000
  C   C3661     1.0  0.56931  0.20367  0.40052  1.0000
  C   C3662     1.0  0.83101  0.21759  0.01494  1.0000
  C   C3663     1.0  0.90783  0.27519  0.35374  1.0000
  C   C3664     1.0  0.92914  0.27510  0.34839  1.0000
  C   C3665     1.0  0.93752  0.29063  0.35290  1.0000
  C   C3666     1.0  0.92452  0.30654  0.36223  1.0000
  C   C3667     1.0  0.90307  0.30682  0.36741  1.0000
  C   C3668     1.0  0.89490  0.29070  0.36353  1.0000
  P   P124      1.0  0.88616  0.32748  0.37915  1.0000
  C   C3669     1.0  0.87994  0.31935  0.40658  1.0000
  C   C3670     1.0  0.89846  0.35002  0.37260  1.0000
  C   C3671     1.0  0.91125  0.35337  0.38516  1.0000
  H   H2906     1.0  0.64441  0.37416  0.35131  1.0000
  C   C3672     1.0  0.56360  0.37486  0.09240  1.0000
  H   H2907     1.0  0.72154  0.22718  0.98394  1.0000
  C   C3673     1.0  0.89615  0.36384  0.35419  1.0000
  C   C3674     1.0  0.87395  0.33409  0.41969  1.0000
  C   C3675     1.0  0.86741  0.32794  0.44075  1.0000
  C   C3676     1.0  0.86642  0.30717  0.44881  1.0000
  C   C3677     1.0  0.87224  0.29248  0.43584  1.0000
  C   C3678     1.0  0.87916  0.29846  0.41487  1.0000
  C   C3679     1.0  0.86199  0.33430  0.36952  1.0000
  C   C3680     1.0  0.84419  0.34412  0.38118  1.0000
  C   C3681     1.0  0.82542  0.34930  0.37396  1.0000
  C   C3682     1.0  0.82414  0.34462  0.35513  1.0000
  C   C3683     1.0  0.84188  0.33527  0.34323  1.0000
  C   C3684     1.0  0.86079  0.33039  0.35022  1.0000
  H   H2908     1.0  0.90121  0.26336  0.35007  1.0000
  H   H2909     1.0  0.93908  0.26316  0.34050  1.0000
  H   H2910     1.0  0.95400  0.29065  0.34863  1.0000
  H   H2911     1.0  0.93122  0.31885  0.36485  1.0000
  H   H2912     1.0  0.87846  0.29034  0.36750  1.0000
  H   H2913     1.0  0.91381  0.34255  0.39908  1.0000
  H   H2914     1.0  0.55834  0.18547  0.42967  1.0000
  S   S501      1.0  0.58772  0.34953  0.22070  1.0000
  C   C3685     1.0  0.55988  0.28288  0.39916  1.0000
  H   H2915     1.0  0.88702  0.36110  0.34395  1.0000
  H   H2916     1.0  0.87380  0.35040  0.41363  1.0000
  C   C3686     1.0  0.84326  0.21895  0.30151  1.0000
  C   C3687     1.0  0.78669  0.31981  0.33421  1.0000
  H   H2917     1.0  0.87158  0.27637  0.44210  1.0000
  H   H2918     1.0  0.88364  0.28671  0.40525  1.0000
  H   H2919     1.0  0.84471  0.34831  0.39563  1.0000
  H   H2920     1.0  0.81212  0.35767  0.38271  1.0000
  H   H2921     1.0  0.80966  0.34909  0.34931  1.0000
  H   H2922     1.0  0.84121  0.33256  0.32816  1.0000
  H   H2923     1.0  0.87442  0.32398  0.34029  1.0000
  C   C3688     1.0  0.82497  0.30652  0.31065  1.0000
  H   H2924     1.0  0.54540  0.36515  0.41879  1.0000
  C   C3689     1.0  0.59290  0.35874  0.14753  1.0000
  C   C3690     1.0  0.57447  0.35087  0.15459  1.0000
  C   C3691     1.0  0.55524  0.36408  0.15402  1.0000
  C   C3692     1.0  0.52212  0.31602  0.11622  1.0000
  P   P125      1.0  0.53149  0.35362  0.16247  1.0000
  C   C3693     1.0  0.53260  0.33612  0.18677  1.0000
  C   C3694     1.0  0.53476  0.30849  0.22419  1.0000
  C   C3695     1.0  0.54631  0.32445  0.21866  1.0000
  C   C3696     1.0  0.54516  0.33833  0.20014  1.0000
  C   C3697     1.0  0.54171  0.32031  0.11573  1.0000
  C   C3698     1.0  0.54453  0.33210  0.12936  1.0000
  H   H2925     1.0  0.49448  0.23397  0.04878  1.0000
  H   H2926     1.0  0.60770  0.34846  0.14787  1.0000
  H   H2927     1.0  0.57524  0.33446  0.16047  1.0000
  H   H2928     1.0  0.97218  0.20484  0.35916  1.0000
  H   H2929     1.0  0.53551  0.29800  0.23871  1.0000
  H   H2930     1.0  0.55612  0.32612  0.22884  1.0000
  H   H2931     1.0  0.55407  0.35076  0.19643  1.0000
  H   H2932     1.0  0.55479  0.31453  0.10474  1.0000
  H   H2933     1.0  0.55991  0.33515  0.12846  1.0000
  H   H2934     1.0  0.82769  0.31975  0.42765  1.0000
  H   H2935     1.0  0.51582  0.32541  0.41918  1.0000
  C   C3699     1.0  0.55909  0.18795  0.10895  1.0000
  C   C3700     1.0  0.81376  0.31313  0.43362  1.0000
  C   C3701     1.0  0.69251  0.32652  0.44490  1.0000
  H   H2936     1.0  0.89958  0.20358  0.98239  1.0000
  C   C3702     1.0  0.54881  0.25929  0.15071  1.0000
  H   H2937     1.0  0.80952  0.21054  0.35413  1.0000
  P   P126      1.0  0.88798  0.18469  0.02522  1.0000
  C   C3703     1.0  0.85230  0.23625  0.29190  1.0000
  C   C3704     1.0  0.98265  0.20354  0.20523  1.0000
  H   H2938     1.0  0.79169  0.25271  0.40131  1.0000
  H   H2939     1.0  0.86114  0.30242  0.46510  1.0000
  C   C3705     1.0  0.90144  0.20603  0.01332  1.0000
  C   C3706     1.0  0.77782  0.31298  0.43288  1.0000
  H   H2940     1.0  0.59126  0.26020  0.11263  1.0000
  H   H2941     1.0  0.51093  0.22805  0.20331  1.0000
  H   H2942     1.0  0.93724  0.21309  0.35037  1.0000
  H   H2943     1.0  0.50793  0.30011  0.40133  1.0000
  H   H2944     1.0  0.64126  0.29631  0.38117  1.0000
  C   C3707     1.0  0.67551  0.38058  0.31453  1.0000
  C   C3708     1.0  0.58758  0.19639  0.04053  1.0000
  C   C3709     1.0  0.62740  0.34913  0.35924  1.0000
  C   C3710     1.0  0.60453  0.26527  0.39563  1.0000
  H   H2945     1.0  0.98301  0.28050  0.19118  1.0000
  H   H2946     1.0  0.51984  0.30723  0.10538  1.0000
  C   C3711     1.0  0.50571  0.33076  0.06860  1.0000
  S   S502      1.0  0.54355  0.34586  0.32174  1.0000
  P   P127      1.0  0.75396  0.28596  0.46048  1.0000
  H   H2947     1.0  0.55413  0.22621  0.19011  1.0000
  C   C3712     1.0  0.50121  0.35307  0.45086  1.0000
  H   H2948     1.0  0.95928  0.37742  0.28927  1.0000
  C   C3713     1.0  0.53944  0.28379  0.39658  1.0000
  C   C3714     1.0  0.75269  0.19450  0.01477  1.0000
  C   C3715     1.0  0.81736  0.20596  0.02872  1.0000
  H   H2949     1.0  0.82730  0.29020  0.45686  1.0000
  C   C3716     1.0  0.81786  0.29413  0.32916  1.0000
  H   H2950     1.0  0.74675  0.27074  0.42553  1.0000
  C   C3717     1.0  0.78351  0.22642  0.33949  1.0000
  C   C3718     1.0  0.59254  0.27565  0.31821  1.0000
  C   C3719     1.0  0.60063  0.25524  0.35062  1.0000
  C   C3720     1.0  0.64051  0.27124  0.40700  1.0000
  C   C3721     1.0  0.98385  0.31619  0.37161  1.0000
  H   H2951     1.0  0.84246  0.26443  0.42388  1.0000
  C   C3722     1.0  0.55130  0.27523  0.16008  1.0000
  C   C3723     1.0  0.61528  0.28098  0.38421  1.0000
  C   C3724     1.0  0.51768  0.19784  0.01218  1.0000
  H   H2952     1.0  0.96364  0.30219  0.21678  1.0000
  H   H2953     1.0  0.95957  0.34275  0.36840  1.0000
  C   C3725     1.0  0.92027  0.24055  0.99443  1.0000
  C   C3726     1.0  0.63366  0.21459  0.04960  1.0000
  C   C3727     1.0  0.72884  0.29550  0.39280  1.0000
  C   C3728     1.0  0.95490  0.20099  0.18847  1.0000
  H   H2954     1.0  0.94054  0.30803  0.39983  1.0000
  C   C3729     1.0  0.60066  0.36907  0.20520  1.0000
  C   C3730     1.0  0.70845  0.35347  0.36274  1.0000
  C   C3731     1.0  0.54068  0.37201  0.07026  1.0000
  H   H2955     1.0  0.59593  0.27900  0.30154  1.0000
  C   C3732     1.0  0.52362  0.29918  0.40368  1.0000
  C   C3733     1.0  0.52192  0.19047  0.11362  1.0000
  C   C3734     1.0  0.54825  0.31216  0.41701  1.0000
  H   H2956     1.0  0.56213  0.24117  0.12663  1.0000
  H   H2957     1.0  0.61598  0.19533  0.11849  1.0000
  H   H2958     1.0  0.80191  0.35899  0.17308  1.0000
  S   S503      1.0  0.62222  0.37158  0.41394  1.0000
  C   C3735     1.0  0.77767  0.36289  0.44672  1.0000
  C   C3736     1.0  0.56412  0.29695  0.40975  1.0000
  S   S504      1.0  0.56400  0.31553  0.46839  1.0000
  C   C3737     1.0  0.98660  0.24463  0.23493  1.0000
  C   C3738     1.0  0.66777  0.21203  0.02805  1.0000
  H   H2959     1.0  0.83735  0.19439  0.21492  1.0000
  C   C3739     1.0  0.62734  0.37404  0.32737  1.0000
  H   H2960     1.0  0.76186  0.27712  0.33897  1.0000
  H   H2961     1.0  0.79666  0.37896  0.42113  1.0000
  H   H2962     1.0  0.78213  0.21302  0.33363  1.0000
  H   H2963     1.0  0.49054  0.22888  0.15968  1.0000
  C   C3740     1.0  0.86256  0.37726  0.31266  1.0000
  H   H2964     1.0  0.61774  0.24988  0.32084  1.0000
  H   H2965     1.0  0.53556  0.36290  0.06145  1.0000
  C   C3741     1.0  0.77684  0.22468  0.45878  1.0000
  C   C3742     1.0  0.60685  0.34669  0.33462  1.0000
  H   H2966     1.0  0.60442  0.23995  0.42163  1.0000
  H   H2967     1.0  0.73895  0.33070  0.45478  1.0000
  C   C3743     1.0  0.55110  0.21406  0.18341  1.0000
  C   C3744     1.0  0.83102  0.37376  0.30270  1.0000
  Fe  Fe249     1.0  0.56296  0.36291  0.24483  1.0000
  C   C3745     1.0  0.56365  0.25359  0.13392  1.0000
  H   H2968     1.0  0.91848  0.31669  0.43248  1.0000
  C   C3746     1.0  0.49830  0.31383  0.06562  1.0000
  H   H2969     1.0  0.49394  0.33675  0.24371  1.0000
  C   C3747     1.0  0.74645  0.21039  0.99914  1.0000
  C   C3748     1.0  0.61412  0.36540  0.18691  1.0000
  H   H2970     1.0  0.55460  0.21373  0.44937  1.0000
  C   C3749     1.0  0.93630  0.29580  0.41235  1.0000
  H   H2971     1.0  0.82336  0.36823  0.29292  1.0000
  C   C3750     1.0  0.77678  0.35167  0.46680  1.0000
  H   H2972     1.0  0.55173  0.32284  0.42526  1.0000
  C   C3751     1.0  0.58394  0.26740  0.36145  1.0000
  C   C3752     1.0  0.51545  0.26201  0.12188  1.0000
  C   C3753     1.0  0.67994  0.22871  0.98376  1.0000
  C   C3754     1.0  0.91852  0.28486  0.44676  1.0000
  C   C3755     1.0  0.93862  0.25905  0.42654  1.0000
  P   P128      1.0  0.58021  0.26340  0.38925  1.0000
  C   C3756     1.0  0.53504  0.20303  0.15957  1.0000
  H   H2973     1.0  0.64043  0.20498  0.02034  1.0000
  H   H2974     1.0  0.55944  0.29429  0.35803  1.0000
  H   H2975     1.0  0.49007  0.32028  0.13056  1.0000
  H   H2976     1.0  0.52579  0.20632  0.14757  1.0000
  C   C3757     1.0  0.51161  0.24858  0.14069  1.0000
  P   P129      1.0  0.52726  0.24561  0.16021  1.0000
  H   H2977     1.0  0.81633  0.22802  0.47200  1.0000
  C   C3758     1.0  0.84425  0.18327  0.24556  1.0000
  C   C3759     1.0  0.71405  0.29268  0.45098  1.0000
  C   C3760     1.0  0.79581  0.37040  0.43669  1.0000
  C   C3761     1.0  0.96001  0.20421  0.29037  1.0000
  H   H2978     1.0  0.59584  0.33934  0.33033  1.0000
  H   H2979     1.0  0.91395  0.24183  0.40355  1.0000
  H   H2980     1.0  0.54914  0.24158  0.97652  1.0000
  H   H2981     1.0  0.50543  0.27571  0.09303  1.0000
  H   H2982     1.0  0.61282  0.37845  0.04406  1.0000
  C   C3762     1.0  0.59564  0.24732  0.98534  1.0000
  C   C3763     1.0  0.90607  0.38105  0.34858  1.0000
  C   C3764     1.0  0.59491  0.19370  0.02016  1.0000
  H   H2983     1.0  0.50281  0.28647  0.16176  1.0000
  C   C3765     1.0  0.89755  0.18788  0.23847  1.0000
  H   H2984     1.0  0.81643  0.37653  0.13849  1.0000
  H   H2985     1.0  0.79535  0.27588  0.47126  1.0000
  C   C3766     1.0  0.61988  0.37356  0.07462  1.0000
  S   S505      1.0  0.83658  0.19083  0.38592  1.0000
  C   C3767     1.0  0.48940  0.25292  0.21541  1.0000
  H   H2986     1.0  0.52738  0.20242  0.02082  1.0000
  C   C3768     1.0  0.91389  0.22926  0.98247  1.0000
  H   H2987     1.0  0.65173  0.20261  0.98399  1.0000
  H   H2988     1.0  0.92741  0.25393  0.98710  1.0000
  H   H2989     1.0  0.70748  0.36715  0.31575  1.0000
  H   H2990     1.0  0.49915  0.35699  0.08427  1.0000
  Fe  Fe250     1.0  0.51609  0.37724  0.25472  1.0000
  S   S506      1.0  0.80538  0.19079  0.98558  1.0000
  H   H2991     1.0  0.92523  0.20039  0.42330  1.0000
  C   C3769     1.0  0.79366  0.37367  0.16621  1.0000
  H   H2992     1.0  0.94355  0.19238  0.18679  1.0000
  C   C3770     1.0  0.49409  0.23901  0.14511  1.0000
  C   C3771     1.0  0.87352  0.19668  0.28663  1.0000
  C   C3772     1.0  0.55531  0.37789  0.33401  1.0000
  H   H2993     1.0  0.86923  0.19718  0.06501  1.0000
  H   H2994     1.0  0.63529  0.37799  0.16071  1.0000
  C   C3773     1.0  0.50747  0.26775  0.98808  1.0000
  H   H2995     1.0  0.75767  0.21941  0.98945  1.0000
  C   C3774     1.0  0.49319  0.18538  0.98954  1.0000
  H   H2996     1.0  0.94632  0.22369  0.46892  1.0000
  C   C3775     1.0  0.62468  0.38098  0.17465  1.0000
  H   H2997     1.0  0.58872  0.18387  0.07221  1.0000
  C   C3776     1.0  0.86187  0.24289  0.47211  1.0000
  H   H2998     1.0  0.52055  0.38041  0.39514  1.0000
  C   C3777     1.0  0.88178  0.18431  0.06745  1.0000
  H   H2999     1.0  0.90727  0.18521  0.30511  1.0000
  H   H3000     1.0  0.84711  0.18570  0.30690  1.0000
  H   H3001     1.0  0.76278  0.34593  0.47457  1.0000
  H   H3002     1.0  0.71274  0.38107  0.46119  1.0000
  C   C3778     1.0  0.93589  0.18479  0.31440  1.0000
  C   C3779     1.0  0.82508  0.18813  0.04167  1.0000
  H   H3003     1.0  0.87627  0.18339  0.10025  1.0000
  C   C3780     1.0  0.72013  0.37994  0.47426  1.0000
  H   H3004     1.0  0.71559  0.27603  0.45298  1.0000
  H   H3005     1.0  0.66338  0.38136  0.24229  1.0000
  C   C3781     1.0  0.77490  0.38277  0.17687  1.0000
  H   H3006     1.0  0.66519  0.38233  0.27797  1.0000
  C   C3782     1.0  0.73833  0.18299  0.02748  1.0000
  C   C3783     1.0  0.56654  0.28845  0.47418  1.0000
  H   H3007     1.0  0.98027  0.24657  0.80513  1.0000
  H   H3008     1.0  0.74102  0.19982  0.90702  1.0000
  H   H3009     1.0  0.97531  0.21732  0.86937  1.0000
  C   C3784     1.0  0.94191  0.19521  0.85307  1.0000
  S   S507      1.0  0.56736  0.21338  0.94816  1.0000
  H   H3010     1.0  0.52322  0.22182  0.50334  1.0000
  Fe  Fe251     1.0  0.52833  0.19233  0.55891  1.0000
  C   C3785     1.0  0.82422  0.18588  0.84507  1.0000
  C   C3786     1.0  0.64693  0.18512  0.63182  1.0000
  Fe  Fe252     1.0  0.56943  0.20086  0.56354  1.0000
  S   S508      1.0  0.58490  0.21331  0.58373  1.0000
  S   S509      1.0  0.54396  0.22015  0.54753  1.0000
  H   H3011     1.0  0.89292  0.21295  0.85377  1.0000
  C   C3787     1.0  0.71895  0.36306  0.49032  1.0000
  C   C3788     1.0  0.68761  0.24456  0.94775  1.0000
  Fe  Fe253     1.0  0.53209  0.35940  0.58456  1.0000
  S   S510      1.0  0.52527  0.34706  0.61846  1.0000
  P   P130      1.0  0.49253  0.22398  0.68507  1.0000
  Fe  Fe254     1.0  0.51916  0.31938  0.60818  1.0000
  S   S511      1.0  0.53092  0.28790  0.62527  1.0000
  H   H3012     1.0  0.67514  0.35677  0.52026  1.0000
  H   H3013     1.0  0.49822  0.24809  0.97157  1.0000
  S   S512      1.0  0.52795  0.33079  0.57446  1.0000
  C   C3789     1.0  0.77503  0.37006  0.63280  1.0000
  H   H3014     1.0  0.65281  0.22209  0.94720  1.0000
  Fe  Fe255     1.0  0.87617  0.28899  0.89724  1.0000
  S   S513      1.0  0.90299  0.27139  0.91229  1.0000
  S   S514      1.0  0.86045  0.32010  0.90499  1.0000
  Fe  Fe256     1.0  0.87902  0.25684  0.87087  1.0000
  S   S515      1.0  0.90622  0.23647  0.88342  1.0000
  S   S516      1.0  0.86258  0.25124  0.84712  1.0000
  Fe  Fe257     1.0  0.88884  0.24356  0.91412  1.0000
  S   S517      1.0  0.89056  0.21862  0.94213  1.0000
  Fe  Fe258     1.0  0.91817  0.26588  0.88069  1.0000
  S   S518      1.0  0.95239  0.26594  0.87115  1.0000
  S   S519      1.0  0.86042  0.26159  0.90189  1.0000
  S   S520      1.0  0.89254  0.28592  0.86519  1.0000
  S   S521      1.0  0.49913  0.37477  0.58310  1.0000
  C   C3790     1.0  0.55377  0.27959  0.49158  1.0000
  Fe  Fe259     1.0  0.92745  0.35567  0.67362  1.0000
  S   S522      1.0  0.90270  0.34106  0.66683  1.0000
  S   S523      1.0  0.95458  0.33592  0.68832  1.0000
  C   C3791     1.0  0.50813  0.20781  0.61983  1.0000
  S   S524      1.0  0.90243  0.36334  0.60397  1.0000
  C   C3792     1.0  0.57861  0.22595  0.96268  1.0000
  S   S525      1.0  0.85301  0.35916  0.70535  1.0000
  H   H3015     1.0  0.81730  0.23463  0.92053  1.0000
  Fe  Fe260     1.0  0.83585  0.32518  0.50398  1.0000
  S   S526      1.0  0.82278  0.29847  0.49998  1.0000
  Fe  Fe261     1.0  0.85569  0.30098  0.54082  1.0000
  S   S527      1.0  0.84426  0.27222  0.53921  1.0000
  S   S528      1.0  0.87229  0.29655  0.56804  1.0000
  Fe  Fe262     1.0  0.85378  0.27968  0.50498  1.0000
  C   C3793     1.0  0.98532  0.25514  0.73485  1.0000
  Fe  Fe263     1.0  0.81441  0.29360  0.53440  1.0000
  S   S529      1.0  0.78463  0.28398  0.55199  1.0000
  S   S530      1.0  0.86771  0.30689  0.50676  1.0000
  S   S531      1.0  0.82496  0.32179  0.53820  1.0000
  C   C3794     1.0  0.89373  0.34465  0.59447  1.0000
  C   C3795     1.0  0.88787  0.32679  0.60723  1.0000
  C   C3796     1.0  0.88115  0.31230  0.59891  1.0000
  C   C3797     1.0  0.87985  0.31573  0.57789  1.0000
  C   C3798     1.0  0.88567  0.33361  0.56516  1.0000
  C   C3799     1.0  0.89282  0.34786  0.57340  1.0000
  H   H3016     1.0  0.88880  0.32401  0.62341  1.0000
  H   H3017     1.0  0.87701  0.29832  0.60879  1.0000
  H   H3018     1.0  0.88512  0.33620  0.54891  1.0000
  C   C3800     1.0  0.50897  0.22792  0.91556  1.0000
  H   H3019     1.0  0.69669  0.24414  0.93249  1.0000
  C   C3801     1.0  0.54319  0.18577  0.72136  1.0000
  C   C3802     1.0  0.76964  0.35797  0.60326  1.0000
  H   H3020     1.0  0.97563  0.27742  0.93136  1.0000
  C   C3803     1.0  0.78148  0.35648  0.61859  1.0000
  C   C3804     1.0  0.95885  0.29063  0.86183  1.0000
  H   H3021     1.0  0.64692  0.27431  0.97337  1.0000
  H   H3022     1.0  0.86662  0.19779  0.90955  1.0000
  C   C3805     1.0  0.98513  0.31197  0.84601  1.0000
  C   C3806     1.0  0.94887  0.32762  0.85142  1.0000
  C   C3807     1.0  0.94342  0.30820  0.86009  1.0000
  H   H3023     1.0  0.51217  0.20376  0.60462  1.0000
  C   C3808     1.0  0.98743  0.36486  0.72565  1.0000
  H   H3024     1.0  0.93690  0.34116  0.85053  1.0000
  H   H3025     1.0  0.92732  0.30686  0.86556  1.0000
  H   H3026     1.0  0.97445  0.32014  0.77112  1.0000
  C   C3809     1.0  0.82788  0.33358  0.85850  1.0000
  C   C3810     1.0  0.83944  0.32279  0.87370  1.0000
  C   C3811     1.0  0.84520  0.33354  0.88658  1.0000
  C   C3812     1.0  0.49890  0.22198  0.90220  1.0000
  H   H3027     1.0  0.76304  0.31046  0.48741  1.0000
  H   H3028     1.0  0.82314  0.32513  0.84885  1.0000
  H   H3029     1.0  0.84375  0.30612  0.87552  1.0000
  H   H3030     1.0  0.79252  0.34012  0.49277  1.0000
  H   H3031     1.0  0.82425  0.38271  0.86643  1.0000
  S   S532      1.0  0.58700  0.18630  0.53641  1.0000
  C   C3813     1.0  0.98433  0.36726  0.64605  1.0000
  H   H3032     1.0  0.74221  0.20165  0.84578  1.0000
  P   P131      1.0  0.62504  0.31023  0.55609  1.0000
  C   C3814     1.0  0.82937  0.21857  0.96292  1.0000
  C   C3815     1.0  0.84816  0.22488  0.95300  1.0000
  C   C3816     1.0  0.86688  0.21143  0.95507  1.0000
  H   H3033     1.0  0.79020  0.37875  0.50032  1.0000
  H   H3034     1.0  0.84817  0.24019  0.94391  1.0000
  S   S533      1.0  0.80900  0.36798  0.83568  1.0000
  H   H3035     1.0  0.88565  0.34694  0.90978  1.0000
  H   H3036     1.0  0.83808  0.30882  0.59924  1.0000
  C   C3817     1.0  0.61475  0.20744  0.64269  1.0000
  C   C3818     1.0  0.73281  0.30782  0.58745  1.0000
  C   C3819     1.0  0.74938  0.29436  0.57839  1.0000
  C   C3820     1.0  0.76482  0.30209  0.56318  1.0000
  C   C3821     1.0  0.76337  0.32360  0.55670  1.0000
  C   C3822     1.0  0.74619  0.33720  0.56533  1.0000
  H   H3037     1.0  0.72118  0.30158  0.59949  1.0000
  H   H3038     1.0  0.75033  0.27781  0.58332  1.0000
  H   H3039     1.0  0.77514  0.32965  0.54471  1.0000
  C   C3823     1.0  0.69162  0.22825  0.96393  1.0000
  C   C3824     1.0  0.52194  0.21880  0.71076  1.0000
  H   H3040     1.0  0.94800  0.24090  0.77240  1.0000
  C   C3825     1.0  0.52216  0.21580  0.62721  1.0000
  H   H3041     1.0  0.83280  0.32052  0.69563  1.0000
  H   H3042     1.0  0.65679  0.28300  0.53304  1.0000
  C   C3826     1.0  0.57042  0.23510  0.59394  1.0000
  C   C3827     1.0  0.57121  0.23618  0.61418  1.0000
  C   C3828     1.0  0.55923  0.25263  0.62338  1.0000
  C   C3829     1.0  0.54680  0.26859  0.61221  1.0000
  C   C3830     1.0  0.54654  0.26809  0.59161  1.0000
  C   C3831     1.0  0.55814  0.25114  0.58255  1.0000
  H   H3043     1.0  0.58043  0.22377  0.62304  1.0000
  H   H3044     1.0  0.55943  0.25290  0.63930  1.0000
  H   H3045     1.0  0.53702  0.28040  0.58285  1.0000
  H   H3046     1.0  0.55772  0.25059  0.56676  1.0000
  C   C3832     1.0  0.82811  0.19008  0.82356  1.0000
  C   C3833     1.0  0.98042  0.28853  0.76643  1.0000
  H   H3047     1.0  0.98189  0.35856  0.61784  1.0000
  H   H3048     1.0  0.64313  0.34273  0.52425  1.0000
  H   H3049     1.0  0.50060  0.24406  0.58419  1.0000
  H   H3050     1.0  0.72825  0.34830  0.51930  1.0000
  C   C3834     1.0  0.73932  0.18766  0.85651  1.0000
  C   C3835     1.0  0.97205  0.29889  0.79987  1.0000
  Fe  Fe264     1.0  0.56026  0.20395  0.52108  1.0000
  C   C3836     1.0  0.96466  0.20704  0.86973  1.0000
  H   H3051     1.0  0.50479  0.19463  0.50052  1.0000
  H   H3052     1.0  0.68430  0.19520  0.94719  1.0000
  C   C3837     1.0  0.87214  0.21575  0.80357  1.0000
  C   C3838     1.0  0.86436  0.23124  0.81560  1.0000
  C   C3839     1.0  0.87199  0.23048  0.83357  1.0000
  C   C3840     1.0  0.88703  0.21368  0.83985  1.0000
  S   S534      1.0  0.97608  0.35377  0.83244  1.0000
  C   C3841     1.0  0.96752  0.25233  0.70786  1.0000
  H   H3053     1.0  0.85274  0.24417  0.81068  1.0000
  C   C3842     1.0  0.95586  0.20821  0.85247  1.0000
  C   C3843     1.0  0.60150  0.34142  0.53222  1.0000
  H   H3054     1.0  0.92462  0.18583  0.94504  1.0000
  H   H3055     1.0  0.58382  0.36594  0.51354  1.0000
  C   C3844     1.0  0.95985  0.19260  0.88745  1.0000
  H   H3056     1.0  0.83532  0.23549  0.88442  1.0000
  H   H3057     1.0  0.52847  0.22686  0.65242  1.0000
  C   C3845     1.0  0.62650  0.18749  0.64268  1.0000
  H   H3058     1.0  0.81948  0.20369  0.81536  1.0000
  H   H3059     1.0  0.68467  0.19339  0.88373  1.0000
  C   C3846     1.0  0.65505  0.20243  0.62026  1.0000
  H   H3060     1.0  0.54319  0.28939  0.50146  1.0000
  C   C3847     1.0  0.61056  0.32040  0.53534  1.0000
  C   C3848     1.0  0.86678  0.19185  0.96747  1.0000
  H   H3061     1.0  0.69929  0.34269  0.54517  1.0000
  C   C3849     1.0  0.53661  0.20678  0.72243  1.0000
  H   H3062     1.0  0.96406  0.23385  0.73782  1.0000
  C   C3850     1.0  0.66002  0.21602  0.93331  1.0000
  C   C3851     1.0  0.65117  0.22303  0.91559  1.0000
  C   C3852     1.0  0.66039  0.21505  0.89768  1.0000
  C   C3853     1.0  0.67842  0.20007  0.89750  1.0000
  H   H3063     1.0  0.61350  0.24004  0.63076  1.0000
  C   C3854     1.0  0.98251  0.37118  0.62530  1.0000
  C   C3855     1.0  0.98274  0.33479  0.71339  1.0000
  H   H3064     1.0  0.93516  0.19608  0.83967  1.0000
  H   H3065     1.0  0.66819  0.27370  0.93858  1.0000
  C   C3856     1.0  0.68744  0.19306  0.91524  1.0000
  C   C3857     1.0  0.67156  0.26120  0.95115  1.0000
  H   H3066     1.0  0.50640  0.24759  0.52593  1.0000
  C   C3858     1.0  0.75340  0.19580  0.93457  1.0000
  H   H3067     1.0  0.80572  0.36400  0.53104  1.0000
  H   H3068     1.0  0.94670  0.37640  0.69963  1.0000
  H   H3069     1.0  0.95485  0.36274  0.75862  1.0000
  C   C3859     1.0  0.95137  0.18430  0.95850  1.0000
  S   S535      1.0  0.56723  0.21870  0.48759  1.0000
  H   H3070     1.0  0.54622  0.34456  0.53022  1.0000
  Fe  Fe265     1.0  0.69617  0.37678  0.57862  1.0000
  C   C3860     1.0  0.56757  0.24542  0.48316  1.0000
  H   H3071     1.0  0.59920  0.20962  0.65153  1.0000
  H   H3072     1.0  0.63692  0.23429  0.91585  1.0000
  H   H3073     1.0  0.65312  0.21980  0.88412  1.0000
  C   C3861     1.0  0.83245  0.36904  0.60424  1.0000
  C   C3862     1.0  0.79368  0.34830  0.47705  1.0000
  H   H3074     1.0  0.92624  0.20149  0.49631  1.0000
  S   S536      1.0  0.66713  0.38239  0.56527  1.0000
  H   H3075     1.0  0.50409  0.31309  0.51427  1.0000
  H   H3076     1.0  0.74488  0.35375  0.56021  1.0000
  C   C3863     1.0  0.81956  0.22109  0.91340  1.0000
  H   H3077     1.0  0.58257  0.30556  0.57534  1.0000
  C   C3864     1.0  0.81285  0.20298  0.92468  1.0000
  C   C3865     1.0  0.64915  0.31987  0.55135  1.0000
  C   C3866     1.0  0.84078  0.24163  0.47726  1.0000
  H   H3078     1.0  0.60308  0.35150  0.54219  1.0000
  C   C3867     1.0  0.96045  0.19192  0.79797  1.0000
  C   C3868     1.0  0.74013  0.19204  0.92281  1.0000
  H   H3079     1.0  0.61032  0.21372  0.95120  1.0000
  C   C3869     1.0  0.49827  0.23570  0.52462  1.0000
  H   H3080     1.0  0.54252  0.21362  0.73269  1.0000
  H   H3081     1.0  0.80542  0.20242  0.94062  1.0000
  S   S537      1.0  0.55902  0.37515  0.56668  1.0000
  H   H3082     1.0  0.61505  0.23799  0.58625  1.0000
  H   H3083     1.0  0.59422  0.30588  0.49676  1.0000
  C   C3870     1.0  0.91470  0.35611  0.89375  1.0000
  C   C3871     1.0  0.49719  0.20579  0.51039  1.0000
  S   S538      1.0  0.93035  0.37635  0.64258  1.0000
  C   C3872     1.0  0.73150  0.26961  0.52163  1.0000
  C   C3873     1.0  0.73721  0.28426  0.53032  1.0000
  C   C3874     1.0  0.74851  0.29895  0.51784  1.0000
  S   S539      1.0  0.87327  0.25744  0.48432  1.0000
  H   H3084     1.0  0.60726  0.27545  0.58515  1.0000
  H   H3085     1.0  0.83094  0.24973  0.48901  1.0000
  C   C3875     1.0  0.60779  0.30757  0.52251  1.0000
  C   C3876     1.0  0.65367  0.33601  0.53499  1.0000
  C   C3877     1.0  0.67800  0.20099  0.93319  1.0000
  H   H3086     1.0  0.64923  0.23559  0.61074  1.0000
  C   C3878     1.0  0.63144  0.28228  0.55891  1.0000
  C   C3879     1.0  0.95767  0.22672  0.77836  1.0000
  H   H3087     1.0  0.95671  0.24540  0.70274  1.0000
  H   H3088     1.0  0.61412  0.29121  0.52473  1.0000
  H   H3089     1.0  0.66463  0.24505  0.53491  1.0000
  C   C3880     1.0  0.97379  0.27812  0.80929  1.0000
  H   H3090     1.0  0.72271  0.25826  0.53133  1.0000
  H   H3091     1.0  0.73302  0.28420  0.54672  1.0000
  H   H3092     1.0  0.75301  0.31028  0.52450  1.0000
  C   C3881     1.0  0.88795  0.35612  0.85854  1.0000
  H   H3093     1.0  0.96709  0.19218  0.90043  1.0000
  H   H3094     1.0  0.78447  0.32922  0.66000  1.0000
  H   H3095     1.0  0.64348  0.22251  0.56132  1.0000
  H   H3096     1.0  0.71042  0.35121  0.48981  1.0000
  H   H3097     1.0  0.67071  0.20051  0.61165  1.0000
  C   C3882     1.0  0.74873  0.28423  0.48795  1.0000
  C   C3883     1.0  0.55438  0.25812  0.49615  1.0000
  C   C3884     1.0  0.60849  0.31842  0.57877  1.0000
  H   H3098     1.0  0.90441  0.19435  0.89971  1.0000
  C   C3885     1.0  0.64299  0.22220  0.61981  1.0000
  H   H3099     1.0  0.49253  0.29762  0.65240  1.0000
  H   H3100     1.0  0.81995  0.34093  0.57354  1.0000
  C   C3886     1.0  0.97534  0.30406  0.77845  1.0000
  H   H3101     1.0  0.94642  0.35996  0.88040  1.0000
  C   C3887     1.0  0.96967  0.32949  0.84408  1.0000
  H   H3102     1.0  0.82950  0.37159  0.61996  1.0000
  H   H3103     1.0  0.57934  0.34322  0.49076  1.0000
  C   C3888     1.0  0.88724  0.19900  0.80963  1.0000
  C   C3889     1.0  0.60013  0.22344  0.96130  1.0000
  C   C3890     1.0  0.67190  0.34399  0.53258  1.0000
  H   H3104     1.0  0.84162  0.20467  0.86831  1.0000
  H   H3105     1.0  0.56043  0.31523  0.60693  1.0000
  C   C3891     1.0  0.82267  0.35520  0.85559  1.0000
  S   S540      1.0  0.49519  0.19374  0.57470  1.0000
  C   C3892     1.0  0.66334  0.31156  0.56486  1.0000
  H   H3106     1.0  0.57226  0.33561  0.62754  1.0000
  H   H3107     1.0  0.49441  0.35315  0.66441  1.0000
  C   C3893     1.0  0.82779  0.32370  0.68083  1.0000
  H   H3108     1.0  0.96832  0.31096  0.80916  1.0000
  C   C3894     1.0  0.65966  0.26161  0.97075  1.0000
  C   C3895     1.0  0.97726  0.26766  0.69438  1.0000
  H   H3109     1.0  0.97141  0.27397  0.82588  1.0000
  C   C3896     1.0  0.80056  0.32893  0.66063  1.0000
  H   H3110     1.0  0.60700  0.34577  0.61648  1.0000
  C   C3897     1.0  0.84216  0.32720  0.66276  1.0000
  P   P132      1.0  0.90222  0.38015  0.88012  1.0000
  H   H3111     1.0  0.50648  0.20923  0.89423  1.0000
  C   C3898     1.0  0.80704  0.32429  0.67976  1.0000
  H   H3112     1.0  0.79600  0.32121  0.69378  1.0000
  C   C3899     1.0  0.90239  0.34266  0.90711  1.0000
  H   H3113     1.0  0.81490  0.22906  0.96135  1.0000
  H   H3114     1.0  0.76342  0.18846  0.96401  1.0000
  H   H3115     1.0  0.94335  0.19495  0.96875  1.0000
  H   H3116     1.0  0.62997  0.33508  0.58575  1.0000
  C   C3900     1.0  0.92643  0.20104  0.48033  1.0000
  C   C3901     1.0  0.62438  0.24786  0.57491  1.0000
  Fe  Fe266     1.0  0.49417  0.34513  0.57597  1.0000
  H   H3117     1.0  0.86641  0.21677  0.78949  1.0000
  C   C3902     1.0  0.75121  0.37230  0.60271  1.0000
  H   H3118     1.0  0.98630  0.38018  0.67187  1.0000
  C   C3903     1.0  0.51727  0.22082  0.64691  1.0000
  C   C3904     1.0  0.82839  0.36604  0.86850  1.0000
  H   H3119     1.0  0.83653  0.27653  0.58811  1.0000
  P   P133      1.0  0.80635  0.33971  0.61781  1.0000
  S   S541      1.0  0.70967  0.34491  0.59335  1.0000
  C   C3905     1.0  0.60199  0.33640  0.60784  1.0000
  H   H3120     1.0  0.97384  0.27283  0.67892  1.0000
  C   C3906     1.0  0.83313  0.37672  0.73907  1.0000
  C   C3907     1.0  0.58237  0.33085  0.61396  1.0000
  C   C3908     1.0  0.94386  0.35623  0.77119  1.0000
  C   C3909     1.0  0.94143  0.36154  0.79056  1.0000
  C   C3910     1.0  0.92706  0.35341  0.80673  1.0000
  C   C3911     1.0  0.91596  0.33910  0.80387  1.0000
  C   C3912     1.0  0.91884  0.33307  0.78467  1.0000
  C   C3913     1.0  0.93253  0.34217  0.76814  1.0000
  P   P134      1.0  0.90465  0.31411  0.78160  1.0000
  C   C3914     1.0  0.91272  0.28862  0.79562  1.0000
  C   C3915     1.0  0.87745  0.32252  0.79059  1.0000
  C   C3916     1.0  0.86513  0.30860  0.80330  1.0000
  C   C3917     1.0  0.84387  0.31509  0.80912  1.0000
  C   C3918     1.0  0.83479  0.33551  0.80258  1.0000
  C   C3919     1.0  0.84702  0.34960  0.79054  1.0000
  C   C3920     1.0  0.86828  0.34314  0.78448  1.0000
  C   C3921     1.0  0.90723  0.27154  0.79046  1.0000
  C   C3922     1.0  0.91114  0.25195  0.80239  1.0000
  C   C3923     1.0  0.92088  0.24911  0.81937  1.0000
  C   C3924     1.0  0.92683  0.26588  0.82434  1.0000
  C   C3925     1.0  0.92271  0.28564  0.81259  1.0000
  C   C3926     1.0  0.90893  0.31157  0.75491  1.0000
  C   C3927     1.0  0.92840  0.30184  0.74601  1.0000
  C   C3928     1.0  0.93226  0.29979  0.72535  1.0000
  C   C3929     1.0  0.91660  0.30704  0.71352  1.0000
  C   C3930     1.0  0.89706  0.31649  0.72233  1.0000
  C   C3931     1.0  0.89319  0.31882  0.74296  1.0000
  H   H3121     1.0  0.89762  0.36150  0.56339  1.0000
  H   H3122     1.0  0.74189  0.37313  0.59112  1.0000
  H   H3123     1.0  0.92477  0.35799  0.82158  1.0000
  H   H3124     1.0  0.90538  0.33237  0.81672  1.0000
  H   H3125     1.0  0.93482  0.33839  0.75292  1.0000
  H   H3126     1.0  0.87164  0.29273  0.80887  1.0000
  H   H3127     1.0  0.83448  0.30429  0.81896  1.0000
  H   H3128     1.0  0.81829  0.34050  0.80721  1.0000
  H   H3129     1.0  0.83995  0.36555  0.78603  1.0000
  H   H3130     1.0  0.87752  0.35407  0.77479  1.0000
  H   H3131     1.0  0.89899  0.27351  0.77779  1.0000
  H   H3132     1.0  0.90596  0.23911  0.79885  1.0000
  H   H3133     1.0  0.92332  0.23404  0.82898  1.0000
  H   H3134     1.0  0.93415  0.26367  0.83768  1.0000
  H   H3135     1.0  0.92705  0.29839  0.81716  1.0000
  H   H3136     1.0  0.94071  0.29620  0.75496  1.0000
  H   H3137     1.0  0.94756  0.29321  0.71829  1.0000
  H   H3138     1.0  0.91981  0.30572  0.69740  1.0000
  H   H3139     1.0  0.88496  0.32231  0.71309  1.0000
  H   H3140     1.0  0.87794  0.32628  0.74931  1.0000
  C   C3932     1.0  0.93638  0.35013  0.89065  1.0000
  C   C3933     1.0  0.83936  0.35513  0.88424  1.0000
  C   C3934     1.0  0.50865  0.34225  0.49429  1.0000
  H   H3141     1.0  0.50769  0.24964  0.93520  1.0000
  C   C3935     1.0  0.52534  0.32719  0.52397  1.0000
  H   H3142     1.0  0.95086  0.37174  0.79309  1.0000
  C   C3936     1.0  0.59642  0.31580  0.50660  1.0000
  C   C3937     1.0  0.73097  0.32921  0.58087  1.0000
  H   H3143     1.0  0.52430  0.21971  0.91805  1.0000
  C   C3938     1.0  0.51379  0.20985  0.69788  1.0000
  C   C3939     1.0  0.73708  0.26969  0.50045  1.0000
  C   C3940     1.0  0.62287  0.22471  0.63109  1.0000
  H   H3144     1.0  0.93173  0.21083  0.79156  1.0000
  H   H3145     1.0  0.84725  0.33373  0.62983  1.0000
  C   C3941     1.0  0.49950  0.24474  0.92535  1.0000
  C   C3942     1.0  0.87137  0.37058  0.82877  1.0000
  H   H3146     1.0  0.97409  0.25261  0.90934  1.0000
  C   C3943     1.0  0.81479  0.33318  0.64246  1.0000
  H   H3147     1.0  0.77461  0.34810  0.59169  1.0000
  P   P135      1.0  0.49240  0.34019  0.47680  1.0000
  H   H3148     1.0  0.98306  0.29317  0.74995  1.0000
  C   C3944     1.0  0.79379  0.37763  0.53121  1.0000
  C   C3945     1.0  0.89192  0.37572  0.85907  1.0000
  C   C3946     1.0  0.75433  0.29891  0.49677  1.0000
  H   H3149     1.0  0.52800  0.31460  0.53664  1.0000
  H   H3150     1.0  0.73213  0.25858  0.49382  1.0000
  H   H3151     1.0  0.76433  0.20623  0.92777  1.0000
  C   C3947     1.0  0.57562  0.31952  0.60230  1.0000
  C   C3948     1.0  0.49807  0.21813  0.65933  1.0000
  H   H3152     1.0  0.85829  0.32651  0.66357  1.0000
  H   H3153     1.0  0.90643  0.18526  0.83251  1.0000
  C   C3949     1.0  0.51183  0.32632  0.51111  1.0000
  C   C3950     1.0  0.51852  0.35946  0.49109  1.0000
  H   H3154     1.0  0.53687  0.21802  0.61759  1.0000
  C   C3951     1.0  0.87762  0.35365  0.84348  1.0000
  C   C3952     1.0  0.72780  0.18893  0.87619  1.0000
  C   C3953     1.0  0.82971  0.22159  0.89304  1.0000
  H   H3155     1.0  0.95983  0.21924  0.83870  1.0000
  H   H3156     1.0  0.50215  0.27156  0.60308  1.0000
  C   C3954     1.0  0.75283  0.18590  0.95502  1.0000
  C   C3955     1.0  0.53216  0.36020  0.50392  1.0000
  H   H3157     1.0  0.81126  0.36708  0.67305  1.0000
  C   C3956     1.0  0.68144  0.31969  0.56248  1.0000
  C   C3957     1.0  0.61991  0.26931  0.57409  1.0000
  C   C3958     1.0  0.58837  0.31379  0.58450  1.0000
  C   C3959     1.0  0.95960  0.36728  0.70650  1.0000
  C   C3960     1.0  0.50768  0.22121  0.51188  1.0000
  C   C3961     1.0  0.82705  0.35189  0.57813  1.0000
  C   C3962     1.0  0.94544  0.33066  0.90014  1.0000
  C   C3963     1.0  0.93297  0.31710  0.91285  1.0000
  C   C3964     1.0  0.91146  0.32322  0.91652  1.0000
  C   C3965     1.0  0.52128  0.18897  0.69617  1.0000
  C   C3966     1.0  0.61503  0.33023  0.59031  1.0000
  C   C3967     1.0  0.64781  0.27331  0.54499  1.0000
  C   C3968     1.0  0.68564  0.33597  0.54645  1.0000
  S   S542      1.0  0.83160  0.35496  0.48115  1.0000
  H   H3158     1.0  0.70384  0.21525  0.96098  1.0000
  C   C3969     1.0  0.97037  0.37635  0.71698  1.0000
  H   H3159     1.0  0.84376  0.36340  0.89429  1.0000
  C   C3970     1.0  0.97970  0.29263  0.85519  1.0000
  C   C3971     1.0  0.94835  0.20997  0.78945  1.0000
  H   H3160     1.0  0.91590  0.23393  0.96586  1.0000
  H   H3161     1.0  0.93991  0.30171  0.91949  1.0000
  H   H3162     1.0  0.90164  0.31272  0.92616  1.0000
  Fe  Fe267     1.0  0.90343  0.36415  0.63724  1.0000
  C   C3972     1.0  0.96613  0.34666  0.70402  1.0000
  C   C3973     1.0  0.65228  0.25182  0.54596  1.0000
  C   C3974     1.0  0.82357  0.35423  0.59879  1.0000
  H   H3163     1.0  0.89191  0.34286  0.87017  1.0000
  C   C3975     1.0  0.64045  0.23912  0.56083  1.0000
  H   H3164     1.0  0.83615  0.36129  0.74790  1.0000
  C   C3976     1.0  0.53555  0.34407  0.52036  1.0000
  Fe  Fe268     1.0  0.88053  0.36647  0.68114  1.0000
  C   C3977     1.0  0.83577  0.33159  0.64364  1.0000
  C   C3978     1.0  0.72889  0.36147  0.50693  1.0000
  H   H3165     1.0  0.87367  0.33871  0.84377  1.0000
  H   H3166     1.0  0.66007  0.29923  0.57765  1.0000
  H   H3167     1.0  0.69197  0.31380  0.57340  1.0000
  C   C3979     1.0  0.83304  0.20407  0.88387  1.0000
  C   C3980     1.0  0.80525  0.31543  0.61098  1.0000
  C   C3981     1.0  0.78648  0.30792  0.61502  1.0000
  C   C3982     1.0  0.78576  0.28943  0.60898  1.0000
  C   C3983     1.0  0.80371  0.27827  0.59903  1.0000
  C   C3984     1.0  0.82255  0.28524  0.59574  1.0000
  C   C3985     1.0  0.82336  0.30363  0.60190  1.0000
  H   H3168     1.0  0.98783  0.31877  0.71169  1.0000
  H   H3169     1.0  0.54425  0.25150  0.50943  1.0000
  Fe  Fe269     1.0  0.58666  0.18536  0.93494  1.0000
  H   H3170     1.0  0.86249  0.36876  0.81779  1.0000
  C   C3986     1.0  0.58790  0.33685  0.50329  1.0000
  H   H3171     1.0  0.96209  0.32572  0.89690  1.0000
  C   C3987     1.0  0.97157  0.24600  0.72796  1.0000
  H   H3172     1.0  0.51686  0.23491  0.71213  1.0000
  C   C3988     1.0  0.89459  0.19792  0.82788  1.0000
  C   C3989     1.0  0.59038  0.34962  0.51614  1.0000
  H   H3173     1.0  0.77233  0.31636  0.62256  1.0000
  H   H3174     1.0  0.77119  0.28394  0.61162  1.0000
  H   H3175     1.0  0.80298  0.26436  0.59364  1.0000
  S   S543      1.0  0.90503  0.37972  0.68944  1.0000
  H   H3176     1.0  0.54046  0.37300  0.50091  1.0000
  C   C3990     1.0  0.84556  0.38047  0.58941  1.0000
  C   C3991     1.0  0.97869  0.26254  0.79737  1.0000
  H   H3177     1.0  0.84317  0.36104  0.54747  1.0000
  C   C3992     1.0  0.83992  0.36355  0.56326  1.0000
  C   C3993     1.0  0.49917  0.27015  0.47771  1.0000
  C   C3994     1.0  0.84936  0.37765  0.56895  1.0000
  H   H3178     1.0  0.51611  0.37207  0.47843  1.0000
  H   H3179     1.0  0.93709  0.37995  0.84610  1.0000
  Fe  Fe270     1.0  0.49193  0.35993  0.61618  1.0000
  C   C3995     1.0  0.81621  0.18541  0.91559  1.0000
  C   C3996     1.0  0.49439  0.31295  0.47661  1.0000
  C   C3997     1.0  0.98229  0.26757  0.77579  1.0000
  H   H3180     1.0  0.79213  0.37840  0.56321  1.0000
  C   C3998     1.0  0.49247  0.26560  0.66635  1.0000
  H   H3181     1.0  0.50907  0.20427  0.96326  1.0000
  H   H3182     1.0  0.78434  0.36989  0.64413  1.0000
  C   C3999     1.0  0.73987  0.37681  0.50756  1.0000
  C   C4000     1.0  0.82578  0.18600  0.89492  1.0000
  H   H3183     1.0  0.98533  0.35159  0.65463  1.0000
  C   C4001     1.0  0.60854  0.23420  0.97245  1.0000
  H   H3184     1.0  0.50106  0.25364  0.47817  1.0000
  H   H3185     1.0  0.58840  0.18382  0.72731  1.0000
  H   H3186     1.0  0.49794  0.26040  0.65173  1.0000
  H   H3187     1.0  0.56107  0.38076  0.60827  1.0000
  H   H3188     1.0  0.72187  0.20403  0.88043  1.0000
  H   H3189     1.0  0.62510  0.23251  0.97110  1.0000
  H   H3190     1.0  0.74708  0.37519  0.52082  1.0000
  H   H3191     1.0  0.81218  0.19610  0.85334  1.0000
  H   H3192     1.0  0.56076  0.18336  0.61569  1.0000
  C   C4002     1.0  0.83991  0.38006  0.71771  1.0000
  C   C4003     1.0  0.98791  0.25931  0.90737  1.0000
  C   C4004     1.0  0.82922  0.19859  0.97438  1.0000
  C   C4005     1.0  0.98191  0.19039  0.79513  1.0000
  C   C4006     1.0  0.87647  0.18421  0.91632  1.0000
  C   C4007     1.0  0.97934  0.22510  0.77481  1.0000
  H   H3193     1.0  0.59507  0.18406  0.62257  1.0000
  C   C4008     1.0  0.98876  0.27338  0.91965  1.0000
  H   H3194     1.0  0.77565  0.24587  0.47893  1.0000
  C   C4009     1.0  0.48943  0.28684  0.66662  1.0000
  C   C4010     1.0  0.91488  0.18834  0.47529  1.0000
  Fe  Fe271     1.0  0.54425  0.55558  0.17148  1.0000
  S   S544      1.0  0.54880  0.52094  0.17558  1.0000
  C   C4011     1.0  0.61769  0.52610  0.45007  1.0000
  C   C4012     1.0  0.54383  0.58230  0.42027  1.0000
  Fe  Fe272     1.0  0.62184  0.50390  0.32306  1.0000
  S   S545      1.0  0.58884  0.50937  0.33905  1.0000
  S   S546      1.0  0.64151  0.47315  0.33329  1.0000
  Fe  Fe273     1.0  0.61441  0.54197  0.29034  1.0000
  S   S547      1.0  0.58076  0.55007  0.30345  1.0000
  H   H3195     1.0  0.69835  0.42283  0.21269  1.0000
  Fe  Fe274     1.0  0.59173  0.54291  0.33373  1.0000
  S   S548      1.0  0.57539  0.56166  0.35856  1.0000
  Fe  Fe275     1.0  0.58070  0.51587  0.30754  1.0000
  S   S549      1.0  0.55370  0.50149  0.30534  1.0000
  S   S550      1.0  0.62571  0.53689  0.32053  1.0000
  S   S551      1.0  0.61353  0.50848  0.29161  1.0000
  Fe  Fe276     1.0  0.73827  0.42628  0.37671  1.0000
  S   S552      1.0  0.75311  0.41479  0.34712  1.0000
  S   S553      1.0  0.71932  0.45843  0.37752  1.0000
  C   C4013     1.0  0.54194  0.47461  0.02241  1.0000
  C   C4014     1.0  0.81912  0.38492  0.31789  1.0000
  H   H3196     1.0  0.64580  0.55063  0.97732  1.0000
  C   C4015     1.0  0.60075  0.50858  0.98276  1.0000
  C   C4016     1.0  0.96400  0.54128  0.09722  1.0000
  H   H3197     1.0  0.97573  0.54986  0.15242  1.0000
  S   S554      1.0  0.76709  0.41616  0.39086  1.0000
  S   S555      1.0  0.72540  0.39747  0.39203  1.0000
  Fe  Fe277     1.0  0.62291  0.45948  0.10171  1.0000
  S   S556      1.0  0.64819  0.45643  0.11957  1.0000
  S   S557      1.0  0.60074  0.48926  0.09530  1.0000
  Fe  Fe278     1.0  0.63627  0.41550  0.09225  1.0000
  S   S558      1.0  0.66327  0.40882  0.10942  1.0000
  Fe  Fe279     1.0  0.64022  0.42498  0.13307  1.0000
  Fe  Fe280     1.0  0.66918  0.44107  0.09465  1.0000
  S   S559      1.0  0.70029  0.45049  0.07880  1.0000
  S   S560      1.0  0.61295  0.42940  0.11711  1.0000
  S   S561      1.0  0.64421  0.44640  0.07564  1.0000
  H   H3198     1.0  0.77595  0.43787  0.17399  1.0000
  Fe  Fe281     1.0  0.75889  0.53872  0.08974  1.0000
  H   H3199     1.0  0.62373  0.52729  0.43374  1.0000
  S   S562      1.0  0.73364  0.52032  0.10751  1.0000
  Fe  Fe282     1.0  0.79466  0.54836  0.05554  1.0000
  H   H3200     1.0  0.92588  0.51822  0.18462  1.0000
  S   S563      1.0  0.81726  0.53574  0.02954  1.0000
  Fe  Fe283     1.0  0.79445  0.55829  0.09734  1.0000
  C   C4017     1.0  0.61938  0.57203  0.24124  1.0000
  H   H3201     1.0  0.84955  0.52833  0.99610  1.0000
  H   H3202     1.0  0.51840  0.39907  0.06244  1.0000
  S   S564      1.0  0.79348  0.52866  0.08719  1.0000
  S   S565      1.0  0.75996  0.55621  0.05727  1.0000
  Fe  Fe284     1.0  0.54700  0.40382  0.25982  1.0000
  C   C4018     1.0  0.98555  0.56673  0.98235  1.0000
  S   S566      1.0  0.55797  0.43473  0.25052  1.0000
  H   H3203     1.0  0.62673  0.43384  0.35992  1.0000
  S   S567      1.0  0.54179  0.39139  0.23332  1.0000
  C   C4019     1.0  0.84442  0.57341  0.13231  1.0000
  C   C4020     1.0  0.68802  0.44736  0.45506  1.0000
  H   H3204     1.0  0.66926  0.46121  0.25832  1.0000
  H   H3205     1.0  0.56863  0.54592  0.01998  1.0000
  H   H3206     1.0  0.53585  0.55525  0.04324  1.0000
  C   C4021     1.0  0.50685  0.52985  0.22036  1.0000
  H   H3207     1.0  0.59014  0.56178  0.25343  1.0000
  C   C4022     1.0  0.58864  0.43348  0.34629  1.0000
  C   C4023     1.0  0.75915  0.43694  0.07638  1.0000
  Fe  Fe285     1.0  0.78107  0.40235  0.36241  1.0000
  C   C4024     1.0  0.91858  0.38445  0.36126  1.0000
  C   C4025     1.0  0.70974  0.46972  0.08687  1.0000
  C   C4026     1.0  0.70168  0.47554  0.10603  1.0000
  C   C4027     1.0  0.70932  0.49087  0.11210  1.0000
  C   C4028     1.0  0.72507  0.50068  0.09912  1.0000
  C   C4029     1.0  0.73335  0.49474  0.07998  1.0000
  C   C4030     1.0  0.72564  0.47938  0.07387  1.0000
  H   H3208     1.0  0.68956  0.46819  0.11618  1.0000
  H   H3209     1.0  0.70278  0.49515  0.12691  1.0000
  H   H3210     1.0  0.74555  0.50206  0.06985  1.0000
  H   H3211     1.0  0.73195  0.47502  0.05898  1.0000
  C   C4031     1.0  0.49123  0.40068  0.18704  1.0000
  C   C4032     1.0  0.60874  0.40364  0.19926  1.0000
  C   C4033     1.0  0.66859  0.47616  0.26229  1.0000
  H   H3212     1.0  0.60680  0.41828  0.20434  1.0000
  C   C4034     1.0  0.54030  0.43985  0.04131  1.0000
  H   H3213     1.0  0.54572  0.48498  0.00805  1.0000
  H   H3214     1.0  0.56024  0.40437  0.10107  1.0000
  C   C4035     1.0  0.49608  0.46338  0.28297  1.0000
  C   C4036     1.0  0.76038  0.53332  0.97613  1.0000
  C   C4037     1.0  0.80556  0.41728  0.44351  1.0000
  S   S568      1.0  0.81099  0.56195  0.12243  1.0000
  Fe  Fe286     1.0  0.75575  0.38617  0.40322  1.0000
  C   C4038     1.0  0.50690  0.38356  0.18433  1.0000
  C   C4039     1.0  0.58685  0.45282  0.33349  1.0000
  C   C4040     1.0  0.55765  0.48078  0.29181  1.0000
  C   C4041     1.0  0.54514  0.46547  0.29867  1.0000
  C   C4042     1.0  0.54641  0.45005  0.28697  1.0000
  C   C4043     1.0  0.55943  0.45054  0.26783  1.0000
  C   C4044     1.0  0.57238  0.46549  0.26124  1.0000
  C   C4045     1.0  0.57180  0.48031  0.27339  1.0000
  H   H3215     1.0  0.53425  0.46567  0.31297  1.0000
  H   H3216     1.0  0.53659  0.43843  0.29229  1.0000
  H   H3217     1.0  0.58249  0.46594  0.24644  1.0000
  H   H3218     1.0  0.58152  0.49201  0.26806  1.0000
  C   C4046     1.0  0.66292  0.47002  0.34570  1.0000
  C   C4047     1.0  0.66867  0.48656  0.35145  1.0000
  C   C4048     1.0  0.68604  0.48302  0.36126  1.0000
  C   C4049     1.0  0.69777  0.46302  0.36504  1.0000
  C   C4050     1.0  0.69189  0.44660  0.35932  1.0000
  C   C4051     1.0  0.67449  0.45011  0.34984  1.0000
  H   H3219     1.0  0.65974  0.50196  0.34843  1.0000
  H   H3220     1.0  0.69049  0.49576  0.36578  1.0000
  H   H3221     1.0  0.70061  0.43110  0.36239  1.0000
  H   H3222     1.0  0.66983  0.43722  0.34593  1.0000
  C   C4052     1.0  0.94600  0.50429  0.15995  1.0000
  H   H3223     1.0  0.53189  0.47303  0.23835  1.0000
  H   H3224     1.0  0.92660  0.39755  0.35664  1.0000
  C   C4053     1.0  0.76430  0.40175  0.16806  1.0000
  H   H3225     1.0  0.55160  0.44708  0.00877  1.0000
  C   C4054     1.0  0.66941  0.49621  0.28800  1.0000
  H   H3226     1.0  0.60441  0.55204  0.99934  1.0000
  H   H3227     1.0  0.73247  0.51676  0.20434  1.0000
  H   H3228     1.0  0.49363  0.51796  0.19999  1.0000
  C   C4055     1.0  0.56191  0.51169  0.15301  1.0000
  C   C4056     1.0  0.56050  0.52387  0.13363  1.0000
  C   C4057     1.0  0.57187  0.51650  0.11586  1.0000
  C   C4058     1.0  0.58522  0.49734  0.11750  1.0000
  C   C4059     1.0  0.58630  0.48500  0.13682  1.0000
  C   C4060     1.0  0.57434  0.49205  0.15448  1.0000
  H   H3229     1.0  0.55077  0.53901  0.13238  1.0000
  H   H3230     1.0  0.57087  0.52596  0.10088  1.0000
  H   H3231     1.0  0.59660  0.47019  0.13823  1.0000
  H   H3232     1.0  0.57567  0.48279  0.16942  1.0000
  H   H3233     1.0  0.74930  0.43308  0.06740  1.0000
  C   C4061     1.0  0.59690  0.58187  0.02374  1.0000
  S   S569      1.0  0.54380  0.57171  0.19764  1.0000
  C   C4062     1.0  0.68818  0.50189  0.99400  1.0000
  C   C4063     1.0  0.52495  0.48884  0.23312  1.0000
  H   H3234     1.0  0.67067  0.49689  0.30359  1.0000
  H   H3235     1.0  0.98174  0.51463  0.19333  1.0000
  H   H3236     1.0  0.80316  0.45672  0.07061  1.0000
  H   H3237     1.0  0.96366  0.56517  0.04752  1.0000
  C   C4064     1.0  0.64767  0.44233  0.21017  1.0000
  C   C4065     1.0  0.66624  0.42820  0.20960  1.0000
  H   H3238     1.0  0.63399  0.43794  0.20730  1.0000
  H   H3239     1.0  0.66687  0.41296  0.20619  1.0000
  H   H3240     1.0  0.66482  0.52929  0.27835  1.0000
  H   H3241     1.0  0.57833  0.56080  0.09941  1.0000
  P   P136      1.0  0.75883  0.43651  0.13740  1.0000
  C   C4066     1.0  0.60309  0.54213  0.98915  1.0000
  H   H3242     1.0  0.64965  0.40036  0.36942  1.0000
  C   C4067     1.0  0.53400  0.48253  0.04058  1.0000
  C   C4068     1.0  0.62277  0.50732  0.46307  1.0000
  C   C4069     1.0  0.96773  0.53694  0.15445  1.0000
  H   H3243     1.0  0.49386  0.49634  0.27484  1.0000
  H   H3244     1.0  0.53777  0.50106  0.25380  1.0000
  H   H3245     1.0  0.95300  0.53719  0.11096  1.0000
  C   C4070     1.0  0.68635  0.51565  0.97553  1.0000
  C   C4071     1.0  0.84229  0.54439  0.99278  1.0000
  C   C4072     1.0  0.75336  0.43467  0.09776  1.0000
  H   H3246     1.0  0.52189  0.53747  0.24233  1.0000
  C   C4073     1.0  0.77225  0.41918  0.46653  1.0000
  H   H3247     1.0  0.50915  0.46026  0.27085  1.0000
  C   C4074     1.0  0.98547  0.53716  0.09725  1.0000
  C   C4075     1.0  0.95625  0.55138  0.07934  1.0000
  C   C4076     1.0  0.59937  0.58234  0.08741  1.0000
  C   C4077     1.0  0.95029  0.53547  0.16993  1.0000
  C   C4078     1.0  0.49697  0.43088  0.08786  1.0000
  C   C4079     1.0  0.77703  0.44494  0.06658  1.0000
  C   C4080     1.0  0.68991  0.57802  0.06440  1.0000
  S   S570      1.0  0.51920  0.39248  0.28069  1.0000
  H   H3248     1.0  0.64996  0.39231  0.45334  1.0000
  H   H3249     1.0  0.70095  0.44300  0.46333  1.0000
  H   H3250     1.0  0.50001  0.54579  0.21530  1.0000
  C   C4081     1.0  0.79613  0.42975  0.42751  1.0000
  C   C4082     1.0  0.77486  0.43723  0.43099  1.0000
  C   C4083     1.0  0.76298  0.43198  0.45034  1.0000
  H   H3251     1.0  0.79365  0.45196  0.10837  1.0000
  H   H3252     1.0  0.50527  0.54173  0.35157  1.0000
  C   C4084     1.0  0.73129  0.43685  0.14554  1.0000
  C   C4085     1.0  0.65906  0.56585  0.41024  1.0000
  H   H3253     1.0  0.80523  0.43338  0.41232  1.0000
  H   H3254     1.0  0.76748  0.44682  0.41854  1.0000
  H   H3255     1.0  0.74651  0.43799  0.45261  1.0000
  H   H3256     1.0  0.49550  0.43114  0.29511  1.0000
  C   C4086     1.0  0.54525  0.45328  0.02282  1.0000
  C   C4087     1.0  0.66451  0.46805  0.21755  1.0000
  C   C4088     1.0  0.68851  0.50311  0.18306  1.0000
  C   C4089     1.0  0.49352  0.44089  0.23936  1.0000
  C   C4090     1.0  0.61483  0.40577  0.27748  1.0000
  C   C4091     1.0  0.52905  0.45367  0.20036  1.0000
  C   C4092     1.0  0.52600  0.43580  0.19451  1.0000
  C   C4093     1.0  0.54288  0.42201  0.18631  1.0000
  C   C4094     1.0  0.56294  0.42600  0.18379  1.0000
  C   C4095     1.0  0.56615  0.44370  0.18962  1.0000
  C   C4096     1.0  0.54926  0.45762  0.19773  1.0000
  H   H3257     1.0  0.60091  0.41220  0.28716  1.0000
  H   H3258     1.0  0.96146  0.39123  0.25193  1.0000
  C   C4097     1.0  0.68640  0.50268  0.20428  1.0000
  H   H3259     1.0  0.52019  0.49903  0.16981  1.0000
  H   H3260     1.0  0.55262  0.38703  0.31927  1.0000
  C   C4098     1.0  0.64619  0.41200  0.37916  1.0000
  H   H3261     1.0  0.51052  0.43259  0.19626  1.0000
  H   H3262     1.0  0.54048  0.40805  0.18222  1.0000
  H   H3263     1.0  0.57602  0.41525  0.17750  1.0000
  H   H3264     1.0  0.58177  0.44665  0.18781  1.0000
  H   H3265     1.0  0.55206  0.47151  0.20164  1.0000
  C   C4099     1.0  0.65504  0.40844  0.39681  1.0000
  C   C4100     1.0  0.63314  0.43074  0.37392  1.0000
  C   C4101     1.0  0.62922  0.44606  0.38609  1.0000
  C   C4102     1.0  0.63825  0.44268  0.40376  1.0000
  C   C4103     1.0  0.65085  0.42352  0.40924  1.0000
  P   P137      1.0  0.63295  0.46206  0.42003  1.0000
  C   C4104     1.0  0.60911  0.45924  0.43795  1.0000
  C   C4105     1.0  0.65437  0.45741  0.43384  1.0000
  C   C4106     1.0  0.50342  0.51400  0.21158  1.0000
  H   H3266     1.0  0.50722  0.50997  0.13701  1.0000
  C   C4107     1.0  0.65096  0.45412  0.45543  1.0000
  C   C4108     1.0  0.82895  0.39222  0.33056  1.0000
  C   C4109     1.0  0.67482  0.45533  0.42302  1.0000
  C   C4110     1.0  0.59626  0.47661  0.44514  1.0000
  C   C4111     1.0  0.96979  0.55735  0.06131  1.0000
  C   C4112     1.0  0.57203  0.45503  0.46577  1.0000
  C   C4113     1.0  0.58484  0.43767  0.45890  1.0000
  C   C4114     1.0  0.60338  0.43968  0.44513  1.0000
  C   C4115     1.0  0.62998  0.48779  0.40457  1.0000
  C   C4116     1.0  0.61149  0.49607  0.39680  1.0000
  C   C4117     1.0  0.60866  0.51605  0.38529  1.0000
  C   C4118     1.0  0.62419  0.52801  0.38137  1.0000
  C   C4119     1.0  0.64263  0.51997  0.38901  1.0000
  C   C4120     1.0  0.64555  0.49996  0.40058  1.0000
  H   H3267     1.0  0.61957  0.46059  0.38122  1.0000
  H   H3268     1.0  0.65765  0.42015  0.42302  1.0000
  H   H3269     1.0  0.82204  0.41128  0.44075  1.0000
  H   H3270     1.0  0.96781  0.49444  0.13422  1.0000
  C   C4121     1.0  0.97434  0.52209  0.14154  1.0000
  C   C4122     1.0  0.85069  0.38875  0.32760  1.0000
  H   H3271     1.0  0.67784  0.45707  0.40639  1.0000
  H   H3272     1.0  0.60036  0.49183  0.43994  1.0000
  C   C4123     1.0  0.54088  0.56410  0.27702  1.0000
  C   C4124     1.0  0.80184  0.38356  0.14672  1.0000
  H   H3273     1.0  0.85832  0.39461  0.33721  1.0000
  H   H3274     1.0  0.61313  0.42593  0.44015  1.0000
  H   H3275     1.0  0.59925  0.48704  0.39953  1.0000
  H   H3276     1.0  0.59446  0.52222  0.37915  1.0000
  H   H3277     1.0  0.62195  0.54340  0.37216  1.0000
  H   H3278     1.0  0.65485  0.52911  0.38564  1.0000
  H   H3279     1.0  0.66006  0.49409  0.40606  1.0000
  C   C4125     1.0  0.93947  0.51916  0.17272  1.0000
  P   P138      1.0  0.63433  0.39775  0.31183  1.0000
  S   S571      1.0  0.79785  0.57712  0.06554  1.0000
  C   C4126     1.0  0.60331  0.41687  0.33992  1.0000
  C   C4127     1.0  0.53784  0.40448  0.08205  1.0000
  C   C4128     1.0  0.72210  0.51341  0.17731  1.0000
  C   C4129     1.0  0.64675  0.46215  0.21418  1.0000
  C   C4130     1.0  0.77928  0.52918  0.00411  1.0000
  C   C4131     1.0  0.59782  0.38832  0.21119  1.0000
  C   C4132     1.0  0.65084  0.38895  0.27241  1.0000
  C   C4133     1.0  0.60223  0.53507  0.20883  1.0000
  H   H3280     1.0  0.67631  0.49941  0.17690  1.0000
  H   H3281     1.0  0.50371  0.43348  0.12621  1.0000
  C   C4134     1.0  0.66618  0.51444  0.27378  1.0000
  H   H3282     1.0  0.66999  0.57424  0.37773  1.0000
  C   C4135     1.0  0.72017  0.51299  0.19839  1.0000
  H   H3283     1.0  0.70807  0.50866  0.15335  1.0000
  C   C4136     1.0  0.49597  0.48147  0.18479  1.0000
  H   H3284     1.0  0.58822  0.51588  0.23559  1.0000
  H   H3285     1.0  0.54557  0.55208  0.26767  1.0000
  H   H3286     1.0  0.50889  0.43187  0.23613  1.0000
  C   C4137     1.0  0.70635  0.50837  0.16969  1.0000
  H   H3287     1.0  0.58039  0.42255  0.46417  1.0000
  H   H3288     1.0  0.84464  0.55862  0.08710  1.0000
  C   C4138     1.0  0.66066  0.39884  0.31340  1.0000
  H   H3289     1.0  0.58757  0.54423  0.20547  1.0000
  C   C4139     1.0  0.62218  0.40002  0.18101  1.0000
  H   H3290     1.0  0.53012  0.56387  0.40614  1.0000
  H   H3291     1.0  0.70576  0.49074  0.01863  1.0000
  H   H3292     1.0  0.53163  0.49906  0.04028  1.0000
  C   C4140     1.0  0.64014  0.51072  0.21674  1.0000
  C   C4141     1.0  0.68310  0.45366  0.21711  1.0000
  C   C4142     1.0  0.57778  0.47451  0.45893  1.0000
  H   H3293     1.0  0.80356  0.57972  0.01325  1.0000
  C   C4143     1.0  0.86482  0.57753  0.12868  1.0000
  C   C4144     1.0  0.51924  0.52519  0.23554  1.0000
  H   H3294     1.0  0.60664  0.38594  0.13509  1.0000
  C   C4145     1.0  0.82574  0.55253  0.00688  1.0000
  H   H3295     1.0  0.56786  0.48806  0.46407  1.0000
  C   C4146     1.0  0.54590  0.54059  0.04714  1.0000
  H   H3296     1.0  0.51896  0.50896  0.33817  1.0000
  C   C4147     1.0  0.63994  0.45312  0.02595  1.0000
  C   C4148     1.0  0.62573  0.43993  0.02826  1.0000
  C   C4149     1.0  0.60463  0.44804  0.02936  1.0000
  C   C4150     1.0  0.59774  0.46938  0.02803  1.0000
  C   C4151     1.0  0.61186  0.48274  0.02613  1.0000
  C   C4152     1.0  0.63306  0.47443  0.02500  1.0000
  P   P139      1.0  0.60296  0.51043  0.02335  1.0000
  C   C4153     1.0  0.57780  0.51642  0.03907  1.0000
  C   C4154     1.0  0.54063  0.52750  0.06575  1.0000
  C   C4155     1.0  0.55373  0.50877  0.07094  1.0000
  C   C4156     1.0  0.57213  0.50319  0.05760  1.0000
  C   C4157     1.0  0.62095  0.52252  0.03134  1.0000
  C   C4158     1.0  0.63907  0.52679  0.01769  1.0000
  C   C4159     1.0  0.65209  0.53798  0.02277  1.0000
  C   C4160     1.0  0.64725  0.54479  0.04164  1.0000
  C   C4161     1.0  0.62970  0.53991  0.05565  1.0000
  C   C4162     1.0  0.61661  0.52875  0.05062  1.0000
  H   H3297     1.0  0.63107  0.42334  0.02958  1.0000
  H   H3298     1.0  0.59367  0.43766  0.03146  1.0000
  H   H3299     1.0  0.58141  0.47543  0.02866  1.0000
  H   H3300     1.0  0.64431  0.48423  0.02371  1.0000
  H   H3301     1.0  0.64386  0.55902  0.44157  1.0000
  H   H3302     1.0  0.55006  0.49881  0.08562  1.0000
  H   H3303     1.0  0.58233  0.48887  0.06217  1.0000
  H   H3304     1.0  0.64288  0.52183  0.00291  1.0000
  H   H3305     1.0  0.66565  0.54190  0.01183  1.0000
  H   H3306     1.0  0.65716  0.55374  0.04545  1.0000
  H   H3307     1.0  0.62630  0.54471  0.07047  1.0000
  H   H3308     1.0  0.60309  0.52523  0.06175  1.0000
  C   C4163     1.0  0.71827  0.45375  0.15343  1.0000
  C   C4164     1.0  0.69703  0.45366  0.15978  1.0000
  C   C4165     1.0  0.68864  0.43682  0.15820  1.0000
  C   C4166     1.0  0.76627  0.45702  0.14632  1.0000
  C   C4167     1.0  0.76423  0.47711  0.13473  1.0000
  C   C4168     1.0  0.77052  0.49297  0.14109  1.0000
  C   C4169     1.0  0.77872  0.48897  0.15920  1.0000
  C   C4170     1.0  0.78047  0.46910  0.17105  1.0000
  C   C4171     1.0  0.77427  0.45315  0.16467  1.0000
  H   H3309     1.0  0.72437  0.46712  0.15448  1.0000
  H   H3310     1.0  0.68695  0.46670  0.16570  1.0000
  H   H3311     1.0  0.67218  0.43686  0.16286  1.0000
  H   H3312     1.0  0.75802  0.48047  0.12060  1.0000
  H   H3313     1.0  0.76916  0.50837  0.13183  1.0000
  H   H3314     1.0  0.78384  0.50125  0.16394  1.0000
  H   H3315     1.0  0.78688  0.46599  0.18509  1.0000
  H   H3316     1.0  0.58757  0.39131  0.22531  1.0000
  C   C4172     1.0  0.71882  0.51458  0.99604  1.0000
  C   C4173     1.0  0.55950  0.54772  0.41420  1.0000
  C   C4174     1.0  0.57651  0.54872  0.42270  1.0000
  S   S572      1.0  0.75966  0.56668  0.10281  1.0000
  H   H3317     1.0  0.50011  0.49752  0.31644  1.0000
  H   H3318     1.0  0.55932  0.53429  0.40775  1.0000
  H   H3319     1.0  0.58922  0.53579  0.42294  1.0000
  C   C4175     1.0  0.60517  0.54318  0.45811  1.0000
  C   C4176     1.0  0.71732  0.52821  0.97727  1.0000
  C   C4177     1.0  0.62077  0.53968  0.19650  1.0000
  H   H3320     1.0  0.78121  0.44711  0.04997  1.0000
  C   C4178     1.0  0.62641  0.55512  0.11135  1.0000
  C   C4179     1.0  0.60714  0.55033  0.11094  1.0000
  P   P140      1.0  0.64570  0.53610  0.12298  1.0000
  C   C4180     1.0  0.63492  0.51753  0.14374  1.0000
  C   C4181     1.0  0.65928  0.52347  0.10168  1.0000
  C   C4182     1.0  0.65055  0.50847  0.09639  1.0000
  C   C4183     1.0  0.65959  0.49980  0.07885  1.0000
  C   C4184     1.0  0.67726  0.50621  0.06627  1.0000
  C   C4185     1.0  0.68576  0.52150  0.07112  1.0000
  C   C4186     1.0  0.67667  0.53028  0.08864  1.0000
  C   C4187     1.0  0.61601  0.52333  0.15641  1.0000
  C   C4188     1.0  0.60738  0.50862  0.17190  1.0000
  C   C4189     1.0  0.61763  0.48812  0.17501  1.0000
  C   C4190     1.0  0.63677  0.48235  0.16288  1.0000
  C   C4191     1.0  0.64552  0.49704  0.14741  1.0000
  C   C4192     1.0  0.66023  0.54956  0.13386  1.0000
  C   C4193     1.0  0.76154  0.53736  0.99539  1.0000
  H   H3321     1.0  0.66520  0.39401  0.40092  1.0000
  H   H3322     1.0  0.67764  0.40194  0.46695  1.0000
  C   C4194     1.0  0.69283  0.55510  0.14020  1.0000
  C   C4195     1.0  0.68179  0.54402  0.13226  1.0000
  C   C4196     1.0  0.87811  0.57450  0.11017  1.0000
  C   C4197     1.0  0.72274  0.41978  0.14442  1.0000
  C   C4198     1.0  0.66772  0.44939  0.46596  1.0000
  H   H3323     1.0  0.57287  0.40965  0.13437  1.0000
  H   H3324     1.0  0.60284  0.53579  0.11920  1.0000
  H   H3325     1.0  0.63647  0.50371  0.10559  1.0000
  H   H3326     1.0  0.65283  0.48815  0.07497  1.0000
  H   H3327     1.0  0.68450  0.49907  0.05298  1.0000
  H   H3328     1.0  0.69966  0.52622  0.06151  1.0000
  H   H3329     1.0  0.68325  0.54232  0.09191  1.0000
  H   H3330     1.0  0.60776  0.53912  0.15424  1.0000
  H   H3331     1.0  0.59245  0.51303  0.18124  1.0000
  H   H3332     1.0  0.61054  0.47665  0.18661  1.0000
  H   H3333     1.0  0.64447  0.46635  0.16515  1.0000
  H   H3334     1.0  0.66027  0.49225  0.13797  1.0000
  C   C4199     1.0  0.59347  0.56417  0.09932  1.0000
  C   C4200     1.0  0.70248  0.50752  0.21186  1.0000
  H   H3335     1.0  0.66131  0.52797  0.24306  1.0000
  H   H3336     1.0  0.70958  0.55094  0.13844  1.0000
  H   H3337     1.0  0.69013  0.53121  0.12484  1.0000
  H   H3338     1.0  0.71806  0.40058  0.31467  1.0000
  H   H3339     1.0  0.93742  0.49179  0.16193  1.0000
  H   H3340     1.0  0.73581  0.51762  0.16684  1.0000
  H   H3341     1.0  0.90443  0.39143  0.33414  1.0000
  H   H3342     1.0  0.74871  0.54682  0.00371  1.0000
  P   P141      1.0  0.52462  0.43068  0.08356  1.0000
  C   C4201     1.0  0.53197  0.44769  0.05962  1.0000
  C   C4202     1.0  0.53133  0.43970  0.10431  1.0000
  C   C4203     1.0  0.55004  0.44711  0.10140  1.0000
  C   C4204     1.0  0.55518  0.45444  0.11725  1.0000
  C   C4205     1.0  0.54180  0.45433  0.13616  1.0000
  C   C4206     1.0  0.52329  0.44671  0.13928  1.0000
  C   C4207     1.0  0.51807  0.43937  0.12345  1.0000
  C   C4208     1.0  0.64973  0.56580  0.14432  1.0000
  C   C4209     1.0  0.83693  0.56661  0.11735  1.0000
  H   H3343     1.0  0.71594  0.56778  0.08035  1.0000
  H   H3344     1.0  0.57537  0.46569  0.33825  1.0000
  H   H3345     1.0  0.65625  0.44667  0.02553  1.0000
  S   S573      1.0  0.81460  0.40549  0.35036  1.0000
  H   H3346     1.0  0.56076  0.44711  0.08692  1.0000
  H   H3347     1.0  0.56965  0.46014  0.11489  1.0000
  H   H3348     1.0  0.54586  0.46006  0.14841  1.0000
  H   H3349     1.0  0.51299  0.44653  0.15399  1.0000
  C   C4210     1.0  0.67038  0.47712  0.28233  1.0000
  H   H3350     1.0  0.67219  0.46316  0.29371  1.0000
  H   H3351     1.0  0.73249  0.40651  0.13851  1.0000
  C   C4211     1.0  0.64819  0.39257  0.46958  1.0000
  C   C4212     1.0  0.79369  0.41190  0.46288  1.0000
  S   S574      1.0  0.62700  0.39833  0.07068  1.0000
  C   C4213     1.0  0.65655  0.57298  0.38978  1.0000
  C   C4214     1.0  0.70430  0.50148  0.00434  1.0000
  H   H3352     1.0  0.52738  0.54415  0.30347  1.0000
  C   C4215     1.0  0.63155  0.39646  0.24444  1.0000
  H   H3353     1.0  0.51749  0.57138  0.32539  1.0000
  H   H3354     1.0  0.78006  0.53241  0.01896  1.0000
  H   H3355     1.0  0.94502  0.54713  0.17969  1.0000
  C   C4216     1.0  0.61403  0.40523  0.25707  1.0000
  C   C4217     1.0  0.57326  0.39323  0.13990  1.0000
  C   C4218     1.0  0.49354  0.51178  0.32224  1.0000
  C   C4219     1.0  0.62151  0.50705  0.22987  1.0000
  C   C4220     1.0  0.57729  0.56656  0.43010  1.0000
  H   H3356     1.0  0.70162  0.50689  0.22815  1.0000
  C   C4221     1.0  0.97550  0.38571  0.25848  1.0000
  C   C4222     1.0  0.76556  0.44019  0.10960  1.0000
  C   C4223     1.0  0.52910  0.46915  0.05912  1.0000
  S   S575      1.0  0.63096  0.56151  0.26311  1.0000
  H   H3357     1.0  0.52290  0.47558  0.07304  1.0000
  C   C4224     1.0  0.79128  0.40255  0.13786  1.0000
  C   C4225     1.0  0.60260  0.51899  0.22571  1.0000
  P   P142      1.0  0.66416  0.49396  0.22159  1.0000
  H   H3358     1.0  0.63544  0.45479  0.46421  1.0000
  C   C4226     1.0  0.49910  0.50009  0.14957  1.0000
  C   C4227     1.0  0.52827  0.50470  0.24193  1.0000
  H   H3359     1.0  0.67719  0.49147  0.00026  1.0000
  C   C4228     1.0  0.61626  0.41947  0.32064  1.0000
  H   H3360     1.0  0.59996  0.49233  0.98793  1.0000
  H   H3361     1.0  0.57553  0.57667  0.22123  1.0000
  C   C4229     1.0  0.69156  0.45036  0.43358  1.0000
  H   H3362     1.0  0.49891  0.39872  0.10302  1.0000
  C   C4230     1.0  0.68752  0.41841  0.31274  1.0000
  C   C4231     1.0  0.66679  0.41780  0.31258  1.0000
  C   C4232     1.0  0.61448  0.43900  0.30794  1.0000
  C   C4233     1.0  0.59981  0.45554  0.31438  1.0000
  C   C4234     1.0  0.70147  0.41988  0.15057  1.0000
  C   C4235     1.0  0.66572  0.49446  0.24781  1.0000
  H   H3363     1.0  0.54025  0.39592  0.14562  1.0000
  H   H3364     1.0  0.88078  0.56509  0.08096  1.0000
  C   C4236     1.0  0.56205  0.38666  0.34809  1.0000
  H   H3365     1.0  0.60426  0.40206  0.35010  1.0000
  C   C4237     1.0  0.53066  0.55960  0.29728  1.0000
  H   H3366     1.0  0.73223  0.40779  0.46182  1.0000
  H   H3367     1.0  0.65375  0.53153  0.19055  1.0000
  H   H3368     1.0  0.80994  0.51100  0.00046  1.0000
  C   C4238     1.0  0.56448  0.53517  0.03389  1.0000
  H   H3369     1.0  0.56431  0.40259  0.34408  1.0000
  C   C4239     1.0  0.77239  0.41176  0.14844  1.0000
  C   C4240     1.0  0.63332  0.39771  0.28529  1.0000
  C   C4241     1.0  0.63969  0.52754  0.20034  1.0000
  H   H3370     1.0  0.69224  0.43296  0.31247  1.0000
  H   H3371     1.0  0.65566  0.43208  0.31210  1.0000
  H   H3372     1.0  0.62427  0.44143  0.29300  1.0000
  H   H3373     1.0  0.59832  0.47050  0.30452  1.0000
  C   C4242     1.0  0.51268  0.49337  0.21773  1.0000
  H   H3374     1.0  0.62039  0.55269  0.18390  1.0000
  C   C4243     1.0  0.59920  0.57002  0.24030  1.0000
  S   S576      1.0  0.51738  0.57768  0.15989  1.0000
  H   H3375     1.0  0.63299  0.57019  0.14609  1.0000
  C   C4244     1.0  0.63206  0.57360  0.09953  1.0000
  C   C4245     1.0  0.96330  0.50579  0.14435  1.0000
  H   H3376     1.0  0.63279  0.49447  0.45671  1.0000
  H   H3377     1.0  0.73908  0.42905  0.10472  1.0000
  H   H3378     1.0  0.63218  0.47273  0.21434  1.0000
  C   C4246     1.0  0.53112  0.39256  0.07076  1.0000
  C   C4247     1.0  0.64167  0.56437  0.42574  1.0000
  H   H3379     1.0  0.79797  0.40995  0.12281  1.0000
  P   P143      1.0  0.50674  0.47251  0.20809  1.0000
  H   H3380     1.0  0.57858  0.43121  0.36111  1.0000
  H   H3381     1.0  0.80237  0.38782  0.31987  1.0000
  C   C4248     1.0  0.78935  0.45038  0.07821  1.0000
  H   H3382     1.0  0.69382  0.56521  0.05608  1.0000
  C   C4249     1.0  0.50433  0.51817  0.33472  1.0000
  H   H3383     1.0  0.59971  0.41134  0.25113  1.0000
  S   S577      1.0  0.56848  0.57139  0.14970  1.0000
  P   P144      1.0  0.59936  0.56764  0.44110  1.0000
  C   C4250     1.0  0.79608  0.51702  0.99369  1.0000
  H   H3384     1.0  0.69480  0.40691  0.14926  1.0000
  C   C4251     1.0  0.55437  0.39554  0.09263  1.0000
  H   H3385     1.0  0.54303  0.42343  0.04112  1.0000
  C   C4252     1.0  0.49661  0.53662  0.34229  1.0000
  C   C4253     1.0  0.85014  0.56384  0.09876  1.0000
  H   H3386     1.0  0.93963  0.55479  0.07961  1.0000
  C   C4254     1.0  0.81641  0.57337  0.00244  1.0000
  C   C4255     1.0  0.68394  0.43381  0.21317  1.0000
  C   C4256     1.0  0.78378  0.44782  0.09963  1.0000
  C   C4257     1.0  0.54306  0.56441  0.41320  1.0000
  H   H3387     1.0  0.70726  0.44848  0.42499  1.0000
  H   H3388     1.0  0.69698  0.45785  0.21970  1.0000
  C   C4258     1.0  0.62162  0.56981  0.42085  1.0000
  C   C4259     1.0  0.66414  0.51361  0.25381  1.0000
  C   C4260     1.0  0.50634  0.49406  0.16827  1.0000
  H   H3389     1.0  0.62157  0.49470  0.24314  1.0000
  H   H3390     1.0  0.52660  0.53204  0.07633  1.0000
  C   C4261     1.0  0.60185  0.52115  0.99658  1.0000
  H   H3391     1.0  0.67448  0.56160  0.41409  1.0000
  C   C4262     1.0  0.70214  0.40018  0.31392  1.0000
  C   C4263     1.0  0.55478  0.38534  0.14645  1.0000
  H   H3392     1.0  0.73133  0.51367  0.00419  1.0000
  S   S578      1.0  0.63696  0.41889  0.16756  1.0000
  H   H3393     1.0  0.74989  0.40868  0.17663  1.0000
  H   H3394     1.0  0.97857  0.55645  0.97654  1.0000
  C   C4264     1.0  0.64992  0.38835  0.25208  1.0000
  H   H3395     1.0  0.83447  0.57532  0.14686  1.0000
  H   H3396     1.0  0.58779  0.56806  0.05529  1.0000
  C   C4265     1.0  0.68232  0.57137  0.15041  1.0000
  C   C4266     1.0  0.63667  0.57869  0.38485  1.0000
  H   H3397     1.0  0.63092  0.39568  0.22879  1.0000
  S   S579      1.0  0.57452  0.38649  0.38442  1.0000
  C   C4267     1.0  0.63100  0.58279  0.22427  1.0000
  C   C4268     1.0  0.58268  0.57807  0.04183  1.0000
  S   S580      1.0  0.90442  0.57803  0.10520  1.0000
  H   H3398     1.0  0.50178  0.57204  0.26877  1.0000
  C   C4269     1.0  0.66075  0.57664  0.15256  1.0000
  H   H3399     1.0  0.97987  0.56813  0.21556  1.0000
  H   H3400     1.0  0.61314  0.57506  0.02323  1.0000
  H   H3401     1.0  0.64714  0.57724  0.09914  1.0000
  H   H3402     1.0  0.86571  0.57612  0.01405  1.0000
  C   C4270     1.0  0.61921  0.57728  0.40029  1.0000
  C   C4271     1.0  0.59095  0.57844  0.22211  1.0000
  C   C4272     1.0  0.52517  0.57487  0.30963  1.0000
  C   C4273     1.0  0.87063  0.56760  0.09529  1.0000
  H   H3403     1.0  0.60393  0.58206  0.39609  1.0000
  H   H3404     1.0  0.50933  0.57991  0.23072  1.0000
  C   C4274     1.0  0.70244  0.57956  0.07794  1.0000
  H   H3405     1.0  0.69086  0.57979  0.15677  1.0000
  Fe  Fe287     1.0  0.74216  0.38511  0.36355  1.0000
  H   H3406     1.0  0.61076  0.58188  0.33821  1.0000
  S   S581      1.0  0.60821  0.38564  0.47312  1.0000
  C   C4275     1.0  0.49802  0.38373  0.15131  1.0000
  H   H3407     1.0  0.50745  0.57831  0.99076  1.0000
  H   H3408     1.0  0.87043  0.58249  0.14042  1.0000
  Fe  Fe288     1.0  0.84965  0.56783  0.77566  1.0000
  C   C4276     1.0  0.60124  0.51685  0.96184  1.0000
  S   S582      1.0  0.83122  0.54748  0.80023  1.0000
  H   H3409     1.0  0.74978  0.42537  0.53243  1.0000
  H   H3410     1.0  0.91681  0.41447  0.70085  1.0000
  S   S583      1.0  0.86478  0.56263  0.74381  1.0000
  Fe  Fe289     1.0  0.77005  0.51723  0.62194  1.0000
  S   S584      1.0  0.79301  0.52413  0.59309  1.0000
  S   S585      1.0  0.73922  0.50695  0.62269  1.0000
  Fe  Fe290     1.0  0.79803  0.52708  0.64855  1.0000
  S   S586      1.0  0.82330  0.53343  0.62175  1.0000
  S   S587      1.0  0.80218  0.52818  0.68082  1.0000
  Fe  Fe291     1.0  0.79708  0.55124  0.60581  1.0000
  Fe  Fe292     1.0  0.81695  0.50590  0.61176  1.0000
  S   S588      1.0  0.83979  0.48052  0.59827  1.0000
  S   S589      1.0  0.77185  0.54629  0.63321  1.0000
  S   S590      1.0  0.79397  0.49755  0.63999  1.0000
  Fe  Fe293     1.0  0.65668  0.40856  0.58286  1.0000
  S   S591      1.0  0.67055  0.43242  0.55779  1.0000
  C   C4277     1.0  0.58514  0.45487  0.53571  1.0000
  H   H3411     1.0  0.95499  0.44241  0.72665  1.0000
  S   S592      1.0  0.71237  0.39747  0.55279  1.0000
  Fe  Fe294     1.0  0.69953  0.42249  0.57216  1.0000
  S   S593      1.0  0.72529  0.43957  0.57426  1.0000
  Fe  Fe295     1.0  0.68209  0.40543  0.54094  1.0000
  H   H3412     1.0  0.96110  0.43391  0.84756  1.0000
  S   S594      1.0  0.68457  0.40096  0.59871  1.0000
  C   C4278     1.0  0.93378  0.42861  0.86983  1.0000
  Fe  Fe296     1.0  0.80941  0.40172  0.82384  1.0000
  S   S595      1.0  0.78221  0.41915  0.80930  1.0000
  Fe  Fe297     1.0  0.83184  0.43814  0.81205  1.0000
  S   S596      1.0  0.80632  0.45852  0.79675  1.0000
  S   S597      1.0  0.86086  0.45075  0.81036  1.0000
  Fe  Fe298     1.0  0.78509  0.44511  0.82421  1.0000
  S   S598      1.0  0.75613  0.46265  0.84103  1.0000
  Fe  Fe299     1.0  0.80599  0.43076  0.78328  1.0000
  S   S599      1.0  0.80461  0.43420  0.74955  1.0000
  S   S600      1.0  0.81070  0.42665  0.84084  1.0000
  S   S601      1.0  0.83309  0.41137  0.79655  1.0000
  C   C4279     1.0  0.83396  0.48770  0.52512  1.0000
  H   H3413     1.0  0.87086  0.39943  0.94800  1.0000
  C   C4280     1.0  0.49374  0.50482  0.75090  1.0000
  C   C4281     1.0  0.78394  0.49314  0.54869  1.0000
  H   H3414     1.0  0.56028  0.50155  0.55132  1.0000
  C   C4282     1.0  0.98005  0.50809  0.67797  1.0000
  H   H3415     1.0  0.72292  0.43471  0.71916  1.0000
  C   C4283     1.0  0.96516  0.42545  0.68075  1.0000
  S   S602      1.0  0.73557  0.56026  0.81673  1.0000
  C   C4284     1.0  0.75118  0.47955  0.53878  1.0000
  Fe  Fe300     1.0  0.90601  0.39920  0.65787  1.0000
  S   S603      1.0  0.90843  0.43305  0.65070  1.0000
  C   C4285     1.0  0.93444  0.42809  0.71594  1.0000
  C   C4286     1.0  0.54741  0.49418  0.50747  1.0000
  H   H3416     1.0  0.49200  0.50365  0.78355  1.0000
  C   C4287     1.0  0.64350  0.39404  0.51158  1.0000
  C   C4288     1.0  0.51274  0.40174  0.62443  1.0000
  C   C4289     1.0  0.75092  0.48989  0.83509  1.0000
  C   C4290     1.0  0.76621  0.50112  0.82385  1.0000
  C   C4291     1.0  0.76154  0.52282  0.81925  1.0000
  C   C4292     1.0  0.74149  0.53337  0.82525  1.0000
  C   C4293     1.0  0.72631  0.52223  0.83698  1.0000
  C   C4294     1.0  0.73109  0.50053  0.84200  1.0000
  H   H3417     1.0  0.78170  0.49314  0.81899  1.0000
  H   H3418     1.0  0.77355  0.53151  0.81126  1.0000
  H   H3419     1.0  0.71084  0.53026  0.84189  1.0000
  H   H3420     1.0  0.71931  0.49195  0.85105  1.0000
  H   H3421     1.0  0.73254  0.50809  0.54650  1.0000
  C   C4295     1.0  0.81830  0.41322  0.73762  1.0000
  H   H3422     1.0  0.76158  0.52017  0.55528  1.0000
  H   H3423     1.0  0.49670  0.56289  0.70739  1.0000
  P   P145      1.0  0.75635  0.41330  0.49161  1.0000
  C   C4296     1.0  0.97925  0.44959  0.64233  1.0000
  C   C4297     1.0  0.84537  0.40764  0.90765  1.0000
  H   H3424     1.0  0.87046  0.40326  0.81780  1.0000
  H   H3425     1.0  0.94575  0.48616  0.77248  1.0000
  C   C4298     1.0  0.59670  0.45461  0.55087  1.0000
  C   C4299     1.0  0.76432  0.50562  0.54976  1.0000
  C   C4300     1.0  0.53126  0.47452  0.57552  1.0000
  C   C4301     1.0  0.78882  0.39416  0.67928  1.0000
  C   C4302     1.0  0.85980  0.46806  0.61188  1.0000
  C   C4303     1.0  0.86596  0.47785  0.62533  1.0000
  C   C4304     1.0  0.88182  0.46739  0.63633  1.0000
  C   C4305     1.0  0.89104  0.44697  0.63441  1.0000
  C   C4306     1.0  0.88517  0.43739  0.62059  1.0000
  C   C4307     1.0  0.86970  0.44800  0.60919  1.0000
  H   H3426     1.0  0.85829  0.49332  0.62750  1.0000
  H   H3427     1.0  0.88610  0.47470  0.64715  1.0000
  H   H3428     1.0  0.89252  0.42176  0.61870  1.0000
  H   H3429     1.0  0.86507  0.44043  0.59867  1.0000
  C   C4308     1.0  0.73544  0.48816  0.60922  1.0000
  C   C4309     1.0  0.71517  0.48552  0.60896  1.0000
  C   C4310     1.0  0.71164  0.47079  0.59842  1.0000
  C   C4311     1.0  0.72840  0.45827  0.58821  1.0000
  C   C4312     1.0  0.74861  0.46067  0.58887  1.0000
  C   C4313     1.0  0.75212  0.47559  0.59910  1.0000
  H   H3430     1.0  0.70210  0.49509  0.61679  1.0000
  H   H3431     1.0  0.69598  0.46916  0.59818  1.0000
  H   H3432     1.0  0.76168  0.45100  0.58124  1.0000
  H   H3433     1.0  0.76773  0.47747  0.59911  1.0000
  C   C4314     1.0  0.78614  0.38574  0.54927  1.0000
  C   C4315     1.0  0.66152  0.39889  0.49835  1.0000
  H   H3434     1.0  0.97971  0.39439  0.59819  1.0000
  H   H3435     1.0  0.90711  0.41942  0.89056  1.0000
  H   H3436     1.0  0.64155  0.39457  0.52776  1.0000
  C   C4316     1.0  0.79636  0.41192  0.59396  1.0000
  C   C4317     1.0  0.82048  0.56444  0.71217  1.0000
  C   C4318     1.0  0.81395  0.54817  0.70665  1.0000
  C   C4319     1.0  0.81044  0.54935  0.68665  1.0000
  C   C4320     1.0  0.81300  0.56741  0.67225  1.0000
  C   C4321     1.0  0.60279  0.53768  0.95458  1.0000
  H   H3437     1.0  0.82335  0.56317  0.72757  1.0000
  H   H3438     1.0  0.81174  0.53459  0.71802  1.0000
  H   H3439     1.0  0.94050  0.47331  0.81169  1.0000
  H   H3440     1.0  0.62469  0.43764  0.49908  1.0000
  H   H3441     1.0  0.67387  0.51600  0.96746  1.0000
  H   H3442     1.0  0.96118  0.56696  0.70787  1.0000
  C   C4322     1.0  0.84043  0.52074  0.80364  1.0000
  C   C4323     1.0  0.82710  0.50743  0.81523  1.0000
  C   C4324     1.0  0.83361  0.48595  0.81766  1.0000
  C   C4325     1.0  0.85356  0.47767  0.80866  1.0000
  C   C4326     1.0  0.86719  0.49096  0.79753  1.0000
  C   C4327     1.0  0.86055  0.51254  0.79486  1.0000
  H   H3443     1.0  0.81158  0.51374  0.82217  1.0000
  H   H3444     1.0  0.82309  0.47579  0.82647  1.0000
  H   H3445     1.0  0.88259  0.48458  0.79044  1.0000
  H   H3446     1.0  0.87087  0.52283  0.78589  1.0000
  C   C4328     1.0  0.96790  0.43468  0.69661  1.0000
  H   H3447     1.0  0.89240  0.42082  0.78420  1.0000
  H   H3448     1.0  0.71556  0.42208  0.75664  1.0000
  H   H3449     1.0  0.49150  0.40454  0.48956  1.0000
  C   C4329     1.0  0.87415  0.43752  0.73896  1.0000
  C   C4330     1.0  0.74548  0.52571  0.90944  1.0000
  C   C4331     1.0  0.74831  0.54390  0.89550  1.0000
  H   H3450     1.0  0.59668  0.52038  0.50867  1.0000
  C   C4332     1.0  0.74560  0.56187  0.92380  1.0000
  C   C4333     1.0  0.74211  0.54379  0.93795  1.0000
  C   C4334     1.0  0.74247  0.52560  0.93060  1.0000
  H   H3451     1.0  0.92266  0.42880  0.72960  1.0000
  C   C4335     1.0  0.90548  0.47651  0.71944  1.0000
  C   C4336     1.0  0.95087  0.40631  0.84516  1.0000
  H   H3452     1.0  0.55404  0.53797  0.53375  1.0000
  H   H3453     1.0  0.55016  0.42355  0.61108  1.0000
  C   C4337     1.0  0.60941  0.39762  0.57072  1.0000
  H   H3454     1.0  0.96330  0.40244  0.83269  1.0000
  C   C4338     1.0  0.62757  0.38932  0.50368  1.0000
  C   C4339     1.0  0.93605  0.39348  0.85288  1.0000
  H   H3455     1.0  0.98366  0.49963  0.70986  1.0000
  C   C4340     1.0  0.80721  0.44185  0.57022  1.0000
  C   C4341     1.0  0.71881  0.43740  0.50562  1.0000
  H   H3456     1.0  0.94223  0.47874  0.61543  1.0000
  C   C4342     1.0  0.79787  0.57537  0.86598  1.0000
  H   H3457     1.0  0.53744  0.48651  0.71907  1.0000
  C   C4343     1.0  0.51302  0.39817  0.64552  1.0000
  C   C4344     1.0  0.75548  0.55651  0.75579  1.0000
  C   C4345     1.0  0.93121  0.41981  0.69980  1.0000
  C   C4346     1.0  0.55336  0.44089  0.58023  1.0000
  H   H3458     1.0  0.74517  0.51181  0.90381  1.0000
  H   H3459     1.0  0.75001  0.54406  0.87915  1.0000
  C   C4347     1.0  0.95630  0.47473  0.62199  1.0000
  H   H3460     1.0  0.60541  0.56632  0.96262  1.0000
  H   H3461     1.0  0.74002  0.51143  0.94121  1.0000
  H   H3462     1.0  0.61898  0.49055  0.49420  1.0000
  C   C4348     1.0  0.54785  0.41160  0.52178  1.0000
  H   H3463     1.0  0.85829  0.39938  0.87818  1.0000
  C   C4349     1.0  0.82267  0.39335  0.74906  1.0000
  H   H3464     1.0  0.72149  0.42737  0.83897  1.0000
  C   C4350     1.0  0.89204  0.54581  0.56636  1.0000
  C   C4351     1.0  0.52968  0.45304  0.60933  1.0000
  C   C4352     1.0  0.55545  0.50512  0.53643  1.0000
  H   H3465     1.0  0.58692  0.44979  0.50467  1.0000
  H   H3466     1.0  0.89114  0.56505  0.65115  1.0000
  S   S604      1.0  0.87918  0.38830  0.65120  1.0000
  H   H3467     1.0  0.73959  0.48921  0.48861  1.0000
  H   H3468     1.0  0.62677  0.44709  0.55957  1.0000
  C   C4353     1.0  0.82447  0.41639  0.71621  1.0000
  C   C4354     1.0  0.80233  0.42195  0.57388  1.0000
  H   H3469     1.0  0.49710  0.45822  0.57153  1.0000
  C   C4355     1.0  0.70339  0.47906  0.71547  1.0000
  C   C4356     1.0  0.68711  0.46809  0.72365  1.0000
  C   C4357     1.0  0.68122  0.46310  0.74495  1.0000
  C   C4358     1.0  0.69147  0.46925  0.75806  1.0000
  C   C4359     1.0  0.70798  0.48015  0.74998  1.0000
  C   C4360     1.0  0.71392  0.48496  0.72853  1.0000
  P   P146      1.0  0.71946  0.48977  0.76726  1.0000
  C   C4361     1.0  0.70407  0.51407  0.77303  1.0000
  C   C4362     1.0  0.72011  0.47022  0.79020  1.0000
  C   C4363     1.0  0.71098  0.47501  0.80973  1.0000
  C   C4364     1.0  0.71119  0.45948  0.82717  1.0000
  C   C4365     1.0  0.72056  0.43915  0.82530  1.0000
  C   C4366     1.0  0.72939  0.43420  0.80592  1.0000
  C   C4367     1.0  0.72910  0.44963  0.78841  1.0000
  C   C4368     1.0  0.71122  0.52552  0.78444  1.0000
  C   C4369     1.0  0.69928  0.54417  0.78928  1.0000
  C   C4370     1.0  0.68034  0.55172  0.78252  1.0000
  C   C4371     1.0  0.67320  0.54055  0.77100  1.0000
  C   C4372     1.0  0.68499  0.52177  0.76627  1.0000
  C   C4373     1.0  0.74527  0.49464  0.75565  1.0000
  C   C4374     1.0  0.74781  0.51196  0.74007  1.0000
  C   C4375     1.0  0.76767  0.51579  0.73079  1.0000
  C   C4376     1.0  0.78509  0.50255  0.73714  1.0000
  C   C4377     1.0  0.78270  0.48562  0.75279  1.0000
  C   C4378     1.0  0.76294  0.48166  0.76216  1.0000
  H   H3470     1.0  0.70769  0.48319  0.69895  1.0000
  H   H3471     1.0  0.67896  0.46361  0.71346  1.0000
  H   H3472     1.0  0.66846  0.45477  0.75133  1.0000
  H   H3473     1.0  0.68628  0.46577  0.77454  1.0000
  H   H3474     1.0  0.72646  0.49341  0.72179  1.0000
  H   H3475     1.0  0.70391  0.49064  0.81176  1.0000
  H   H3476     1.0  0.70484  0.46335  0.84230  1.0000
  C   C4379     1.0  0.53524  0.48566  0.75151  1.0000
  C   C4380     1.0  0.70725  0.57877  0.97198  1.0000
  H   H3477     1.0  0.73639  0.44566  0.77352  1.0000
  H   H3478     1.0  0.72577  0.51978  0.79005  1.0000
  H   H3479     1.0  0.70456  0.55262  0.79860  1.0000
  C   C4381     1.0  0.86153  0.39956  0.89317  1.0000
  H   H3480     1.0  0.65836  0.54634  0.76600  1.0000
  H   H3481     1.0  0.67902  0.51334  0.75747  1.0000
  H   H3482     1.0  0.73446  0.52246  0.73503  1.0000
  H   H3483     1.0  0.76970  0.52892  0.71860  1.0000
  H   H3484     1.0  0.80052  0.50497  0.72964  1.0000
  H   H3485     1.0  0.79631  0.47533  0.75736  1.0000
  H   H3486     1.0  0.76179  0.46845  0.77440  1.0000
  H   H3487     1.0  0.81208  0.43896  0.47659  1.0000
  H   H3488     1.0  0.58613  0.39591  0.62065  1.0000
  C   C4382     1.0  0.65039  0.56172  0.96398  1.0000
  H   H3489     1.0  0.84813  0.44938  0.56423  1.0000
  H   H3490     1.0  0.58924  0.45887  0.56560  1.0000
  H   H3491     1.0  0.60086  0.50701  0.95113  1.0000
  S   S605      1.0  0.92185  0.56656  0.73536  1.0000
  H   H3492     1.0  0.89703  0.51266  0.56799  1.0000
  C   C4383     1.0  0.60623  0.40017  0.59122  1.0000
  C   C4384     1.0  0.79284  0.56337  0.76286  1.0000
  C   C4385     1.0  0.78661  0.54429  0.77072  1.0000
  C   C4386     1.0  0.76784  0.54092  0.76739  1.0000
  C   C4387     1.0  0.55256  0.48923  0.52726  1.0000
  C   C4388     1.0  0.77725  0.52099  0.96573  1.0000
  H   H3493     1.0  0.87895  0.49955  0.53141  1.0000
  S   S606      1.0  0.62336  0.41202  0.59986  1.0000
  C   C4389     1.0  0.83865  0.47407  0.69584  1.0000
  H   H3494     1.0  0.80811  0.50346  0.96647  1.0000
  C   C4390     1.0  0.73374  0.47475  0.49324  1.0000
  C   C4391     1.0  0.85624  0.48232  0.73249  1.0000
  C   C4392     1.0  0.80604  0.45159  0.58696  1.0000
  C   C4393     1.0  0.95396  0.42816  0.79267  1.0000
  H   H3495     1.0  0.49703  0.41920  0.59993  1.0000
  C   C4394     1.0  0.65360  0.55658  0.94442  1.0000
  C   C4395     1.0  0.84042  0.57494  0.86958  1.0000
  C   C4396     1.0  0.61505  0.50517  0.48415  1.0000
  H   H3496     1.0  0.79619  0.53223  0.77975  1.0000
  H   H3497     1.0  0.51748  0.46688  0.52659  1.0000
  C   C4397     1.0  0.54423  0.51481  0.49744  1.0000
  C   C4398     1.0  0.73005  0.56324  0.68463  1.0000
  C   C4399     1.0  0.94970  0.42391  0.85360  1.0000
  C   C4400     1.0  0.91995  0.45222  0.81349  1.0000
  C   C4401     1.0  0.70078  0.52883  0.96722  1.0000
  C   C4402     1.0  0.95654  0.52281  0.70571  1.0000
  H   H3498     1.0  0.52414  0.39264  0.61443  1.0000
  C   C4403     1.0  0.82913  0.47372  0.67943  1.0000
  C   C4404     1.0  0.96818  0.52083  0.66385  1.0000
  C   C4405     1.0  0.95070  0.53506  0.67053  1.0000
  C   C4406     1.0  0.94458  0.53543  0.69168  1.0000
  P   P147      1.0  0.93630  0.55218  0.65187  1.0000
  C   C4407     1.0  0.95255  0.56741  0.63243  1.0000
  C   C4408     1.0  0.92462  0.53621  0.64083  1.0000
  C   C4409     1.0  0.92988  0.53504  0.61980  1.0000
  C   C4410     1.0  0.91938  0.52395  0.61124  1.0000
  C   C4411     1.0  0.90357  0.51404  0.62358  1.0000
  C   C4412     1.0  0.89864  0.51470  0.64463  1.0000
  C   C4413     1.0  0.90940  0.52538  0.65331  1.0000
  C   C4414     1.0  0.61692  0.44292  0.51331  1.0000
  H   H3499     1.0  0.69916  0.53932  0.95280  1.0000
  C   C4415     1.0  0.85270  0.44243  0.67263  1.0000
  C   C4416     1.0  0.83062  0.41473  0.49481  1.0000
  P   P148      1.0  0.55737  0.46264  0.54011  1.0000
  C   C4417     1.0  0.97186  0.52637  0.76182  1.0000
  C   C4418     1.0  0.52745  0.49027  0.73313  1.0000
  C   C4419     1.0  0.50171  0.49999  0.76935  1.0000
  H   H3500     1.0  0.79221  0.39675  0.59654  1.0000
  H   H3501     1.0  0.79042  0.41399  0.62611  1.0000
  C   C4420     1.0  0.60246  0.52199  0.49228  1.0000
  H   H3502     1.0  0.95200  0.52387  0.72187  1.0000
  H   H3503     1.0  0.50125  0.50306  0.71836  1.0000
  H   H3504     1.0  0.81752  0.39075  0.76553  1.0000
  H   H3505     1.0  0.83511  0.40480  0.48326  1.0000
  H   H3506     1.0  0.93075  0.54555  0.69757  1.0000
  H   H3507     1.0  0.94196  0.54272  0.60993  1.0000
  H   H3508     1.0  0.60383  0.54394  0.93828  1.0000
  H   H3509     1.0  0.89510  0.50591  0.61680  1.0000
  H   H3510     1.0  0.88625  0.50719  0.65423  1.0000
  H   H3511     1.0  0.90527  0.52591  0.66964  1.0000
  H   H3512     1.0  0.88734  0.38715  0.77832  1.0000
  H   H3513     1.0  0.98040  0.48262  0.81912  1.0000
  H   H3514     1.0  0.50254  0.44301  0.51287  1.0000
  C   C4421     1.0  0.76640  0.40008  0.74699  1.0000
  C   C4422     1.0  0.62826  0.44213  0.52867  1.0000
  H   H3515     1.0  0.92792  0.47215  0.66246  1.0000
  C   C4423     1.0  0.93219  0.48191  0.68951  1.0000
  H   H3516     1.0  0.89532  0.46053  0.67862  1.0000
  C   C4424     1.0  0.81155  0.44645  0.50619  1.0000
  H   H3517     1.0  0.56498  0.42877  0.57414  1.0000
  C   C4425     1.0  0.59498  0.38958  0.56366  1.0000
  C   C4426     1.0  0.52237  0.49050  0.76962  1.0000
  C   C4427     1.0  0.74856  0.56192  0.90268  1.0000
  C   C4428     1.0  0.97363  0.56604  0.63313  1.0000
  H   H3518     1.0  0.84057  0.40254  0.68984  1.0000
  C   C4429     1.0  0.88125  0.39137  0.89834  1.0000
  C   C4430     1.0  0.75659  0.38432  0.63221  1.0000
  C   C4431     1.0  0.72556  0.43184  0.64400  1.0000
  C   C4432     1.0  0.74055  0.43461  0.65429  1.0000
  C   C4433     1.0  0.74073  0.42522  0.67494  1.0000
  Fe  Fe301     1.0  0.70906  0.57818  0.83594  1.0000
  P   P149      1.0  0.76012  0.42903  0.68812  1.0000
  C   C4434     1.0  0.75481  0.41904  0.71538  1.0000
  C   C4435     1.0  0.78459  0.41589  0.67613  1.0000
  H   H3519     1.0  0.50351  0.49780  0.64396  1.0000
  H   H3520     1.0  0.84506  0.57963  0.89915  1.0000
  C   C4436     1.0  0.71308  0.47467  0.50274  1.0000
  C   C4437     1.0  0.81789  0.41663  0.65340  1.0000
  C   C4438     1.0  0.79920  0.42709  0.66302  1.0000
  C   C4439     1.0  0.77059  0.40699  0.72576  1.0000
  H   H3521     1.0  0.62272  0.40239  0.56015  1.0000
  H   H3522     1.0  0.87254  0.38585  0.74783  1.0000
  H   H3523     1.0  0.77494  0.57809  0.80237  1.0000
  C   C4440     1.0  0.73505  0.42477  0.72675  1.0000
  C   C4441     1.0  0.76082  0.45602  0.68686  1.0000
  C   C4442     1.0  0.74750  0.47199  0.67649  1.0000
  C   C4443     1.0  0.74826  0.49271  0.67626  1.0000
  C   C4444     1.0  0.76215  0.49762  0.68648  1.0000
  C   C4445     1.0  0.77537  0.48182  0.69684  1.0000
  C   C4446     1.0  0.77465  0.46113  0.69717  1.0000
  C   C4447     1.0  0.54685  0.45940  0.56728  1.0000
  H   H3524     1.0  0.66505  0.44651  0.48262  1.0000
  C   C4448     1.0  0.76248  0.41243  0.53150  1.0000
  H   H3525     1.0  0.75187  0.44424  0.64611  1.0000
  H   H3526     1.0  0.74343  0.39989  0.77453  1.0000
  H   H3527     1.0  0.96969  0.54288  0.75578  1.0000
  C   C4449     1.0  0.88374  0.40112  0.76732  1.0000
  C   C4450     1.0  0.74689  0.45614  0.48987  1.0000
  H   H3528     1.0  0.82918  0.42524  0.64322  1.0000
  H   H3529     1.0  0.79616  0.44385  0.66008  1.0000
  C   C4451     1.0  0.83820  0.40849  0.51331  1.0000
  H   H3530     1.0  0.86273  0.55045  0.96388  1.0000
  P   P150      1.0  0.98468  0.42435  0.65792  1.0000
  C   C4452     1.0  0.80228  0.56738  0.94856  1.0000
  H   H3531     1.0  0.96636  0.50389  0.60895  1.0000
  H   H3532     1.0  0.73635  0.46882  0.66866  1.0000
  H   H3533     1.0  0.73830  0.50496  0.66781  1.0000
  H   H3534     1.0  0.76298  0.51364  0.68605  1.0000
  H   H3535     1.0  0.78649  0.48554  0.70437  1.0000
  H   H3536     1.0  0.78492  0.44913  0.70551  1.0000
  H   H3537     1.0  0.75059  0.57611  0.89192  1.0000
  C   C4453     1.0  0.79535  0.42166  0.61058  1.0000
  C   C4454     1.0  0.83254  0.42125  0.52822  1.0000
  H   H3538     1.0  0.96707  0.41819  0.78533  1.0000
  C   C4455     1.0  0.74794  0.49882  0.54481  1.0000
  C   C4456     1.0  0.87545  0.40038  0.75022  1.0000
  C   C4457     1.0  0.54601  0.44535  0.53044  1.0000
  C   C4458     1.0  0.49300  0.57953  0.70302  1.0000
  C   C4459     1.0  0.72668  0.41176  0.68454  1.0000
  C   C4460     1.0  0.73087  0.41771  0.74797  1.0000
  H   H3539     1.0  0.79936  0.56913  0.96456  1.0000
  C   C4461     1.0  0.51771  0.43815  0.51724  1.0000
  C   C4462     1.0  0.85627  0.56309  0.56872  1.0000
  H   H3540     1.0  0.94383  0.41169  0.67004  1.0000
  H   H3541     1.0  0.77683  0.51774  0.95082  1.0000
  H   H3542     1.0  0.70290  0.48903  0.50548  1.0000
  C   C4463     1.0  0.96096  0.45519  0.63393  1.0000
  H   H3543     1.0  0.70091  0.39862  0.68159  1.0000
  C   C4464     1.0  0.87052  0.41848  0.73622  1.0000
  C   C4465     1.0  0.55640  0.42499  0.52945  1.0000
  C   C4466     1.0  0.77042  0.40310  0.54943  1.0000
  H   H3544     1.0  0.51092  0.48311  0.60285  1.0000
  H   H3545     1.0  0.54600  0.48216  0.49969  1.0000
  C   C4467     1.0  0.61816  0.44813  0.54738  1.0000
  C   C4468     1.0  0.76998  0.40430  0.51321  1.0000
  C   C4469     1.0  0.70565  0.45597  0.50897  1.0000
  C   C4470     1.0  0.97704  0.48378  0.77806  1.0000
  C   C4471     1.0  0.52867  0.41824  0.51542  1.0000
  C   C4472     1.0  0.98118  0.39140  0.61428  1.0000
  H   H3546     1.0  0.79612  0.49820  0.55365  1.0000
  C   C4473     1.0  0.91781  0.43359  0.80881  1.0000
  H   H3547     1.0  0.52472  0.38622  0.65191  1.0000
  H   H3548     1.0  0.83895  0.41654  0.54225  1.0000
  H   H3549     1.0  0.79927  0.44935  0.61979  1.0000
  H   H3550     1.0  0.90838  0.54607  0.56434  1.0000
  H   H3551     1.0  0.97283  0.51997  0.64767  1.0000
  H   H3552     1.0  0.76400  0.40915  0.56356  1.0000
  C   C4474     1.0  0.92040  0.39770  0.86962  1.0000
  C   C4475     1.0  0.87730  0.56412  0.56683  1.0000
  C   C4476     1.0  0.97432  0.50921  0.69890  1.0000
  H   H3553     1.0  0.52227  0.40773  0.50944  1.0000
  C   C4477     1.0  0.78741  0.47390  0.54229  1.0000
  C   C4478     1.0  0.93480  0.42150  0.79853  1.0000
  C   C4479     1.0  0.91637  0.57078  0.66375  1.0000
  C   C4480     1.0  0.50680  0.49977  0.73279  1.0000
  H   H3554     1.0  0.54007  0.51860  0.48224  1.0000
  H   H3555     1.0  0.55127  0.47835  0.75171  1.0000
  H   H3556     1.0  0.90297  0.42850  0.81334  1.0000
  C   C4481     1.0  0.52285  0.47139  0.59652  1.0000
  C   C4482     1.0  0.52626  0.45164  0.52492  1.0000
  C   C4483     1.0  0.86617  0.49127  0.53383  1.0000
  C   C4484     1.0  0.55211  0.52574  0.52644  1.0000
  C   C4485     1.0  0.71109  0.41914  0.65391  1.0000
  H   H3557     1.0  0.82086  0.43166  0.70731  1.0000
  H   H3558     1.0  0.69960  0.41694  0.64575  1.0000
  H   H3559     1.0  0.84859  0.39381  0.51597  1.0000
  P   P151      1.0  0.73712  0.54375  0.96533  1.0000
  Fe  Fe302     1.0  0.88871  0.57954  0.74818  1.0000
  H   H3560     1.0  0.74562  0.57610  0.92891  1.0000
  C   C4486     1.0  0.89479  0.46807  0.70827  1.0000
  H   H3561     1.0  0.52842  0.48693  0.78388  1.0000
  C   C4487     1.0  0.80033  0.44147  0.60707  1.0000
  C   C4488     1.0  0.83272  0.47016  0.54060  1.0000
  C   C4489     1.0  0.95607  0.44727  0.79667  1.0000
  C   C4490     1.0  0.77078  0.46705  0.53770  1.0000
  H   H3562     1.0  0.93282  0.44232  0.87629  1.0000
  C   C4491     1.0  0.58868  0.39406  0.60473  1.0000
  H   H3563     1.0  0.82535  0.54003  0.95295  1.0000
  C   C4492     1.0  0.88677  0.42005  0.77056  1.0000
  H   H3564     1.0  0.89952  0.38502  0.92257  1.0000
  C   C4493     1.0  0.74143  0.39376  0.49128  1.0000
  H   H3565     1.0  0.61331  0.38645  0.51381  1.0000
  C   C4494     1.0  0.96979  0.48889  0.61849  1.0000
  H   H3566     1.0  0.94666  0.48699  0.68225  1.0000
  H   H3567     1.0  0.76290  0.55248  0.67776  1.0000
  C   C4495     1.0  0.85058  0.49829  0.52185  1.0000
  H   H3568     1.0  0.83012  0.41359  0.90362  1.0000
  H   H3569     1.0  0.93749  0.58189  0.67744  1.0000
  P   P152      1.0  0.81155  0.45629  0.54443  1.0000
  H   H3570     1.0  0.55768  0.45327  0.47636  1.0000
  C   C4496     1.0  0.79595  0.57987  0.91372  1.0000
  C   C4497     1.0  0.84733  0.57895  0.84823  1.0000
  C   C4498     1.0  0.98455  0.38355  0.65587  1.0000
  H   H3571     1.0  0.58802  0.55376  0.48609  1.0000
  C   C4499     1.0  0.91920  0.41553  0.87791  1.0000
  C   C4500     1.0  0.93906  0.45893  0.80770  1.0000
  C   C4501     1.0  0.49748  0.41684  0.61620  1.0000
  H   H3572     1.0  0.93313  0.40686  0.79531  1.0000
  H   H3573     1.0  0.82207  0.49321  0.51562  1.0000
  C   C4502     1.0  0.98161  0.40773  0.62402  1.0000
  C   C4503     1.0  0.85574  0.45880  0.70053  1.0000
  H   H3574     1.0  0.88834  0.40792  0.84442  1.0000
  C   C4504     1.0  0.62981  0.38858  0.48269  1.0000
  H   H3575     1.0  0.83664  0.38687  0.64970  1.0000
  H   H3576     1.0  0.72721  0.40327  0.69999  1.0000
  H   H3577     1.0  0.86794  0.50529  0.70742  1.0000
  H   H3578     1.0  0.64480  0.43640  0.52620  1.0000
  H   H3579     1.0  0.54384  0.54658  0.49924  1.0000
  H   H3580     1.0  0.65136  0.54154  0.94278  1.0000
  C   C4505     1.0  0.83562  0.39995  0.70633  1.0000
  C   C4506     1.0  0.92171  0.47353  0.67835  1.0000
  H   H3581     1.0  0.94101  0.52375  0.75956  1.0000
  P   P153      1.0  0.81847  0.56191  0.87980  1.0000
  C   C4507     1.0  0.82415  0.53501  0.87685  1.0000
  C   C4508     1.0  0.81073  0.56336  0.90691  1.0000
  C   C4509     1.0  0.82113  0.54885  0.92128  1.0000
  C   C4510     1.0  0.81686  0.55086  0.94201  1.0000
  H   H3582     1.0  0.83612  0.41375  0.93863  1.0000
  H   H3583     1.0  0.71315  0.42299  0.51102  1.0000
  H   H3584     1.0  0.72655  0.55586  0.67324  1.0000
  C   C4511     1.0  0.84074  0.52768  0.86216  1.0000
  C   C4512     1.0  0.84372  0.50729  0.85886  1.0000
  C   C4513     1.0  0.83014  0.49410  0.87007  1.0000
  C   C4514     1.0  0.81370  0.50121  0.88484  1.0000
  C   C4515     1.0  0.81072  0.52156  0.88827  1.0000
  H   H3585     1.0  0.68974  0.45574  0.51656  1.0000
  H   H3586     1.0  0.84083  0.46397  0.75945  1.0000
  C   C4516     1.0  0.54642  0.53060  0.50699  1.0000
  H   H3587     1.0  0.88411  0.45267  0.75964  1.0000
  H   H3588     1.0  0.92333  0.52317  0.59499  1.0000
  H   H3589     1.0  0.86366  0.41733  0.72357  1.0000
  H   H3590     1.0  0.77265  0.45165  0.53427  1.0000
  H   H3591     1.0  0.89922  0.47822  0.73525  1.0000
  H   H3592     1.0  0.93203  0.49012  0.71873  1.0000
  C   C4517     1.0  0.65973  0.57074  0.92695  1.0000
  H   H3593     1.0  0.76287  0.52621  0.77394  1.0000
  H   H3594     1.0  0.83309  0.53641  0.91635  1.0000
  C   C4518     1.0  0.86470  0.52598  0.57025  1.0000
  C   C4519     1.0  0.85005  0.51920  0.73264  1.0000
  H   H3595     1.0  0.83277  0.48661  0.70442  1.0000
  H   H3596     1.0  0.73701  0.41849  0.80462  1.0000
  H   H3597     1.0  0.85114  0.53767  0.85283  1.0000
  H   H3598     1.0  0.85617  0.50192  0.84705  1.0000
  H   H3599     1.0  0.83215  0.47851  0.86699  1.0000
  H   H3600     1.0  0.80297  0.49108  0.89327  1.0000
  H   H3601     1.0  0.79753  0.52705  0.89933  1.0000
  C   C4520     1.0  0.54492  0.43783  0.60118  1.0000
  H   H3602     1.0  0.55598  0.39588  0.52121  1.0000
  H   H3603     1.0  0.57103  0.41921  0.53483  1.0000
  H   H3604     1.0  0.81015  0.56865  0.65682  1.0000
  H   H3605     1.0  0.79071  0.54795  0.85853  1.0000
  C   C4521     1.0  0.59548  0.44956  0.51666  1.0000
  H   H3606     1.0  0.72538  0.43924  0.62818  1.0000
  S   S607      1.0  0.68072  0.40756  0.50715  1.0000
  H   H3607     1.0  0.52306  0.45044  0.62555  1.0000
  C   C4522     1.0  0.73934  0.43737  0.49572  1.0000
  C   C4523     1.0  0.85885  0.50247  0.72269  1.0000
  H   H3608     1.0  0.87638  0.43154  0.69113  1.0000
  H   H3609     1.0  0.49851  0.46189  0.65924  1.0000
  S   S608      1.0  0.66310  0.56334  0.90289  1.0000
  C   C4524     1.0  0.86273  0.44304  0.68861  1.0000
  H   H3610     1.0  0.80162  0.46128  0.50295  1.0000
  C   C4525     1.0  0.95568  0.51552  0.76389  1.0000
  H   H3611     1.0  0.90669  0.46145  0.82158  1.0000
  P   P154      1.0  0.86983  0.46087  0.72002  1.0000
  C   C4526     1.0  0.90308  0.46678  0.68764  1.0000
  H   H3612     1.0  0.62389  0.56924  0.79422  1.0000
  H   H3613     1.0  0.85266  0.53452  0.72505  1.0000
  H   H3614     1.0  0.85325  0.39110  0.59388  1.0000
  H   H3615     1.0  0.85837  0.43034  0.66344  1.0000
  H   H3616     1.0  0.85976  0.51131  0.57167  1.0000
  C   C4527     1.0  0.83431  0.49632  0.76156  1.0000
  H   H3617     1.0  0.82909  0.45813  0.65474  1.0000
  C   C4528     1.0  0.84349  0.47933  0.75182  1.0000
  C   C4529     1.0  0.92403  0.48349  0.71005  1.0000
  C   C4530     1.0  0.98601  0.57750  0.61750  1.0000
  C   C4531     1.0  0.83791  0.51618  0.75215  1.0000
  C   C4532     1.0  0.78657  0.56451  0.85791  1.0000
  H   H3618     1.0  0.74101  0.55358  0.75326  1.0000
  H   H3619     1.0  0.81653  0.48595  0.67548  1.0000
  H   H3620     1.0  0.95863  0.56734  0.57135  1.0000
  H   H3621     1.0  0.95029  0.44439  0.63659  1.0000
  C   C4533     1.0  0.60356  0.55033  0.96828  1.0000
  C   C4534     1.0  0.98285  0.40396  0.64505  1.0000
  C   C4535     1.0  0.49795  0.40965  0.65845  1.0000
  C   C4536     1.0  0.81865  0.43999  0.52505  1.0000
  C   C4537     1.0  0.57739  0.38355  0.57704  1.0000
  C   C4538     1.0  0.88200  0.43816  0.75651  1.0000
  H   H3622     1.0  0.92079  0.56969  0.58370  1.0000
  C   C4539     1.0  0.85001  0.54414  0.57038  1.0000
  C   C4540     1.0  0.87579  0.39000  0.82884  1.0000
  C   C4541     1.0  0.84874  0.40767  0.92737  1.0000
  H   H3623     1.0  0.82478  0.49413  0.77663  1.0000
  C   C4542     1.0  0.74653  0.40528  0.75807  1.0000
  H   H3624     1.0  0.73821  0.47372  0.53618  1.0000
  S   S609      1.0  0.87497  0.58200  0.78129  1.0000
  C   C4543     1.0  0.95640  0.58174  0.71295  1.0000
  C   C4544     1.0  0.66386  0.39799  0.47736  1.0000
  H   H3625     1.0  0.80258  0.41439  0.56125  1.0000
  C   C4545     1.0  0.94654  0.41838  0.68229  1.0000
  C   C4546     1.0  0.95271  0.43567  0.71428  1.0000
  C   C4547     1.0  0.86521  0.47359  0.54901  1.0000
  C   C4548     1.0  0.71181  0.40890  0.67410  1.0000
  C   C4549     1.0  0.88450  0.39145  0.91821  1.0000
  C   C4550     1.0  0.88571  0.52680  0.56821  1.0000
  H   H3626     1.0  0.80885  0.46731  0.58443  1.0000
  C   C4551     1.0  0.84861  0.46298  0.55232  1.0000
  H   H3627     1.0  0.83369  0.54357  0.57192  1.0000
  S   S610      1.0  0.67558  0.57479  0.84445  1.0000
  C   C4552     1.0  0.94781  0.57562  0.56129  1.0000
  H   H3628     1.0  0.83143  0.52920  0.76001  1.0000
  H   H3629     1.0  0.98108  0.42311  0.61500  1.0000
  H   H3630     1.0  0.49865  0.40662  0.67466  1.0000
  C   C4553     1.0  0.98855  0.46720  0.82408  1.0000
  C   C4554     1.0  0.83612  0.45795  0.66783  1.0000
  H   H3631     1.0  0.87710  0.46822  0.55855  1.0000
  H   H3632     1.0  0.85135  0.51196  0.51004  1.0000
  H   H3633     1.0  0.52530  0.48857  0.56578  1.0000
  C   C4555     1.0  0.75055  0.56128  0.68719  1.0000
  H   H3634     1.0  0.67107  0.56611  0.78639  1.0000
  H   H3635     1.0  0.75166  0.39449  0.64340  1.0000
  H   H3636     1.0  0.80727  0.56593  0.76582  1.0000
  H   H3637     1.0  0.77873  0.39100  0.75492  1.0000
  H   H3638     1.0  0.73043  0.39669  0.61654  1.0000
  C   C4556     1.0  0.81751  0.43384  0.49115  1.0000
  H   H3639     1.0  0.97509  0.44387  0.75191  1.0000
  C   C4557     1.0  0.75521  0.57075  0.70180  1.0000
  C   C4558     1.0  0.95836  0.49424  0.77157  1.0000
  C   C4559     1.0  0.82209  0.39501  0.65689  1.0000
  H   H3640     1.0  0.96557  0.39243  0.71832  1.0000
  C   C4560     1.0  0.71415  0.57478  0.69669  1.0000
  H   H3641     1.0  0.98185  0.44087  0.69539  1.0000
  C   C4561     1.0  0.89565  0.57326  0.66118  1.0000
  C   C4562     1.0  0.92645  0.57689  0.56818  1.0000
  C   C4563     1.0  0.88604  0.39256  0.84390  1.0000
  H   H3642     1.0  0.78627  0.40322  0.71770  1.0000
  C   C4564     1.0  0.86831  0.39960  0.93264  1.0000
  H   H3643     1.0  0.98057  0.55656  0.64582  1.0000
  C   C4565     1.0  0.76940  0.57503  0.84901  1.0000
  H   H3644     1.0  0.76292  0.45639  0.48272  1.0000
  P   P155      1.0  0.98052  0.45649  0.78903  1.0000
  H   H3645     1.0  0.76062  0.56658  0.84299  1.0000
  H   H3646     1.0  0.85386  0.58035  0.60205  1.0000
  C   C4566     1.0  0.74468  0.38551  0.61715  1.0000
  H   H3647     1.0  0.77116  0.56875  0.70383  1.0000
  C   C4567     1.0  0.59756  0.54095  0.47936  1.0000
  C   C4568     1.0  0.57443  0.38552  0.59775  1.0000
  H   H3648     1.0  0.77774  0.38522  0.68928  1.0000
  H   H3649     1.0  0.59738  0.38822  0.54766  1.0000
  C   C4569     1.0  0.94381  0.58141  0.61661  1.0000
  H   H3650     1.0  0.83969  0.57419  0.83779  1.0000
  C   C4570     1.0  0.82321  0.58235  0.69790  1.0000
  S   S611      1.0  0.80156  0.58176  0.58499  1.0000
  H   H3651     1.0  0.75926  0.57629  0.96729  1.0000
  C   C4571     1.0  0.72837  0.57011  0.96954  1.0000
  C   C4572     1.0  0.76171  0.57574  0.74767  1.0000
  C   C4573     1.0  0.84058  0.57769  0.96990  1.0000
  C   C4574     1.0  0.65272  0.58121  0.96633  1.0000
  H   H3652     1.0  0.49362  0.38402  0.52468  1.0000
  C   C4575     1.0  0.78055  0.57907  0.75130  1.0000
  H   H3653     1.0  0.49051  0.54245  0.76525  1.0000
  H   H3654     1.0  0.86025  0.38583  0.55768  1.0000
  C   C4576     1.0  0.78542  0.38653  0.51344  1.0000
  H   H3655     1.0  0.84465  0.57702  0.56886  1.0000
  H   H3656     1.0  0.69822  0.57621  0.69480  1.0000
  C   C4577     1.0  0.79502  0.51283  0.97455  1.0000
  H   H3657     1.0  0.72291  0.58138  0.77379  1.0000
  H   H3658     1.0  0.69562  0.56959  0.97256  1.0000
  C   C4578     1.0  0.98771  0.48367  0.62731  1.0000
  C   C4579     1.0  0.85021  0.58196  0.88265  1.0000
  C   C4580     1.0  0.74292  0.58264  0.96897  1.0000
  C   C4581     1.0  0.79196  0.58197  0.93439  1.0000
  C   C4582     1.0  0.80765  0.38381  0.66993  1.0000
  C   C4583     1.0  0.73135  0.39517  0.47467  1.0000
  C   C4584     1.0  0.84976  0.55692  0.97453  1.0000
  H   H3659     1.0  0.80145  0.40198  0.47471  1.0000
  Fe  Fe303     1.0  0.85763  0.75288  0.05686  1.0000
  S   S612      1.0  0.84608  0.72610  0.07896  1.0000
  S   S613      1.0  0.88664  0.74738  0.03391  1.0000
  C   C4585     1.0  0.53541  0.61716  0.98307  1.0000
  S   S614      1.0  0.54144  0.61470  0.16269  1.0000
  H   H3660     1.0  0.79437  0.77251  0.46590  1.0000
  H   H3661     1.0  0.57770  0.73729  0.40270  1.0000
  Fe  Fe304     1.0  0.54176  0.59491  0.13975  1.0000
  S   S615      1.0  0.54007  0.60680  0.10613  1.0000
  C   C4586     1.0  0.85762  0.73742  0.97627  1.0000
  Fe  Fe305     1.0  0.64480  0.61970  0.99502  1.0000
  C   C4587     1.0  0.73348  0.62801  0.04502  1.0000
  Fe  Fe306     1.0  0.62663  0.64955  0.02523  1.0000
  S   S616      1.0  0.63705  0.67672  0.00255  1.0000
  S   S617      1.0  0.61435  0.65211  0.05855  1.0000
  C   C4588     1.0  0.88438  0.62637  0.19271  1.0000
  C   C4589     1.0  0.51009  0.73867  0.18869  1.0000
  Fe  Fe307     1.0  0.66684  0.65446  0.99596  1.0000
  S   S618      1.0  0.69801  0.66314  0.99358  1.0000
  S   S619      1.0  0.61323  0.63838  0.00266  1.0000
  S   S620      1.0  0.65710  0.62827  0.01983  1.0000
  Fe  Fe308     1.0  0.57621  0.67625  0.43223  1.0000
  S   S621      1.0  0.58236  0.69201  0.39914  1.0000
  H   H3662     1.0  0.81743  0.71156  0.99761  1.0000
  Fe  Fe309     1.0  0.54100  0.65685  0.42427  1.0000
  S   S622      1.0  0.54440  0.67174  0.39132  1.0000
  S   S623      1.0  0.51716  0.63593  0.43776  1.0000
  Fe  Fe310     1.0  0.57849  0.66218  0.39112  1.0000
  S   S624      1.0  0.59873  0.64658  0.36542  1.0000
  Fe  Fe311     1.0  0.54763  0.69981  0.40247  1.0000
  S   S625      1.0  0.52877  0.73115  0.39325  1.0000
  S   S626      1.0  0.57510  0.64558  0.42376  1.0000
  S   S627      1.0  0.54162  0.68574  0.43600  1.0000
  C   C4590     1.0  0.56775  0.59921  0.37096  1.0000
  Fe  Fe312     1.0  0.92213  0.63863  0.12976  1.0000
  S   S628      1.0  0.92887  0.62693  0.09978  1.0000
  S   S629      1.0  0.90698  0.67053  0.13610  1.0000
  Fe  Fe313     1.0  0.94525  0.59973  0.15246  1.0000
  H   H3663     1.0  0.97718  0.69855  0.37253  1.0000
  H   H3664     1.0  0.98222  0.76305  0.19565  1.0000
  Fe  Fe314     1.0  0.96078  0.61467  0.10724  1.0000
  C   C4591     1.0  0.92399  0.63702  0.35226  1.0000
  Fe  Fe315     1.0  0.92036  0.59719  0.11940  1.0000
  S   S630      1.0  0.95491  0.62928  0.13516  1.0000
  S   S631      1.0  0.91165  0.60976  0.14906  1.0000
  C   C4592     1.0  0.79313  0.69947  0.16434  1.0000
  C   C4593     1.0  0.84096  0.73075  0.99061  1.0000
  S   S632      1.0  0.83374  0.74998  0.44839  1.0000
  H   H3665     1.0  0.96844  0.67391  0.35484  1.0000
  H   H3666     1.0  0.86840  0.64109  0.06895  1.0000
  C   C4594     1.0  0.97583  0.58730  0.98249  1.0000
  C   C4595     1.0  0.95498  0.67541  0.18864  1.0000
  C   C4596     1.0  0.57511  0.59315  0.46829  1.0000
  C   C4597     1.0  0.69798  0.59662  0.08794  1.0000
  Fe  Fe316     1.0  0.51916  0.59564  0.18393  1.0000
  H   H3667     1.0  0.98453  0.67656  0.16896  1.0000
  C   C4598     1.0  0.49609  0.61055  0.98047  1.0000
  C   C4599     1.0  0.80330  0.71486  0.15148  1.0000
  C   C4600     1.0  0.96322  0.70874  0.10677  1.0000
  C   C4601     1.0  0.97962  0.73679  0.13387  1.0000
  C   C4602     1.0  0.93772  0.69698  0.15430  1.0000
  C   C4603     1.0  0.51104  0.59382  0.98687  1.0000
  H   H3668     1.0  0.78884  0.75002  0.44369  1.0000
  C   C4604     1.0  0.59492  0.71324  0.47108  1.0000
  C   C4605     1.0  0.55836  0.65300  0.00654  1.0000
  H   H3669     1.0  0.50109  0.67058  0.23995  1.0000
  H   H3670     1.0  0.55748  0.67735  0.02321  1.0000
  C   C4606     1.0  0.92487  0.69143  0.17300  1.0000
  C   C4607     1.0  0.68120  0.75808  0.45954  1.0000
  C   C4608     1.0  0.78693  0.60085  0.17892  1.0000
  C   C4609     1.0  0.70221  0.75756  0.45987  1.0000
  C   C4610     1.0  0.53403  0.74345  0.36751  1.0000
  C   C4611     1.0  0.52405  0.76381  0.36186  1.0000
  C   C4612     1.0  0.62351  0.77331  0.44114  1.0000
  C   C4613     1.0  0.54230  0.76442  0.32677  1.0000
  C   C4614     1.0  0.55208  0.74390  0.33225  1.0000
  C   C4615     1.0  0.54804  0.73343  0.35267  1.0000
  H   H3671     1.0  0.51308  0.77157  0.37318  1.0000
  H   H3672     1.0  0.56293  0.73618  0.32080  1.0000
  H   H3673     1.0  0.55577  0.71769  0.35695  1.0000
  C   C4616     1.0  0.59170  0.62351  0.36267  1.0000
  C   C4617     1.0  0.60516  0.61067  0.34980  1.0000
  C   C4618     1.0  0.77918  0.77400  0.46211  1.0000
  H   H3674     1.0  0.96382  0.77594  0.10418  1.0000
  C   C4619     1.0  0.57289  0.61778  0.37314  1.0000
  H   H3675     1.0  0.61976  0.61502  0.34175  1.0000
  H   H3676     1.0  0.64649  0.58456  0.22501  1.0000
  H   H3677     1.0  0.56226  0.62762  0.38295  1.0000
  C   C4620     1.0  0.55796  0.67350  0.00829  1.0000
  C   C4621     1.0  0.93617  0.70876  0.08770  1.0000
  H   H3678     1.0  0.94689  0.72624  0.17675  1.0000
  C   C4622     1.0  0.54523  0.58400  0.26898  1.0000
  H   H3679     1.0  0.97834  0.59968  0.03786  1.0000
  C   C4623     1.0  0.50092  0.63555  0.40260  1.0000
  C   C4624     1.0  0.83045  0.71631  0.98652  1.0000
  H   H3680     1.0  0.51305  0.64363  0.39347  1.0000
  H   H3681     1.0  0.97671  0.63326  0.30086  1.0000
  C   C4625     1.0  0.71174  0.64915  0.01316  1.0000
  C   C4626     1.0  0.71264  0.62772  0.01965  1.0000
  C   C4627     1.0  0.72391  0.61707  0.03531  1.0000
  C   C4628     1.0  0.78852  0.75797  0.01134  1.0000
  C   C4629     1.0  0.73226  0.64942  0.03869  1.0000
  C   C4630     1.0  0.72177  0.65988  0.02259  1.0000
  H   H3682     1.0  0.70477  0.61933  0.01261  1.0000
  H   H3683     1.0  0.73967  0.65793  0.04612  1.0000
  H   H3684     1.0  0.72113  0.67638  0.01767  1.0000
  H   H3685     1.0  0.58735  0.59944  0.26694  1.0000
  P   P156      1.0  0.83316  0.64601  0.15260  1.0000
  H   H3686     1.0  0.55303  0.59509  0.37878  1.0000
  H   H3687     1.0  0.52995  0.76458  0.21255  1.0000
  C   C4631     1.0  0.59257  0.64109  0.07148  1.0000
  C   C4632     1.0  0.58924  0.63641  0.09302  1.0000
  C   C4633     1.0  0.57278  0.62639  0.10383  1.0000
  C   C4634     1.0  0.55912  0.62167  0.09314  1.0000
  C   C4635     1.0  0.56179  0.62737  0.07163  1.0000
  C   C4636     1.0  0.57878  0.63666  0.06077  1.0000
  H   H3688     1.0  0.59979  0.64001  0.10133  1.0000
  H   H3689     1.0  0.57088  0.62198  0.12038  1.0000
  H   H3690     1.0  0.55118  0.62385  0.06333  1.0000
  H   H3691     1.0  0.58127  0.64036  0.04417  1.0000
  H   H3692     1.0  0.94752  0.62048  0.05531  1.0000
  H   H3693     1.0  0.92336  0.70218  0.08588  1.0000
  C   C4637     1.0  0.49966  0.63024  0.42409  1.0000
  C   C4638     1.0  0.86557  0.71143  0.09240  1.0000
  C   C4639     1.0  0.87271  0.71999  0.10617  1.0000
  C   C4640     1.0  0.88568  0.70734  0.11939  1.0000
  C   C4641     1.0  0.89213  0.68627  0.11832  1.0000
  C   C4642     1.0  0.88611  0.67803  0.10360  1.0000
  C   C4643     1.0  0.87262  0.69057  0.09080  1.0000
  H   H3694     1.0  0.86769  0.73621  0.10703  1.0000
  H   H3695     1.0  0.89064  0.71385  0.13051  1.0000
  H   H3696     1.0  0.89139  0.66190  0.10249  1.0000
  H   H3697     1.0  0.86751  0.68414  0.07975  1.0000
  C   C4644     1.0  0.60388  0.61956  0.46189  1.0000
  H   H3698     1.0  0.58352  0.72103  0.46152  1.0000
  C   C4645     1.0  0.72479  0.62959  0.12545  1.0000
  C   C4646     1.0  0.73565  0.64477  0.11324  1.0000
  C   C4647     1.0  0.72830  0.65701  0.09591  1.0000
  C   C4648     1.0  0.71001  0.65422  0.09082  1.0000
  C   C4649     1.0  0.69888  0.63915  0.10312  1.0000
  C   C4650     1.0  0.70649  0.62677  0.12041  1.0000
  P   P157      1.0  0.67545  0.63498  0.09654  1.0000
  C   C4651     1.0  0.66513  0.65712  0.07888  1.0000
  C   C4652     1.0  0.68075  0.61221  0.08465  1.0000
  C   C4653     1.0  0.66787  0.61018  0.07150  1.0000
  C   C4654     1.0  0.96664  0.63805  0.34210  1.0000
  C   C4655     1.0  0.93121  0.65318  0.33764  1.0000
  H   H3699     1.0  0.74144  0.77642  0.98487  1.0000
  C   C4656     1.0  0.67377  0.65946  0.05792  1.0000
  C   C4657     1.0  0.66569  0.67626  0.04402  1.0000
  C   C4658     1.0  0.64874  0.69070  0.05088  1.0000
  C   C4659     1.0  0.64004  0.68854  0.07175  1.0000
  C   C4660     1.0  0.64823  0.67188  0.08574  1.0000
  C   C4661     1.0  0.65595  0.63229  0.11936  1.0000
  C   C4662     1.0  0.65622  0.64189  0.13589  1.0000
  C   C4663     1.0  0.63996  0.64177  0.15266  1.0000
  C   C4664     1.0  0.62317  0.63243  0.15287  1.0000
  C   C4665     1.0  0.62279  0.62279  0.13655  1.0000
  C   C4666     1.0  0.63910  0.62276  0.11980  1.0000
  H   H3700     1.0  0.73077  0.61975  0.13859  1.0000
  H   H3701     1.0  0.75002  0.64671  0.11693  1.0000
  H   H3702     1.0  0.73708  0.66828  0.08603  1.0000
  H   H3703     1.0  0.70493  0.66352  0.07705  1.0000
  H   H3704     1.0  0.69840  0.61474  0.12981  1.0000
  H   H3705     1.0  0.65448  0.62198  0.06868  1.0000
  H   H3706     1.0  0.50802  0.74217  0.23751  1.0000
  H   H3707     1.0  0.89676  0.62162  0.20170  1.0000
  H   H3708     1.0  0.68658  0.64812  0.05232  1.0000
  H   H3709     1.0  0.67229  0.67784  0.02784  1.0000
  H   H3710     1.0  0.64209  0.70329  0.03994  1.0000
  H   H3711     1.0  0.62654  0.69942  0.07696  1.0000
  H   H3712     1.0  0.64094  0.67039  0.10173  1.0000
  H   H3713     1.0  0.66862  0.65004  0.13559  1.0000
  H   H3714     1.0  0.64016  0.64923  0.16534  1.0000
  H   H3715     1.0  0.61036  0.63280  0.16565  1.0000
  H   H3716     1.0  0.60967  0.61558  0.13678  1.0000
  H   H3717     1.0  0.63813  0.61590  0.10698  1.0000
  C   C4667     1.0  0.95980  0.73310  0.07489  1.0000
  H   H3718     1.0  0.96415  0.74171  0.13024  1.0000
  H   H3719     1.0  0.81039  0.63402  0.19393  1.0000
  H   H3720     1.0  0.90819  0.69530  0.17402  1.0000
  C   C4668     1.0  0.87290  0.61193  0.19086  1.0000
  C   C4669     1.0  0.94684  0.70009  0.10408  1.0000
  C   C4670     1.0  0.77113  0.72687  0.00305  1.0000
  C   C4671     1.0  0.67245  0.59310  0.06147  1.0000
  C   C4672     1.0  0.71310  0.74037  0.47142  1.0000
  H   H3721     1.0  0.55540  0.76357  0.42171  1.0000
  S   S633      1.0  0.87053  0.75662  0.98020  1.0000
  H   H3722     1.0  0.81880  0.66513  0.11376  1.0000
  C   C4673     1.0  0.95465  0.78000  0.18385  1.0000
  C   C4674     1.0  0.52579  0.76690  0.22836  1.0000
  C   C4675     1.0  0.81442  0.62893  0.16260  1.0000
  H   H3723     1.0  0.84198  0.64948  0.98448  1.0000
  H   H3724     1.0  0.85966  0.65824  0.01107  1.0000
  H   H3725     1.0  0.83438  0.66339  0.07759  1.0000
  H   H3726     1.0  0.54214  0.58394  0.99297  1.0000
  C   C4676     1.0  0.52031  0.63388  0.97659  1.0000
  C   C4677     1.0  0.58249  0.77891  0.16303  1.0000
  C   C4678     1.0  0.77360  0.74459  0.98822  1.0000
  C   C4679     1.0  0.58696  0.60999  0.27719  1.0000
  C   C4680     1.0  0.59402  0.58920  0.45482  1.0000
  H   H3727     1.0  0.94953  0.77363  0.22611  1.0000
  H   H3728     1.0  0.72470  0.60056  0.04022  1.0000
  H   H3729     1.0  0.50112  0.62623  0.28319  1.0000
  C   C4681     1.0  0.94777  0.78274  0.10893  1.0000
  H   H3730     1.0  0.97697  0.61648  0.99006  1.0000
  S   S634      1.0  0.74558  0.61617  0.06628  1.0000
  C   C4682     1.0  0.57071  0.63433  0.23287  1.0000
  C   C4683     1.0  0.98080  0.65638  0.07694  1.0000
  C   C4684     1.0  0.56940  0.60384  0.00680  1.0000
  C   C4685     1.0  0.60446  0.62239  0.29885  1.0000
  C   C4686     1.0  0.98476  0.60059  0.99002  1.0000
  S   S635      1.0  0.59522  0.59638  0.18070  1.0000
  H   H3731     1.0  0.62285  0.60041  0.44110  1.0000
  H   H3732     1.0  0.63482  0.58435  0.36900  1.0000
  C   C4687     1.0  0.97699  0.61634  0.03507  1.0000
  C   C4688     1.0  0.57296  0.75274  0.39452  1.0000
  C   C4689     1.0  0.86963  0.60057  0.98793  1.0000
  Fe  Fe317     1.0  0.56590  0.58941  0.17478  1.0000
  C   C4690     1.0  0.94259  0.72534  0.07317  1.0000
  H   H3733     1.0  0.55798  0.64138  0.02032  1.0000
  H   H3734     1.0  0.55338  0.58707  0.25336  1.0000
  H   H3735     1.0  0.55464  0.64719  0.30159  1.0000
  C   C4691     1.0  0.50772  0.65583  0.34070  1.0000
  C   C4692     1.0  0.73969  0.77734  0.45271  1.0000
  C   C4693     1.0  0.95935  0.62810  0.04483  1.0000
  C   C4694     1.0  0.58993  0.75790  0.16924  1.0000
  H   H3736     1.0  0.55109  0.58525  0.05705  1.0000
  H   H3737     1.0  0.96984  0.60967  0.36449  1.0000
  C   C4695     1.0  0.50439  0.64151  0.28251  1.0000
  C   C4696     1.0  0.82249  0.70938  0.13931  1.0000
  H   H3738     1.0  0.55864  0.70475  0.99204  1.0000
  C   C4697     1.0  0.55855  0.68893  0.99078  1.0000
  C   C4698     1.0  0.60011  0.59191  0.34781  1.0000
  C   C4699     1.0  0.86146  0.64163  0.08488  1.0000
  H   H3739     1.0  0.97132  0.67608  0.02636  1.0000
  C   C4700     1.0  0.61856  0.58717  0.08759  1.0000
  C   C4701     1.0  0.84414  0.64376  0.12616  1.0000
  Fe  Fe318     1.0  0.62634  0.66366  0.97925  1.0000
  H   H3740     1.0  0.95783  0.66639  0.32126  1.0000
  H   H3741     1.0  0.93462  0.73179  0.06021  1.0000
  H   H3742     1.0  0.87800  0.77710  0.45328  1.0000
  Fe  Fe319     1.0  0.82686  0.78279  0.43086  1.0000
  H   H3743     1.0  0.51328  0.72254  0.19572  1.0000
  C   C4702     1.0  0.80210  0.67856  0.16495  1.0000
  H   H3744     1.0  0.50482  0.64259  0.33564  1.0000
  H   H3745     1.0  0.88072  0.59068  0.97845  1.0000
  C   C4703     1.0  0.61485  0.75848  0.41508  1.0000
  C   C4704     1.0  0.49337  0.67840  0.22712  1.0000
  C   C4705     1.0  0.87168  0.62973  0.10057  1.0000
  C   C4706     1.0  0.57469  0.63720  0.21139  1.0000
  C   C4707     1.0  0.57870  0.75731  0.37317  1.0000
  H   H3746     1.0  0.54391  0.66897  0.27122  1.0000
  H   H3747     1.0  0.97974  0.73445  0.00206  1.0000
  C   C4708     1.0  0.61966  0.75629  0.43465  1.0000
  H   H3748     1.0  0.59902  0.74865  0.15800  1.0000
  H   H3749     1.0  0.58912  0.59263  0.07789  1.0000
  H   H3750     1.0  0.93241  0.60886  0.37318  1.0000
  C   C4709     1.0  0.51424  0.77273  0.26924  1.0000
  H   H3751     1.0  0.77026  0.68471  0.98300  1.0000
  C   C4710     1.0  0.86312  0.63079  0.12117  1.0000
  H   H3752     1.0  0.58251  0.63614  0.24077  1.0000
  H   H3753     1.0  0.92033  0.66532  0.33023  1.0000
  H   H3754     1.0  0.84646  0.68461  0.13050  1.0000
  H   H3755     1.0  0.58597  0.64559  0.31593  1.0000
  C   C4711     1.0  0.84324  0.69888  0.03636  1.0000
  C   C4712     1.0  0.84233  0.65422  0.08976  1.0000
  H   H3756     1.0  0.62293  0.60140  0.07833  1.0000
  C   C4713     1.0  0.52664  0.74821  0.17736  1.0000
  H   H3757     1.0  0.97241  0.68943  0.06894  1.0000
  S   S636      1.0  0.92466  0.77727  0.04701  1.0000
  C   C4714     1.0  0.49484  0.68689  0.35583  1.0000
  C   C4715     1.0  0.50279  0.78019  0.16968  1.0000
  C   C4716     1.0  0.98420  0.67615  0.06669  1.0000
  H   H3758     1.0  0.88643  0.61989  0.09673  1.0000
  C   C4717     1.0  0.49375  0.58607  0.26071  1.0000
  H   H3759     1.0  0.94253  0.68643  0.11445  1.0000
  H   H3760     1.0  0.59199  0.73267  0.19488  1.0000
  H   H3761     1.0  0.98175  0.76698  0.13842  1.0000
  H   H3762     1.0  0.53578  0.77628  0.15893  1.0000
  C   C4718     1.0  0.59033  0.59466  0.00625  1.0000
  C   C4719     1.0  0.57433  0.76082  0.20452  1.0000
  C   C4720     1.0  0.80909  0.61760  0.14983  1.0000
  C   C4721     1.0  0.60315  0.58824  0.20481  1.0000
  H   H3763     1.0  0.87182  0.68802  0.01733  1.0000
  H   H3764     1.0  0.89006  0.65766  0.18283  1.0000
  C   C4722     1.0  0.56107  0.58361  0.42821  1.0000
  C   C4723     1.0  0.84902  0.66873  0.02014  1.0000
  C   C4724     1.0  0.53943  0.59952  0.28121  1.0000
  H   H3765     1.0  0.87145  0.62160  0.13304  1.0000
  C   C4725     1.0  0.51178  0.68151  0.28015  1.0000
  Fe  Fe320     1.0  0.76301  0.58340  0.07024  1.0000
  C   C4726     1.0  0.52835  0.66552  0.27589  1.0000
  C   C4727     1.0  0.94901  0.74121  0.17875  1.0000
  H   H3766     1.0  0.81595  0.61899  0.13372  1.0000
  H   H3767     1.0  0.58957  0.64061  0.20299  1.0000
  H   H3768     1.0  0.61861  0.59824  0.28121  1.0000
  C   C4728     1.0  0.50774  0.75695  0.26296  1.0000
  C   C4729     1.0  0.96601  0.74275  0.18692  1.0000
  H   H3769     1.0  0.57158  0.75370  0.22060  1.0000
  H   H3770     1.0  0.84754  0.75585  0.13282  1.0000
  C   C4730     1.0  0.98225  0.58389  0.20963  1.0000
  C   C4731     1.0  0.97601  0.61584  0.18564  1.0000
  C   C4732     1.0  0.95721  0.64965  0.04145  1.0000
  C   C4733     1.0  0.95244  0.65372  0.33258  1.0000
  H   H3771     1.0  0.92351  0.67594  0.20453  1.0000
  C   C4734     1.0  0.71850  0.78063  0.41868  1.0000
  C   C4735     1.0  0.77595  0.76112  0.44975  1.0000
  C   C4736     1.0  0.49104  0.66710  0.21285  1.0000
  H   H3772     1.0  0.79374  0.66700  0.17474  1.0000
  C   C4737     1.0  0.60838  0.60258  0.45173  1.0000
  H   H3773     1.0  0.79126  0.73842  0.04065  1.0000
  H   H3774     1.0  0.93055  0.70583  0.14152  1.0000
  H   H3775     1.0  0.83914  0.59791  0.03499  1.0000
  C   C4738     1.0  0.55528  0.60038  0.02527  1.0000
  H   H3776     1.0  0.96131  0.59296  0.97682  1.0000
  H   H3777     1.0  0.96639  0.65456  0.08734  1.0000
  C   C4739     1.0  0.88055  0.64669  0.18216  1.0000
  S   S637      1.0  0.95732  0.58387  0.18199  1.0000
  P   P158      1.0  0.71445  0.77935  0.44622  1.0000
  H   H3778     1.0  0.93862  0.77694  0.26260  1.0000
  H   H3779     1.0  0.79627  0.73103  0.15084  1.0000
  S   S638      1.0  0.83815  0.77124  0.03378  1.0000
  C   C4740     1.0  0.79539  0.60362  0.15799  1.0000
  H   H3780     1.0  0.84896  0.71168  0.03948  1.0000
  C   C4741     1.0  0.62294  0.59083  0.20616  1.0000
  C   C4742     1.0  0.86270  0.62115  0.97957  1.0000
  C   C4743     1.0  0.79221  0.61200  0.19177  1.0000
  H   H3781     1.0  0.61469  0.63024  0.45899  1.0000
  H   H3782     1.0  0.92200  0.75782  0.16616  1.0000
  C   C4744     1.0  0.85761  0.61780  0.17846  1.0000
  H   H3783     1.0  0.87634  0.59601  0.19852  1.0000
  H   H3784     1.0  0.53923  0.60798  0.02632  1.0000
  C   C4745     1.0  0.97004  0.72496  0.09168  1.0000
  C   C4746     1.0  0.56855  0.63686  0.29655  1.0000
  H   H3785     1.0  0.54229  0.73947  0.17584  1.0000
  C   C4747     1.0  0.98444  0.67292  0.35607  1.0000
  C   C4748     1.0  0.49788  0.59040  0.23913  1.0000
  H   H3786     1.0  0.76502  0.62059  0.00222  1.0000
  Fe  Fe321     1.0  0.86769  0.76727  0.01094  1.0000
  C   C4749     1.0  0.96787  0.68068  0.16987  1.0000
  H   H3787     1.0  0.96886  0.62496  0.17299  1.0000
  H   H3788     1.0  0.76461  0.71472  0.99977  1.0000
  C   C4750     1.0  0.93801  0.62140  0.36185  1.0000
  H   H3789     1.0  0.96168  0.66705  0.20198  1.0000
  H   H3790     1.0  0.93574  0.76617  0.09129  1.0000
  C   C4751     1.0  0.97296  0.59540  0.19294  1.0000
  H   H3791     1.0  0.70313  0.76263  0.38165  1.0000
  C   C4752     1.0  0.70784  0.76984  0.40979  1.0000
  C   C4753     1.0  0.78212  0.76040  0.99231  1.0000
  S   S639      1.0  0.49087  0.61345  0.20151  1.0000
  C   C4754     1.0  0.52487  0.64520  0.27788  1.0000
  C   C4755     1.0  0.78609  0.74020  0.02611  1.0000
  C   C4756     1.0  0.71147  0.77087  0.38844  1.0000
  C   C4757     1.0  0.52806  0.65795  0.34046  1.0000
  C   C4758     1.0  0.53188  0.67530  0.34640  1.0000
  C   C4759     1.0  0.51531  0.68974  0.35412  1.0000
  C   C4760     1.0  0.82147  0.67291  0.15284  1.0000
  C   C4761     1.0  0.93348  0.68051  0.19013  1.0000
  S   S640      1.0  0.59607  0.67639  0.45608  1.0000
  C   C4762     1.0  0.96894  0.76208  0.18931  1.0000
  C   C4763     1.0  0.52968  0.59471  0.30170  1.0000
  H   H3792     1.0  0.53146  0.59556  0.41875  1.0000
  H   H3793     1.0  0.77560  0.71083  0.03338  1.0000
  H   H3794     1.0  0.65249  0.58917  0.16055  1.0000
  H   H3795     1.0  0.54086  0.64601  0.33599  1.0000
  H   H3796     1.0  0.54770  0.67714  0.34580  1.0000
  H   H3797     1.0  0.51846  0.70286  0.35926  1.0000
  H   H3798     1.0  0.52948  0.62752  0.20336  1.0000
  H   H3799     1.0  0.51928  0.76721  0.41352  1.0000
  H   H3800     1.0  0.62037  0.74139  0.44477  1.0000
  C   C4764     1.0  0.58593  0.74888  0.18999  1.0000
  H   H3801     1.0  0.58792  0.74540  0.36481  1.0000
  H   H3802     1.0  0.65504  0.74216  0.47042  1.0000
  C   C4765     1.0  0.86508  0.65269  0.16996  1.0000
  H   H3803     1.0  0.77659  0.58976  0.18522  1.0000
  H   H3804     1.0  0.62679  0.77179  0.45651  1.0000
  C   C4766     1.0  0.93497  0.75902  0.17283  1.0000
  H   H3805     1.0  0.61821  0.62167  0.30518  1.0000
  C   C4767     1.0  0.48929  0.69485  0.40288  1.0000
  C   C4768     1.0  0.56888  0.62419  0.28234  1.0000
  C   C4769     1.0  0.53320  0.78212  0.23483  1.0000
  C   C4770     1.0  0.98784  0.62477  0.19518  1.0000
  C   C4771     1.0  0.77733  0.72468  0.02201  1.0000
  H   H3806     1.0  0.61175  0.74523  0.41019  1.0000
  S   S641      1.0  0.86557  0.78044  0.06521  1.0000
  C   C4772     1.0  0.48977  0.69711  0.42284  1.0000
  C   C4773     1.0  0.93768  0.77834  0.17550  1.0000
  P   P159      1.0  0.54625  0.62481  0.27150  1.0000
  H   H3807     1.0  0.56315  0.63665  0.18412  1.0000
  H   H3808     1.0  0.51034  0.77477  0.28518  1.0000
  H   H3809     1.0  0.97708  0.72896  0.19116  1.0000
  C   C4774     1.0  0.52299  0.76894  0.16782  1.0000
  C   C4775     1.0  0.48974  0.74987  0.19050  1.0000
  H   H3810     1.0  0.67233  0.77142  0.45118  1.0000
  H   H3811     1.0  0.52219  0.62252  0.24123  1.0000
  H   H3812     1.0  0.78591  0.60958  0.20808  1.0000
  C   C4776     1.0  0.82380  0.58598  0.98388  1.0000
  H   H3813     1.0  0.51465  0.69696  0.27946  1.0000
  H   H3814     1.0  0.83031  0.72121  0.12902  1.0000
  H   H3815     1.0  0.79179  0.59445  0.14818  1.0000
  H   H3816     1.0  0.83596  0.73698  0.00471  1.0000
  C   C4777     1.0  0.85618  0.68545  0.02396  1.0000
  C   C4778     1.0  0.55979  0.63492  0.20074  1.0000
  C   C4779     1.0  0.55181  0.62889  0.24383  1.0000
  C   C4780     1.0  0.58631  0.63600  0.30473  1.0000
  H   H3817     1.0  0.66260  0.59172  0.05118  1.0000
  C   C4781     1.0  0.77498  0.66972  0.99198  1.0000
  C   C4782     1.0  0.76570  0.65306  0.99150  1.0000
  C   C4783     1.0  0.77229  0.63349  0.00248  1.0000
  C   C4784     1.0  0.78828  0.63052  0.01373  1.0000
  C   C4785     1.0  0.79774  0.64717  0.01419  1.0000
  C   C4786     1.0  0.79093  0.66683  0.00333  1.0000
  P   P160      1.0  0.82000  0.64227  0.02667  1.0000
  C   C4787     1.0  0.81361  0.63039  0.05317  1.0000
  C   C4788     1.0  0.83966  0.62584  0.01184  1.0000
  C   C4789     1.0  0.84609  0.60489  0.01987  1.0000
  C   C4790     1.0  0.95935  0.69090  0.15233  1.0000
  H   H3818     1.0  0.70844  0.59776  0.09766  1.0000
  H   H3819     1.0  0.84940  0.60617  0.17670  1.0000
  C   C4791     1.0  0.84760  0.63369  0.99137  1.0000
  C   C4792     1.0  0.82950  0.62167  0.06462  1.0000
  C   C4793     1.0  0.82472  0.61342  0.08548  1.0000
  C   C4794     1.0  0.80408  0.61378  0.09502  1.0000
  C   C4795     1.0  0.78819  0.62295  0.08388  1.0000
  C   C4796     1.0  0.79288  0.63142  0.06305  1.0000
  C   C4797     1.0  0.82862  0.66555  0.02840  1.0000
  C   C4798     1.0  0.81563  0.67931  0.04062  1.0000
  C   C4799     1.0  0.82298  0.69583  0.04468  1.0000
  H   H3820     1.0  0.77820  0.70373  0.17372  1.0000
  C   C4800     1.0  0.75625  0.76270  0.44512  1.0000
  H   H3821     1.0  0.75398  0.75266  0.43547  1.0000
  H   H3822     1.0  0.90752  0.63660  0.35615  1.0000
  H   H3823     1.0  0.75348  0.65523  0.98254  1.0000
  C   C4801     1.0  0.93201  0.77724  0.10165  1.0000
  H   H3824     1.0  0.79345  0.61519  0.02192  1.0000
  H   H3825     1.0  0.79839  0.67973  0.00300  1.0000
  C   C4802     1.0  0.50633  0.77989  0.41319  1.0000
  Fe  Fe322     1.0  0.89307  0.77698  0.03997  1.0000
  H   H3826     1.0  0.56757  0.77704  0.25551  1.0000
  H   H3827     1.0  0.87361  0.77468  0.13766  1.0000
  C   C4803     1.0  0.80599  0.62590  0.18368  1.0000
  H   H3828     1.0  0.84559  0.62122  0.05741  1.0000
  H   H3829     1.0  0.83707  0.60667  0.09422  1.0000
  H   H3830     1.0  0.80039  0.60657  0.11091  1.0000
  H   H3831     1.0  0.77221  0.62287  0.09121  1.0000
  H   H3832     1.0  0.78029  0.63848  0.05472  1.0000
  H   H3833     1.0  0.80006  0.67681  0.04759  1.0000
  H   H3834     1.0  0.81323  0.70605  0.05465  1.0000
  H   H3835     1.0  0.81675  0.60207  0.98056  1.0000
  H   H3836     1.0  0.63231  0.59866  0.19300  1.0000
  C   C4804     1.0  0.97274  0.65942  0.02837  1.0000
  C   C4805     1.0  0.83360  0.65519  0.11030  1.0000
  H   H3837     1.0  0.52561  0.60625  0.31160  1.0000
  C   C4806     1.0  0.54088  0.62971  0.21157  1.0000
  C   C4807     1.0  0.51326  0.75423  0.24244  1.0000
  C   C4808     1.0  0.55971  0.64773  0.98718  1.0000
  C   C4809     1.0  0.60471  0.60924  0.28528  1.0000
  C   C4810     1.0  0.85334  0.63834  0.16815  1.0000
  C   C4811     1.0  0.83159  0.68854  0.14009  1.0000
  C   C4812     1.0  0.53684  0.62680  0.23303  1.0000
  H   H3838     1.0  0.86281  0.66838  0.16158  1.0000
  C   C4813     1.0  0.56022  0.76774  0.40525  1.0000
  H   H3839     1.0  0.56169  0.59815  0.43240  1.0000
  H   H3840     1.0  0.49972  0.68562  0.43188  1.0000
  H   H3841     1.0  0.96527  0.74532  0.06303  1.0000
  C   C4814     1.0  0.95926  0.62190  0.35684  1.0000
  H   H3842     1.0  0.61004  0.77880  0.38696  1.0000
  H   H3843     1.0  0.69678  0.76060  0.41916  1.0000
  C   C4815     1.0  0.86118  0.59238  0.00799  1.0000
  S   S642      1.0  0.64820  0.58655  0.99148  1.0000
  H   H3844     1.0  0.94379  0.65875  0.04943  1.0000
  C   C4816     1.0  0.96903  0.77721  0.98090  1.0000
  C   C4817     1.0  0.60304  0.69206  0.47106  1.0000
  S   S643      1.0  0.95304  0.58425  0.12468  1.0000
  P   P161      1.0  0.97650  0.69785  0.12840  1.0000
  C   C4818     1.0  0.56637  0.78182  0.19832  1.0000
  C   C4819     1.0  0.52831  0.77431  0.34161  1.0000
  H   H3845     1.0  0.98243  0.65274  0.14448  1.0000
  C   C4820     1.0  0.56193  0.58753  0.04270  1.0000
  H   H3846     1.0  0.98723  0.64157  0.26327  1.0000
  S   S644      1.0  0.54768  0.77785  0.30146  1.0000
  H   H3847     1.0  0.82116  0.77346  0.11106  1.0000
  H   H3848     1.0  0.49836  0.68124  0.39717  1.0000
  H   H3849     1.0  0.49685  0.65061  0.21466  1.0000
  C   C4821     1.0  0.57167  0.77692  0.36254  1.0000
  C   C4822     1.0  0.84710  0.77201  0.12587  1.0000
  H   H3850     1.0  0.57545  0.78020  0.34590  1.0000
  H   H3851     1.0  0.60175  0.59752  0.99250  1.0000
  H   H3852     1.0  0.49854  0.74680  0.27402  1.0000
  C   C4823     1.0  0.58149  0.58598  0.35869  1.0000
  C   C4824     1.0  0.49151  0.67753  0.28543  1.0000
  P   P162      1.0  0.56082  0.62120  0.98463  1.0000
  H   H3853     1.0  0.98351  0.73104  0.09250  1.0000
  C   C4825     1.0  0.53064  0.59708  0.98816  1.0000
  C   C4826     1.0  0.49111  0.67040  0.34816  1.0000
  H   H3854     1.0  0.79565  0.76956  0.01483  1.0000
  C   C4827     1.0  0.61410  0.77764  0.40186  1.0000
  C   C4828     1.0  0.67134  0.74161  0.47040  1.0000
  H   H3855     1.0  0.72920  0.73955  0.47214  1.0000
  C   C4829     1.0  0.83208  0.78199  0.11381  1.0000
  C   C4830     1.0  0.86186  0.78271  0.12856  1.0000
  H   H3856     1.0  0.96106  0.78263  0.05954  1.0000
  H   H3857     1.0  0.56357  0.58338  0.47061  1.0000
  C   C4831     1.0  0.72578  0.78259  0.37583  1.0000
  C   C4832     1.0  0.50073  0.63056  0.97532  1.0000
  H   H3858     1.0  0.68462  0.60619  0.97540  1.0000
  C   C4833     1.0  0.83554  0.74676  0.47460  1.0000
  S   S645      1.0  0.87229  0.61101  0.73546  1.0000
  C   C4834     1.0  0.98395  0.71591  0.73119  1.0000
  Fe  Fe323     1.0  0.85630  0.61199  0.76824  1.0000
  S   S646      1.0  0.84686  0.64211  0.78059  1.0000
  H   H3859     1.0  0.87370  0.59864  0.88459  1.0000
  H   H3860     1.0  0.92562  0.66917  0.60459  1.0000
  Fe  Fe324     1.0  0.82324  0.67065  0.93974  1.0000
  S   S647      1.0  0.85154  0.65180  0.92369  1.0000
  S   S648      1.0  0.82044  0.69254  0.96267  1.0000
  Fe  Fe325     1.0  0.79401  0.64887  0.92499  1.0000
  S   S649      1.0  0.82000  0.62885  0.90773  1.0000
  S   S650      1.0  0.76128  0.64270  0.92997  1.0000
  Fe  Fe326     1.0  0.83497  0.62461  0.93543  1.0000
  H   H3861     1.0  0.67428  0.71227  0.49079  1.0000
  Fe  Fe327     1.0  0.83410  0.65752  0.89724  1.0000
  S   S651      1.0  0.85074  0.66738  0.86486  1.0000
  S   S652      1.0  0.80813  0.64262  0.95347  1.0000
  S   S653      1.0  0.80669  0.67840  0.91239  1.0000
  C   C4835     1.0  0.60904  0.71843  0.95137  1.0000
  C   C4836     1.0  0.84941  0.63641  0.51778  1.0000
  C   C4837     1.0  0.93767  0.58561  0.72663  1.0000
  H   H3862     1.0  0.51350  0.58538  0.72127  1.0000
  Fe  Fe328     1.0  0.57909  0.76497  0.84321  1.0000
  S   S654      1.0  0.59186  0.73692  0.82773  1.0000
  S   S655      1.0  0.55978  0.76032  0.87462  1.0000
  C   C4838     1.0  0.98003  0.69574  0.73867  1.0000
  S   S656      1.0  0.63311  0.76371  0.54857  1.0000
  H   H3863     1.0  0.66185  0.68899  0.53018  1.0000
  Fe  Fe329     1.0  0.62427  0.75853  0.51959  1.0000
  S   S657      1.0  0.62577  0.72608  0.51294  1.0000
  C   C4839     1.0  0.86406  0.58937  0.84015  1.0000
  Fe  Fe330     1.0  0.88390  0.67891  0.58225  1.0000
  S   S658      1.0  0.86836  0.67657  0.61525  1.0000
  S   S659      1.0  0.91272  0.65850  0.56942  1.0000
  Fe  Fe331     1.0  0.84974  0.71202  0.56648  1.0000
  S   S660      1.0  0.83092  0.71160  0.59821  1.0000
  S   S661      1.0  0.83943  0.73914  0.54267  1.0000
  Fe  Fe332     1.0  0.86087  0.71142  0.60794  1.0000
  S   S662      1.0  0.85872  0.73491  0.62817  1.0000
  Fe  Fe333     1.0  0.83969  0.67699  0.60271  1.0000
  S   S663      1.0  0.81722  0.65611  0.62131  1.0000
  S   S664      1.0  0.87927  0.71351  0.57612  1.0000
  S   S665      1.0  0.85565  0.67738  0.56991  1.0000
  C   C4840     1.0  0.51405  0.75772  0.65535  1.0000
  S   S666      1.0  0.72035  0.64239  0.85364  1.0000
  S   S667      1.0  0.66819  0.61726  0.86518  1.0000
  Fe  Fe334     1.0  0.52307  0.62429  0.74463  1.0000
  H   H3864     1.0  0.56037  0.69582  0.95791  1.0000
  H   H3865     1.0  0.76459  0.68460  0.94485  1.0000
  Fe  Fe335     1.0  0.53233  0.65295  0.77480  1.0000
  S   S668      1.0  0.53534  0.62210  0.79914  1.0000
  S   S669      1.0  0.53534  0.70220  0.78263  1.0000
  Fe  Fe336     1.0  0.55414  0.60571  0.77405  1.0000
  C   C4841     1.0  0.96289  0.61616  0.71245  1.0000
  C   C4842     1.0  0.53927  0.69960  0.67468  1.0000
  S   S670      1.0  0.55162  0.63398  0.74972  1.0000
  H   H3866     1.0  0.56146  0.65975  0.95453  1.0000
  C   C4843     1.0  0.97549  0.75938  0.66450  1.0000
  H   H3867     1.0  0.95713  0.72588  0.56552  1.0000
  C   C4844     1.0  0.81480  0.75094  0.92734  1.0000
  H   H3868     1.0  0.84998  0.61046  0.50347  1.0000
  H   H3869     1.0  0.98574  0.74076  0.61992  1.0000
  C   C4845     1.0  0.62693  0.61493  0.80710  1.0000
  C   C4846     1.0  0.87902  0.59755  0.58883  1.0000
  C   C4847     1.0  0.59564  0.61771  0.79285  1.0000
  C   C4848     1.0  0.60858  0.62670  0.80100  1.0000
  H   H3870     1.0  0.58141  0.62666  0.78849  1.0000
  H   H3871     1.0  0.60423  0.64279  0.80278  1.0000
  H   H3872     1.0  0.84796  0.70879  0.51496  1.0000
  C   C4849     1.0  0.81416  0.63488  0.61118  1.0000
  C   C4850     1.0  0.80472  0.61898  0.62430  1.0000
  C   C4851     1.0  0.80138  0.60228  0.61655  1.0000
  C   C4852     1.0  0.80694  0.60166  0.59550  1.0000
  C   C4853     1.0  0.81634  0.61758  0.58237  1.0000
  C   C4854     1.0  0.82014  0.63401  0.59020  1.0000
  H   H3873     1.0  0.79992  0.61959  0.64051  1.0000
  H   H3874     1.0  0.51714  0.77526  0.81131  1.0000
  C   C4855     1.0  0.97472  0.71025  0.54049  1.0000
  H   H3875     1.0  0.82722  0.64624  0.57991  1.0000
  C   C4856     1.0  0.69661  0.77004  0.59103  1.0000
  H   H3876     1.0  0.91005  0.60513  0.69619  1.0000
  C   C4857     1.0  0.87618  0.76714  0.63174  1.0000
  C   C4858     1.0  0.87866  0.74970  0.62250  1.0000
  C   C4859     1.0  0.89709  0.74410  0.60920  1.0000
  C   C4860     1.0  0.91298  0.75585  0.60524  1.0000
  C   C4861     1.0  0.49342  0.73049  0.66403  1.0000
  H   H3877     1.0  0.63542  0.68504  0.50572  1.0000
  H   H3878     1.0  0.89933  0.73041  0.60243  1.0000
  H   H3879     1.0  0.92744  0.75114  0.59537  1.0000
  C   C4862     1.0  0.61630  0.71416  0.49629  1.0000
  C   C4863     1.0  0.98531  0.68944  0.70381  1.0000
  H   H3880     1.0  0.85290  0.76812  0.57550  1.0000
  C   C4864     1.0  0.50153  0.74455  0.69104  1.0000
  H   H3881     1.0  0.79397  0.59019  0.62676  1.0000
  H   H3882     1.0  0.49190  0.63347  0.48795  1.0000
  H   H3883     1.0  0.78126  0.59531  0.93925  1.0000
  C   C4865     1.0  0.83171  0.76088  0.50567  1.0000
  C   C4866     1.0  0.69481  0.60340  0.77726  1.0000
  C   C4867     1.0  0.97739  0.59070  0.60137  1.0000
  C   C4868     1.0  0.50698  0.77810  0.75344  1.0000
  C   C4869     1.0  0.76033  0.61601  0.71969  1.0000
  C   C4870     1.0  0.84305  0.72407  0.50659  1.0000
  H   H3884     1.0  0.49302  0.67101  0.72752  1.0000
  H   H3885     1.0  0.66094  0.61052  0.95045  1.0000
  H   H3886     1.0  0.73757  0.75756  0.91654  1.0000
  C   C4871     1.0  0.57541  0.72667  0.81672  1.0000
  C   C4872     1.0  0.58248  0.70748  0.81025  1.0000
  C   C4873     1.0  0.57024  0.69940  0.80043  1.0000
  C   C4874     1.0  0.55086  0.71060  0.79658  1.0000
  C   C4875     1.0  0.54384  0.72985  0.80307  1.0000
  C   C4876     1.0  0.55586  0.73763  0.81348  1.0000
  H   H3887     1.0  0.59746  0.69872  0.81293  1.0000
  H   H3888     1.0  0.57624  0.68471  0.79561  1.0000
  H   H3889     1.0  0.52898  0.73873  0.80014  1.0000
  H   H3890     1.0  0.55016  0.75218  0.81889  1.0000
  C   C4877     1.0  0.59708  0.74549  0.92396  1.0000
  C   C4878     1.0  0.59252  0.73044  0.91496  1.0000
  C   C4879     1.0  0.59645  0.70948  0.92393  1.0000
  C   C4880     1.0  0.60529  0.73945  0.94224  1.0000
  H   H3891     1.0  0.58625  0.73492  0.90093  1.0000
  H   H3892     1.0  0.59309  0.69790  0.91671  1.0000
  H   H3893     1.0  0.82470  0.73600  0.92633  1.0000
  C   C4881     1.0  0.97534  0.64483  0.59057  1.0000
  C   C4882     1.0  0.70090  0.59970  0.97337  1.0000
  C   C4883     1.0  0.93892  0.66113  0.59549  1.0000
  C   C4884     1.0  0.93669  0.65515  0.57747  1.0000
  C   C4885     1.0  0.95394  0.64495  0.56567  1.0000
  C   C4886     1.0  0.97315  0.64001  0.57206  1.0000
  C   C4887     1.0  0.60706  0.60672  0.92609  1.0000
  H   H3894     1.0  0.95238  0.64050  0.55165  1.0000
  C   C4888     1.0  0.96890  0.59710  0.70566  1.0000
  H   H3895     1.0  0.62943  0.76205  0.80249  1.0000
  H   H3896     1.0  0.49499  0.63398  0.82670  1.0000
  H   H3897     1.0  0.66009  0.72555  0.53262  1.0000
  C   C4889     1.0  0.49823  0.61384  0.70531  1.0000
  C   C4890     1.0  0.58321  0.77008  0.64832  1.0000
  C   C4891     1.0  0.93662  0.77556  0.68519  1.0000
  C   C4892     1.0  0.85326  0.71465  0.95388  1.0000
  H   H3898     1.0  0.71906  0.67249  0.55374  1.0000
  H   H3899     1.0  0.95887  0.60985  0.63741  1.0000
  H   H3900     1.0  0.87652  0.73428  0.94666  1.0000
  C   C4893     1.0  0.75857  0.70057  0.93880  1.0000
  H   H3901     1.0  0.85796  0.70879  0.93955  1.0000
  H   H3902     1.0  0.96006  0.65976  0.61632  1.0000
  C   C4894     1.0  0.49205  0.73071  0.68490  1.0000
  C   C4895     1.0  0.75125  0.64140  0.90827  1.0000
  C   C4896     1.0  0.75542  0.65508  0.88982  1.0000
  C   C4897     1.0  0.74584  0.65511  0.87321  1.0000
  C   C4898     1.0  0.73255  0.64110  0.87468  1.0000
  C   C4899     1.0  0.72877  0.62701  0.89295  1.0000
  C   C4900     1.0  0.73784  0.62742  0.90983  1.0000
  H   H3903     1.0  0.76548  0.66608  0.88867  1.0000
  H   H3904     1.0  0.74858  0.66608  0.85917  1.0000
  H   H3905     1.0  0.71834  0.61629  0.89431  1.0000
  H   H3906     1.0  0.73433  0.61699  0.92418  1.0000
  H   H3907     1.0  0.71140  0.71108  0.49179  1.0000
  H   H3908     1.0  0.80491  0.59035  0.80886  1.0000
  C   C4901     1.0  0.94440  0.61974  0.72643  1.0000
  C   C4902     1.0  0.93165  0.60469  0.73323  1.0000
  H   H3909     1.0  0.93986  0.63427  0.73197  1.0000
  S   S671      1.0  0.51050  0.63065  0.71428  1.0000
  C   C4903     1.0  0.85055  0.64546  0.80482  1.0000
  C   C4904     1.0  0.84075  0.63515  0.82351  1.0000
  C   C4905     1.0  0.84123  0.64098  0.84237  1.0000
  C   C4906     1.0  0.85143  0.65722  0.84248  1.0000
  C   C4907     1.0  0.86156  0.66702  0.82382  1.0000
  C   C4908     1.0  0.86095  0.66135  0.80517  1.0000
  H   H3910     1.0  0.83215  0.62325  0.82343  1.0000
  H   H3911     1.0  0.83324  0.63338  0.85667  1.0000
  H   H3912     1.0  0.86935  0.67964  0.82371  1.0000
  H   H3913     1.0  0.86811  0.66976  0.79088  1.0000
  C   C4909     1.0  0.93671  0.69960  0.53924  1.0000
  H   H3914     1.0  0.59517  0.74049  0.48376  1.0000
  C   C4910     1.0  0.76833  0.71652  0.94031  1.0000
  H   H3915     1.0  0.98578  0.67921  0.69319  1.0000
  S   S672      1.0  0.83033  0.59793  0.76434  1.0000
  C   C4911     1.0  0.83813  0.74117  0.51658  1.0000
  H   H3916     1.0  0.51218  0.74342  0.87262  1.0000
  C   C4912     1.0  0.81919  0.58397  0.67795  1.0000
  H   H3917     1.0  0.50532  0.74400  0.63304  1.0000
  H   H3918     1.0  0.90187  0.61778  0.58030  1.0000
  H   H3919     1.0  0.92211  0.69517  0.53902  1.0000
  C   C4913     1.0  0.95835  0.65587  0.60210  1.0000
  C   C4914     1.0  0.62417  0.69314  0.49609  1.0000
  C   C4915     1.0  0.61768  0.68229  0.48367  1.0000
  C   C4916     1.0  0.86517  0.60120  0.52995  1.0000
  H   H3920     1.0  0.79333  0.63166  0.67587  1.0000
  C   C4917     1.0  0.87361  0.59641  0.85323  1.0000
  H   H3921     1.0  0.71223  0.67700  0.59104  1.0000
  C   C4918     1.0  0.77206  0.64739  0.72157  1.0000
  C   C4919     1.0  0.65995  0.69734  0.94872  1.0000
  C   C4920     1.0  0.57474  0.60267  0.94941  1.0000
  C   C4921     1.0  0.95672  0.71682  0.55416  1.0000
  Fe  Fe337     1.0  0.66828  0.60918  0.83444  1.0000
  H   H3922     1.0  0.81488  0.75914  0.89475  1.0000
  C   C4922     1.0  0.72222  0.60634  0.74740  1.0000
  S   S673      1.0  0.65724  0.64416  0.97052  1.0000
  H   H3923     1.0  0.50221  0.77845  0.76974  1.0000
  H   H3924     1.0  0.70616  0.59339  0.72023  1.0000
  H   H3925     1.0  0.53343  0.70302  0.66033  1.0000
  S   S674      1.0  0.70172  0.61191  0.82314  1.0000
  S   S675      1.0  0.83159  0.60272  0.70494  1.0000
  S   S676      1.0  0.97789  0.63598  0.70407  1.0000
  C   C4923     1.0  0.56016  0.66339  0.96969  1.0000
  C   C4924     1.0  0.70307  0.72410  0.48256  1.0000
  C   C4925     1.0  0.88536  0.59756  0.68475  1.0000
  C   C4926     1.0  0.77543  0.59454  0.79927  1.0000
  C   C4927     1.0  0.97345  0.69823  0.52625  1.0000
  H   H3926     1.0  0.68214  0.64709  0.74314  1.0000
  C   C4928     1.0  0.53354  0.68318  0.68988  1.0000
  H   H3927     1.0  0.82061  0.61725  0.56605  1.0000
  C   C4929     1.0  0.67272  0.71392  0.53775  1.0000
  C   C4930     1.0  0.79305  0.62266  0.79896  1.0000
  C   C4931     1.0  0.77672  0.63709  0.79148  1.0000
  C   C4932     1.0  0.75965  0.62998  0.78802  1.0000
  P   P163      1.0  0.77838  0.66433  0.78507  1.0000
  C   C4933     1.0  0.75216  0.67868  0.78654  1.0000
  C   C4934     1.0  0.78975  0.67110  0.80432  1.0000
  C   C4935     1.0  0.78496  0.66188  0.82500  1.0000
  C   C4936     1.0  0.79307  0.66731  0.84017  1.0000
  C   C4937     1.0  0.80574  0.68233  0.83488  1.0000
  C   C4938     1.0  0.81096  0.69133  0.81430  1.0000
  C   C4939     1.0  0.80315  0.68565  0.79904  1.0000
  C   C4940     1.0  0.74406  0.68848  0.76866  1.0000
  C   C4941     1.0  0.72361  0.69917  0.77010  1.0000
  C   C4942     1.0  0.71100  0.69987  0.78936  1.0000
  C   C4943     1.0  0.71876  0.68964  0.80716  1.0000
  C   C4944     1.0  0.73915  0.67898  0.80577  1.0000
  C   C4945     1.0  0.79391  0.67012  0.75983  1.0000
  C   C4946     1.0  0.80665  0.65410  0.75031  1.0000
  C   C4947     1.0  0.81940  0.65855  0.73127  1.0000
  C   C4948     1.0  0.81961  0.67908  0.72159  1.0000
  C   C4949     1.0  0.80683  0.69516  0.73080  1.0000
  C   C4950     1.0  0.79401  0.69072  0.74982  1.0000
  C   C4951     1.0  0.55276  0.71144  0.67788  1.0000
  H   H3928     1.0  0.80653  0.62773  0.80136  1.0000
  H   H3929     1.0  0.74678  0.64072  0.78238  1.0000
  H   H3930     1.0  0.77504  0.65038  0.82931  1.0000
  H   H3931     1.0  0.78996  0.65957  0.85600  1.0000
  H   H3932     1.0  0.81232  0.68628  0.84662  1.0000
  H   H3933     1.0  0.82171  0.70214  0.81014  1.0000
  H   H3934     1.0  0.80806  0.69238  0.78324  1.0000
  H   H3935     1.0  0.75333  0.68769  0.75358  1.0000
  H   H3936     1.0  0.71746  0.70678  0.75627  1.0000
  H   H3937     1.0  0.69509  0.70794  0.79052  1.0000
  H   H3938     1.0  0.70890  0.68955  0.82214  1.0000
  H   H3939     1.0  0.74448  0.67069  0.81979  1.0000
  H   H3940     1.0  0.80704  0.63816  0.75767  1.0000
  H   H3941     1.0  0.82938  0.64600  0.72425  1.0000
  H   H3942     1.0  0.82993  0.68253  0.70714  1.0000
  H   H3943     1.0  0.80723  0.71109  0.72339  1.0000
  H   H3944     1.0  0.78457  0.70337  0.75701  1.0000
  P   P164      1.0  0.77763  0.76937  0.59716  1.0000
  H   H3945     1.0  0.59812  0.75650  0.69510  1.0000
  H   H3946     1.0  0.56323  0.75215  0.74922  1.0000
  H   H3947     1.0  0.98710  0.59958  0.58939  1.0000
  H   H3948     1.0  0.91736  0.60775  0.74393  1.0000
  Fe  Fe338     1.0  0.84752  0.59415  0.73295  1.0000
  C   C4952     1.0  0.71063  0.77198  0.88835  1.0000
  C   C4953     1.0  0.51862  0.66903  0.79785  1.0000
  C   C4954     1.0  0.83632  0.70833  0.96805  1.0000
  C   C4955     1.0  0.58792  0.76083  0.68383  1.0000
  H   H3949     1.0  0.81957  0.75920  0.57446  1.0000
  H   H3950     1.0  0.86854  0.62714  0.96368  1.0000
  H   H3951     1.0  0.51862  0.74537  0.75795  1.0000
  H   H3952     1.0  0.73575  0.76445  0.61982  1.0000
  C   C4956     1.0  0.87762  0.77607  0.52896  1.0000
  C   C4957     1.0  0.49717  0.74392  0.86872  1.0000
  H   H3953     1.0  0.51980  0.68985  0.74407  1.0000
  C   C4958     1.0  0.70589  0.68408  0.54991  1.0000
  H   H3954     1.0  0.98718  0.69263  0.51585  1.0000
  C   C4959     1.0  0.63227  0.59410  0.80487  1.0000
  C   C4960     1.0  0.64903  0.68908  0.80011  1.0000
  C   C4961     1.0  0.66716  0.67465  0.79648  1.0000
  C   C4962     1.0  0.67858  0.66595  0.81225  1.0000
  C   C4963     1.0  0.67169  0.67125  0.83181  1.0000
  C   C4964     1.0  0.65359  0.68582  0.83552  1.0000
  C   C4965     1.0  0.64235  0.69472  0.81952  1.0000
  P   P165      1.0  0.64348  0.69231  0.86074  1.0000
  C   C4966     1.0  0.61729  0.68728  0.86646  1.0000
  C   C4967     1.0  0.65826  0.67704  0.87996  1.0000
  C   C4968     1.0  0.64905  0.66412  0.89712  1.0000
  C   C4969     1.0  0.66039  0.65367  0.91258  1.0000
  C   C4970     1.0  0.68079  0.65624  0.91124  1.0000
  C   C4971     1.0  0.68987  0.66940  0.89447  1.0000
  C   C4972     1.0  0.67875  0.67964  0.87880  1.0000
  C   C4973     1.0  0.60035  0.70287  0.87103  1.0000
  C   C4974     1.0  0.58011  0.69901  0.87411  1.0000
  C   C4975     1.0  0.57666  0.67964  0.87249  1.0000
  C   C4976     1.0  0.59347  0.66407  0.86780  1.0000
  C   C4977     1.0  0.61372  0.66788  0.86473  1.0000
  C   C4978     1.0  0.64470  0.71889  0.86106  1.0000
  C   C4979     1.0  0.65231  0.73205  0.84321  1.0000
  C   C4980     1.0  0.65410  0.75223  0.84420  1.0000
  C   C4981     1.0  0.64849  0.75931  0.86299  1.0000
  C   C4982     1.0  0.64095  0.74629  0.88077  1.0000
  C   C4983     1.0  0.63904  0.72619  0.87980  1.0000
  H   H3955     1.0  0.63982  0.69552  0.78813  1.0000
  H   H3956     1.0  0.67216  0.66988  0.78161  1.0000
  H   H3957     1.0  0.69265  0.65485  0.80943  1.0000
  H   H3958     1.0  0.68032  0.66364  0.84398  1.0000
  H   H3959     1.0  0.62811  0.70567  0.82228  1.0000
  H   H3960     1.0  0.63304  0.66239  0.89897  1.0000
  H   H3961     1.0  0.65318  0.64397  0.92590  1.0000
  H   H3962     1.0  0.68949  0.64830  0.92335  1.0000
  H   H3963     1.0  0.70551  0.67178  0.89371  1.0000
  H   H3964     1.0  0.68608  0.68976  0.86591  1.0000
  H   H3965     1.0  0.60258  0.71825  0.87149  1.0000
  H   H3966     1.0  0.56712  0.71129  0.87720  1.0000
  H   H3967     1.0  0.56096  0.67684  0.87451  1.0000
  H   H3968     1.0  0.59086  0.64916  0.86613  1.0000
  H   H3969     1.0  0.62659  0.65580  0.86061  1.0000
  H   H3970     1.0  0.65674  0.72690  0.82855  1.0000
  H   H3971     1.0  0.65950  0.76253  0.83035  1.0000
  H   H3972     1.0  0.82763  0.77408  0.51346  1.0000
  C   C4984     1.0  0.51826  0.77710  0.71106  1.0000
  H   H3973     1.0  0.63292  0.71637  0.89365  1.0000
  H   H3974     1.0  0.62480  0.62658  0.93339  1.0000
  C   C4985     1.0  0.80773  0.75716  0.94646  1.0000
  C   C4986     1.0  0.91059  0.77316  0.61462  1.0000
  H   H3975     1.0  0.86193  0.77155  0.64202  1.0000
  H   H3976     1.0  0.64772  0.68971  0.95824  1.0000
  C   C4987     1.0  0.61087  0.61985  0.93785  1.0000
  H   H3977     1.0  0.88603  0.60520  0.84686  1.0000
  H   H3978     1.0  0.49550  0.72486  0.79849  1.0000
  C   C4988     1.0  0.86582  0.62866  0.54793  1.0000
  C   C4989     1.0  0.69118  0.63279  0.74972  1.0000
  C   C4990     1.0  0.71428  0.59566  0.76673  1.0000
  H   H3979     1.0  0.53726  0.66525  0.71939  1.0000
  C   C4991     1.0  0.91241  0.58743  0.55508  1.0000
  S   S677      1.0  0.59327  0.77176  0.91223  1.0000
  Fe  Fe339     1.0  0.70239  0.61709  0.85462  1.0000
  C   C4992     1.0  0.51067  0.67889  0.77804  1.0000
  C   C4993     1.0  0.60490  0.70339  0.94201  1.0000
  S   S678      1.0  0.64321  0.62717  0.81634  1.0000
  C   C4994     1.0  0.79265  0.59701  0.86361  1.0000
  H   H3980     1.0  0.74580  0.60324  0.78960  1.0000
  C   C4995     1.0  0.77680  0.76611  0.57142  1.0000
  C   C4996     1.0  0.55942  0.68391  0.97154  1.0000
  C   C4997     1.0  0.51615  0.75945  0.74671  1.0000
  C   C4998     1.0  0.66106  0.70170  0.92747  1.0000
  C   C4999     1.0  0.93788  0.71136  0.55360  1.0000
  H   H3981     1.0  0.85140  0.65919  0.53508  1.0000
  H   H3982     1.0  0.87322  0.60712  0.69352  1.0000
  C   C5000     1.0  0.70434  0.70467  0.55235  1.0000
  H   H3983     1.0  0.92423  0.71593  0.56457  1.0000
  H   H3984     1.0  0.67724  0.71482  0.89856  1.0000
  H   H3985     1.0  0.87019  0.63411  0.56011  1.0000
  H   H3986     1.0  0.69159  0.66244  0.54052  1.0000
  H   H3987     1.0  0.89197  0.63219  0.61223  1.0000
  S   S679      1.0  0.52714  0.59455  0.76718  1.0000
  C   C5001     1.0  0.52202  0.75898  0.72562  1.0000
  H   H3988     1.0  0.98627  0.63184  0.56286  1.0000
  H   H3989     1.0  0.86316  0.62088  0.63918  1.0000
  H   H3990     1.0  0.84540  0.71368  0.47783  1.0000
  H   H3991     1.0  0.93513  0.74796  0.52038  1.0000
  H   H3992     1.0  0.97804  0.66675  0.73070  1.0000
  H   H3993     1.0  0.98329  0.59413  0.69507  1.0000
  H   H3994     1.0  0.49423  0.68406  0.77851  1.0000
  H   H3995     1.0  0.55723  0.72415  0.66604  1.0000
  H   H3996     1.0  0.52324  0.67379  0.68739  1.0000
  C   C5002     1.0  0.77207  0.61628  0.69978  1.0000
  Fe  Fe340     1.0  0.50829  0.61374  0.79036  1.0000
  C   C5003     1.0  0.85751  0.59916  0.62247  1.0000
  C   C5004     1.0  0.86664  0.59276  0.87445  1.0000
  H   H3997     1.0  0.82616  0.77912  0.47648  1.0000
  H   H3998     1.0  0.90960  0.60565  0.52483  1.0000
  H   H3999     1.0  0.52925  0.74444  0.72062  1.0000
  C   C5005     1.0  0.76049  0.63169  0.73052  1.0000
  C   C5006     1.0  0.50438  0.74403  0.64927  1.0000
  H   H4000     1.0  0.52199  0.76837  0.64357  1.0000
  C   C5007     1.0  0.78380  0.63190  0.69097  1.0000
  H   H4001     1.0  0.74035  0.75058  0.56048  1.0000
  P   P166      1.0  0.88487  0.58903  0.56423  1.0000
  C   C5008     1.0  0.85517  0.64297  0.53373  1.0000
  C   C5009     1.0  0.88416  0.62034  0.61027  1.0000
  C   C5010     1.0  0.75903  0.60877  0.79197  1.0000
  C   C5011     1.0  0.77522  0.60733  0.85515  1.0000
  C   C5012     1.0  0.61959  0.58529  0.79611  1.0000
  H   H4002     1.0  0.60129  0.75153  0.74088  1.0000
  C   C5013     1.0  0.60663  0.76551  0.78324  1.0000
  H   H4003     1.0  0.54901  0.72247  0.74522  1.0000
  C   C5014     1.0  0.93991  0.76284  0.51432  1.0000
  C   C5015     1.0  0.95885  0.76697  0.65393  1.0000
  C   C5016     1.0  0.54156  0.67836  0.70815  1.0000
  H   H4004     1.0  0.92160  0.78199  0.69313  1.0000
  C   C5017     1.0  0.98091  0.68245  0.72498  1.0000
  H   H4005     1.0  0.66822  0.62783  0.77704  1.0000
  C   C5018     1.0  0.61801  0.77278  0.79449  1.0000
  H   H4006     1.0  0.96084  0.76654  0.63771  1.0000
  C   C5019     1.0  0.98767  0.75141  0.58724  1.0000
  C   C5020     1.0  0.54175  0.66266  0.79745  1.0000
  C   C5021     1.0  0.92004  0.59711  0.53517  1.0000
  C   C5022     1.0  0.73651  0.60366  0.97002  1.0000
  C   C5023     1.0  0.52573  0.68178  0.75779  1.0000
  C   C5024     1.0  0.54894  0.67540  0.75736  1.0000
  C   C5025     1.0  0.55667  0.66537  0.77728  1.0000
  P   P167      1.0  0.56767  0.68231  0.73410  1.0000
  C   C5026     1.0  0.55544  0.68991  0.71143  1.0000
  C   C5027     1.0  0.57869  0.70401  0.73646  1.0000
  C   C5028     1.0  0.60013  0.70407  0.73110  1.0000
  C   C5029     1.0  0.60823  0.72113  0.73279  1.0000
  C   C5030     1.0  0.77778  0.76185  0.53072  1.0000
  S   S680      1.0  0.61029  0.67678  0.95193  1.0000
  C   C5031     1.0  0.56555  0.72182  0.74216  1.0000
  C   C5032     1.0  0.56090  0.70658  0.69611  1.0000
  C   C5033     1.0  0.49560  0.74348  0.84853  1.0000
  H   H4007     1.0  0.58594  0.58819  0.92253  1.0000
  H   H4008     1.0  0.75194  0.63157  0.74603  1.0000
  H   H4009     1.0  0.95362  0.68348  0.51480  1.0000
  C   C5034     1.0  0.58838  0.66026  0.73072  1.0000
  C   C5035     1.0  0.59008  0.64903  0.71487  1.0000
  C   C5036     1.0  0.60481  0.63093  0.71360  1.0000
  C   C5037     1.0  0.61816  0.62401  0.72794  1.0000
  C   C5038     1.0  0.61721  0.63549  0.74321  1.0000
  C   C5039     1.0  0.60254  0.65360  0.74451  1.0000
  H   H4010     1.0  0.54767  0.65664  0.81170  1.0000
  H   H4011     1.0  0.56045  0.76251  0.70654  1.0000
  H   H4012     1.0  0.61519  0.71390  0.96555  1.0000
  H   H4013     1.0  0.61823  0.60309  0.91259  1.0000
  H   H4014     1.0  0.57294  0.66126  0.77763  1.0000
  H   H4015     1.0  0.61069  0.69115  0.72542  1.0000
  H   H4016     1.0  0.62478  0.72093  0.72894  1.0000
  P   P168      1.0  0.74591  0.59539  0.73205  1.0000
  H   H4017     1.0  0.68705  0.73593  0.54593  1.0000
  S   S681      1.0  0.85111  0.59243  0.94663  1.0000
  H   H4018     1.0  0.57182  0.71559  0.69789  1.0000
  H   H4019     1.0  0.90719  0.75401  0.56563  1.0000
  C   C5040     1.0  0.67447  0.70292  0.95762  1.0000
  H   H4020     1.0  0.66734  0.60123  0.91562  1.0000
  C   C5041     1.0  0.71635  0.76874  0.57897  1.0000
  H   H4021     1.0  0.57962  0.65361  0.70389  1.0000
  H   H4022     1.0  0.60544  0.62192  0.70186  1.0000
  H   H4023     1.0  0.62903  0.60959  0.72742  1.0000
  H   H4024     1.0  0.62741  0.63001  0.75448  1.0000
  H   H4025     1.0  0.60227  0.66225  0.75640  1.0000
  C   C5042     1.0  0.76445  0.71219  0.62564  1.0000
  C   C5043     1.0  0.77723  0.70619  0.64052  1.0000
  C   C5044     1.0  0.78980  0.71953  0.64258  1.0000
  C   C5045     1.0  0.78995  0.73871  0.62951  1.0000
  C   C5046     1.0  0.77758  0.74460  0.61411  1.0000
  C   C5047     1.0  0.76471  0.73124  0.61237  1.0000
  H   H4026     1.0  0.97623  0.69040  0.75508  1.0000
  C   C5048     1.0  0.80170  0.77782  0.59671  1.0000
  H   H4027     1.0  0.58172  0.77311  0.76602  1.0000
  H   H4028     1.0  0.78200  0.71293  0.94750  1.0000
  C   C5049     1.0  0.59681  0.62427  0.95547  1.0000
  C   C5050     1.0  0.84161  0.72688  0.48562  1.0000
  C   C5051     1.0  0.51294  0.75802  0.67632  1.0000
  H   H4029     1.0  0.60021  0.63439  0.96440  1.0000
  H   H4030     1.0  0.68860  0.59502  0.79208  1.0000
  C   C5052     1.0  0.78386  0.64739  0.70188  1.0000
  C   C5053     1.0  0.89206  0.77895  0.62772  1.0000
  H   H4031     1.0  0.97151  0.75975  0.95663  1.0000
  C   C5054     1.0  0.78696  0.74772  0.56431  1.0000
  C   C5055     1.0  0.78743  0.74564  0.54404  1.0000
  H   H4032     1.0  0.64941  0.77507  0.86372  1.0000
  H   H4033     1.0  0.98384  0.76767  0.58851  1.0000
  C   C5056     1.0  0.56641  0.76412  0.69026  1.0000
  H   H4034     1.0  0.75449  0.70195  0.62426  1.0000
  H   H4035     1.0  0.77754  0.69111  0.65031  1.0000
  H   H4036     1.0  0.79971  0.71491  0.65409  1.0000
  H   H4037     1.0  0.80016  0.74858  0.63117  1.0000
  H   H4038     1.0  0.75490  0.73554  0.60073  1.0000
  H   H4039     1.0  0.84471  0.59447  0.63403  1.0000
  C   C5057     1.0  0.87073  0.60761  0.54626  1.0000
  H   H4040     1.0  0.77066  0.62378  0.85442  1.0000
  S   S682      1.0  0.64657  0.77782  0.49914  1.0000
  H   H4041     1.0  0.49934  0.74482  0.70726  1.0000
  C   C5058     1.0  0.93992  0.77307  0.96673  1.0000
  C   C5059     1.0  0.95449  0.69300  0.52560  1.0000
  H   H4042     1.0  0.79539  0.73532  0.57407  1.0000
  H   H4043     1.0  0.79619  0.73184  0.53837  1.0000
  H   H4044     1.0  0.78600  0.59359  0.74517  1.0000
  H   H4045     1.0  0.71616  0.63326  0.72394  1.0000
  C   C5060     1.0  0.72524  0.75115  0.57012  1.0000
  H   H4046     1.0  0.79336  0.65916  0.69519  1.0000
  H   H4047     1.0  0.77223  0.65931  0.73006  1.0000
  C   C5061     1.0  0.79230  0.60148  0.80300  1.0000
  H   H4048     1.0  0.76831  0.74932  0.93336  1.0000
  C   C5062     1.0  0.71273  0.72659  0.84803  1.0000
  C   C5063     1.0  0.73267  0.71577  0.84237  1.0000
  C   C5064     1.0  0.74589  0.70881  0.85681  1.0000
  C   C5065     1.0  0.73923  0.71256  0.87694  1.0000
  C   C5066     1.0  0.71936  0.72380  0.88270  1.0000
  C   C5067     1.0  0.70616  0.73077  0.86805  1.0000
  P   P169      1.0  0.71133  0.73094  0.90794  1.0000
  C   C5068     1.0  0.73347  0.72562  0.92087  1.0000
  C   C5069     1.0  0.70031  0.75820  0.90373  1.0000
  Fe  Fe341     1.0  0.57965  0.77921  0.88298  1.0000
  H   H4049     1.0  0.55156  0.78092  0.79214  1.0000
  H   H4050     1.0  0.80160  0.60584  0.86900  1.0000
  C   C5070     1.0  0.55305  0.77030  0.67573  1.0000
  S   S683      1.0  0.50327  0.64284  0.76768  1.0000
  C   C5071     1.0  0.74126  0.70506  0.92910  1.0000
  C   C5072     1.0  0.83892  0.77478  0.58490  1.0000
  C   C5073     1.0  0.86283  0.59112  0.60420  1.0000
  P   P170      1.0  0.52519  0.77642  0.68368  1.0000
  C   C5074     1.0  0.74323  0.74160  0.92263  1.0000
  C   C5075     1.0  0.69180  0.71682  0.92370  1.0000
  C   C5076     1.0  0.69034  0.71265  0.94521  1.0000
  C   C5077     1.0  0.67686  0.71149  0.91495  1.0000
  H   H4051     1.0  0.70247  0.73204  0.83684  1.0000
  H   H4052     1.0  0.73802  0.71292  0.82678  1.0000
  H   H4053     1.0  0.76136  0.70046  0.85242  1.0000
  H   H4054     1.0  0.74988  0.70695  0.88772  1.0000
  H   H4055     1.0  0.69091  0.73979  0.87197  1.0000
  H   H4056     1.0  0.81244  0.74703  0.95997  1.0000
  C   C5078     1.0  0.92155  0.58302  0.67574  1.0000
  C   C5079     1.0  0.57362  0.73878  0.74408  1.0000
  C   C5080     1.0  0.67382  0.69327  0.53624  1.0000
  C   C5081     1.0  0.76344  0.59639  0.84804  1.0000
  H   H4057     1.0  0.73412  0.69237  0.92786  1.0000
  C   C5082     1.0  0.57863  0.61569  0.96147  1.0000
  H   H4058     1.0  0.94938  0.60411  0.58914  1.0000
  C   C5083     1.0  0.90604  0.59626  0.68635  1.0000
  C   C5084     1.0  0.93952  0.77525  0.66418  1.0000
  H   H4059     1.0  0.73770  0.78131  0.66032  1.0000
  H   H4060     1.0  0.60874  0.75106  0.94935  1.0000
  C   C5085     1.0  0.92828  0.62837  0.63960  1.0000
  C   C5086     1.0  0.94752  0.62057  0.64565  1.0000
  C   C5087     1.0  0.95252  0.62731  0.66186  1.0000
  C   C5088     1.0  0.93842  0.64200  0.67194  1.0000
  C   C5089     1.0  0.91914  0.65009  0.66593  1.0000
  C   C5090     1.0  0.91422  0.64329  0.64950  1.0000
  P   P171      1.0  0.90304  0.67209  0.67608  1.0000
  C   C5091     1.0  0.87656  0.67285  0.67358  1.0000
  C   C5092     1.0  0.90488  0.67011  0.70280  1.0000
  C   C5093     1.0  0.88967  0.66263  0.71870  1.0000
  C   C5094     1.0  0.89103  0.66182  0.73924  1.0000
  C   C5095     1.0  0.90742  0.66859  0.74413  1.0000
  C   C5096     1.0  0.92263  0.67607  0.72844  1.0000
  C   C5097     1.0  0.92148  0.67668  0.70787  1.0000
  C   C5098     1.0  0.86434  0.69132  0.66581  1.0000
  C   C5099     1.0  0.84463  0.69120  0.66201  1.0000
  C   C5100     1.0  0.83698  0.67265  0.66597  1.0000
  C   C5101     1.0  0.84878  0.65429  0.67444  1.0000
  C   C5102     1.0  0.86843  0.65446  0.67833  1.0000
  C   C5103     1.0  0.91303  0.69499  0.66199  1.0000
  C   C5104     1.0  0.92826  0.69399  0.64422  1.0000
  C   C5105     1.0  0.93787  0.71101  0.63495  1.0000
  C   C5106     1.0  0.93227  0.72917  0.64324  1.0000
  C   C5107     1.0  0.91663  0.73059  0.66045  1.0000
  C   C5108     1.0  0.90706  0.71355  0.66986  1.0000
  H   H4061     1.0  0.92469  0.62362  0.62660  1.0000
  H   H4062     1.0  0.96762  0.62166  0.66622  1.0000
  H   H4063     1.0  0.94295  0.64765  0.68387  1.0000
  H   H4064     1.0  0.89995  0.65009  0.64373  1.0000
  H   H4065     1.0  0.87669  0.65744  0.71545  1.0000
  H   H4066     1.0  0.87934  0.65591  0.75144  1.0000
  H   H4067     1.0  0.90841  0.66783  0.76011  1.0000
  H   H4068     1.0  0.93552  0.68106  0.73219  1.0000
  H   H4069     1.0  0.93365  0.68222  0.69597  1.0000
  H   H4070     1.0  0.87023  0.70572  0.66206  1.0000
  H   H4071     1.0  0.83572  0.70544  0.65519  1.0000
  H   H4072     1.0  0.82212  0.67241  0.66212  1.0000
  H   H4073     1.0  0.84287  0.63989  0.67757  1.0000
  H   H4074     1.0  0.87765  0.64023  0.68460  1.0000
  H   H4075     1.0  0.93310  0.68005  0.63763  1.0000
  H   H4076     1.0  0.94967  0.71013  0.62132  1.0000
  H   H4077     1.0  0.64962  0.69729  0.92083  1.0000
  H   H4078     1.0  0.91190  0.74494  0.66643  1.0000
  H   H4079     1.0  0.89528  0.71471  0.68347  1.0000
  H   H4080     1.0  0.82107  0.59794  0.66687  1.0000
  C   C5109     1.0  0.68798  0.71967  0.54554  1.0000
  C   C5110     1.0  0.58891  0.59826  0.93178  1.0000
  H   H4081     1.0  0.50796  0.66741  0.81232  1.0000
  C   C5111     1.0  0.80922  0.76396  0.90958  1.0000
  H   H4082     1.0  0.78779  0.59160  0.90329  1.0000
  H   H4083     1.0  0.67215  0.75535  0.92621  1.0000
  C   C5112     1.0  0.86371  0.72922  0.95792  1.0000
  H   H4084     1.0  0.70130  0.71697  0.95253  1.0000
  H   H4085     1.0  0.74624  0.75635  0.49441  1.0000
  H   H4086     1.0  0.63610  0.75191  0.89527  1.0000
  H   H4087     1.0  0.93966  0.74235  0.63591  1.0000
  C   C5113     1.0  0.50255  0.59228  0.71098  1.0000
  C   C5114     1.0  0.96119  0.76920  0.96705  1.0000
  H   H4088     1.0  0.60927  0.74914  0.78260  1.0000
  P   P172      1.0  0.72490  0.71267  0.56059  1.0000
  C   C5115     1.0  0.71431  0.73478  0.57317  1.0000
  C   C5116     1.0  0.73809  0.69325  0.57870  1.0000
  C   C5117     1.0  0.75851  0.69397  0.58028  1.0000
  C   C5118     1.0  0.76939  0.67824  0.59317  1.0000
  C   C5119     1.0  0.75971  0.66213  0.60516  1.0000
  C   C5120     1.0  0.73907  0.66185  0.60443  1.0000
  C   C5121     1.0  0.72821  0.67744  0.59137  1.0000
  C   C5122     1.0  0.69478  0.73586  0.58595  1.0000
  C   C5123     1.0  0.68588  0.75353  0.59466  1.0000
  H   H4089     1.0  0.77914  0.76067  0.51473  1.0000
  H   H4090     1.0  0.92675  0.78127  0.65583  1.0000
  C   C5124     1.0  0.69050  0.67837  0.54216  1.0000
  C   C5125     1.0  0.74242  0.71898  0.53695  1.0000
  C   C5126     1.0  0.73738  0.73753  0.52347  1.0000
  C   C5127     1.0  0.75028  0.74199  0.50459  1.0000
  C   C5128     1.0  0.76831  0.72806  0.49902  1.0000
  C   C5129     1.0  0.77316  0.70936  0.51214  1.0000
  C   C5130     1.0  0.76007  0.70462  0.53088  1.0000
  C   C5131     1.0  0.68330  0.62194  0.76880  1.0000
  H   H4091     1.0  0.84111  0.64755  0.50686  1.0000
  H   H4092     1.0  0.76622  0.70644  0.57124  1.0000
  H   H4093     1.0  0.78535  0.67850  0.59396  1.0000
  H   H4094     1.0  0.76825  0.64988  0.61502  1.0000
  H   H4095     1.0  0.73160  0.64936  0.61383  1.0000
  C   C5132     1.0  0.59632  0.76397  0.66288  1.0000
  H   H4096     1.0  0.68611  0.72334  0.58863  1.0000
  H   H4097     1.0  0.67042  0.75471  0.60374  1.0000
  H   H4098     1.0  0.94717  0.60386  0.51317  1.0000
  C   C5133     1.0  0.86796  0.61397  0.62541  1.0000
  C   C5134     1.0  0.65887  0.59551  0.94885  1.0000
  H   H4099     1.0  0.72339  0.74851  0.52743  1.0000
  H   H4100     1.0  0.58970  0.77304  0.63205  1.0000
  H   H4101     1.0  0.56088  0.59586  0.95351  1.0000
  H   H4102     1.0  0.78701  0.69846  0.50768  1.0000
  H   H4103     1.0  0.76371  0.68966  0.54040  1.0000
  C   C5135     1.0  0.88971  0.61213  0.59211  1.0000
  C   C5136     1.0  0.76063  0.73702  0.93228  1.0000
  C   C5137     1.0  0.97286  0.76023  0.68550  1.0000
  H   H4104     1.0  0.50943  0.74233  0.83689  1.0000
  C   C5138     1.0  0.59499  0.73839  0.73947  1.0000
  H   H4105     1.0  0.96461  0.75670  0.53181  1.0000
  H   H4106     1.0  0.77548  0.77778  0.65932  1.0000
  C   C5139     1.0  0.71051  0.62498  0.73900  1.0000
  C   C5140     1.0  0.85443  0.61554  0.51587  1.0000
  C   C5141     1.0  0.71879  0.58461  0.71109  1.0000
  C   C5142     1.0  0.59090  0.77905  0.77407  1.0000
  C   C5143     1.0  0.81990  0.76974  0.58432  1.0000
  H   H4107     1.0  0.95047  0.76760  0.71232  1.0000
  C   C5144     1.0  0.95620  0.59306  0.60117  1.0000
  C   C5145     1.0  0.92910  0.77738  0.50049  1.0000
  H   H4108     1.0  0.61296  0.76216  0.65787  1.0000
  C   C5146     1.0  0.60119  0.59711  0.79006  1.0000
  C   C5147     1.0  0.68068  0.76559  0.91447  1.0000
  H   H4109     1.0  0.86911  0.58513  0.52807  1.0000
  H   H4110     1.0  0.86917  0.59270  0.82366  1.0000
  H   H4111     1.0  0.74994  0.60452  0.84139  1.0000
  H   H4112     1.0  0.55570  0.61368  0.48804  1.0000
  C   C5148     1.0  0.95311  0.76769  0.69592  1.0000
  C   C5149     1.0  0.83069  0.76374  0.48472  1.0000
  H   H4113     1.0  0.77270  0.60435  0.69106  1.0000
  H   H4114     1.0  0.72562  0.76653  0.87965  1.0000
  H   H4115     1.0  0.77856  0.73164  0.48455  1.0000
  H   H4116     1.0  0.93388  0.76654  0.95631  1.0000
  H   H4117     1.0  0.67347  0.69960  0.97418  1.0000
  C   C5150     1.0  0.56172  0.77318  0.65467  1.0000
  H   H4118     1.0  0.64620  0.58485  0.80982  1.0000
  C   C5151     1.0  0.66256  0.59022  0.92911  1.0000
  C   C5152     1.0  0.94139  0.59612  0.52846  1.0000
  C   C5153     1.0  0.60155  0.72429  0.48368  1.0000
  H   H4119     1.0  0.88853  0.74460  0.54176  1.0000
  H   H4120     1.0  0.86411  0.58770  0.67059  1.0000
  C   C5154     1.0  0.89891  0.76601  0.55544  1.0000
  S   S684      1.0  0.58554  0.58621  0.77859  1.0000
  C   C5155     1.0  0.88019  0.58638  0.67193  1.0000
  C   C5156     1.0  0.95661  0.76767  0.52064  1.0000
  H   H4121     1.0  0.55205  0.77880  0.64301  1.0000
  H   H4122     1.0  0.98260  0.72607  0.74204  1.0000
  S   S685      1.0  0.60067  0.78177  0.85223  1.0000
  H   H4123     1.0  0.92738  0.58346  0.61632  1.0000
  C   C5157     1.0  0.88852  0.76067  0.54199  1.0000
  C   C5158     1.0  0.68221  0.72472  0.48202  1.0000
  C   C5159     1.0  0.71550  0.61225  0.97193  1.0000
  H   H4124     1.0  0.74781  0.61344  0.96901  1.0000
  C   C5160     1.0  0.57058  0.61027  0.47826  1.0000
  H   H4125     1.0  0.71056  0.62862  0.97239  1.0000
  C   C5161     1.0  0.79468  0.77626  0.94812  1.0000
  H   H4126     1.0  0.91588  0.77379  0.49590  1.0000
  H   H4127     1.0  0.86887  0.77138  0.51958  1.0000
  H   H4128     1.0  0.58130  0.63709  0.48229  1.0000
  H   H4129     1.0  0.62407  0.66604  0.48392  1.0000
  C   C5162     1.0  0.76688  0.77982  0.53787  1.0000
  C   C5163     1.0  0.73668  0.78071  0.61627  1.0000
  H   H4130     1.0  0.72435  0.78179  0.57589  1.0000
  C   C5164     1.0  0.98916  0.72279  0.70992  1.0000
  H   H4131     1.0  0.97181  0.58471  0.53626  1.0000
  C   C5165     1.0  0.95527  0.58536  0.54149  1.0000
  H   H4132     1.0  0.52353  0.64950  0.97248  1.0000
  C   C5166     1.0  0.98851  0.73633  0.60494  1.0000
  C   C5167     1.0  0.76660  0.78211  0.55806  1.0000
  C   C5168     1.0  0.73945  0.58289  0.71355  1.0000
  H   H4133     1.0  0.76890  0.74591  0.97353  1.0000
  C   C5169     1.0  0.98920  0.70955  0.69630  1.0000
  S   S686      1.0  0.71200  0.58339  0.86682  1.0000
  Fe  Fe342     1.0  0.67776  0.58294  0.87457  1.0000
  C   C5170     1.0  0.58497  0.62346  0.47506  1.0000
  H   H4134     1.0  0.91430  0.82413  0.19660  1.0000
  C   C5171     1.0  0.58293  0.83375  0.34573  1.0000
  H   H4135     1.0  0.95928  0.83483  0.00561  1.0000
  C   C5172     1.0  0.86633  0.95792  0.02552  1.0000
  H   H4136     1.0  0.54940  0.91114  0.28195  1.0000
  Fe  Fe343     1.0  0.84872  0.79878  0.03997  1.0000
  S   S687      1.0  0.82526  0.82707  0.04758  1.0000
  C   C5173     1.0  0.71746  0.93409  0.41308  1.0000
  Fe  Fe344     1.0  0.80684  0.93784  0.11888  1.0000
  S   S688      1.0  0.81934  0.95494  0.08802  1.0000
  S   S689      1.0  0.77316  0.94288  0.13302  1.0000
  Fe  Fe345     1.0  0.84915  0.91664  0.12745  1.0000
  S   S690      1.0  0.86532  0.93192  0.09733  1.0000
  S   S691      1.0  0.86827  0.89418  0.14864  1.0000
  Fe  Fe346     1.0  0.84311  0.96067  0.10428  1.0000
  Fe  Fe347     1.0  0.84024  0.92447  0.08406  1.0000
  S   S692      1.0  0.84811  0.91252  0.05379  1.0000
  S   S693      1.0  0.82889  0.94590  0.13545  1.0000
  S   S694      1.0  0.82581  0.90697  0.11381  1.0000
  C   C5174     1.0  0.94594  0.82584  0.22126  1.0000
  S   S695      1.0  0.97208  0.88656  0.12632  1.0000
  S   S696      1.0  0.96108  0.85720  0.04753  1.0000
  Fe  Fe348     1.0  0.83368  0.82709  0.42528  1.0000
  S   S697      1.0  0.80957  0.80993  0.44538  1.0000
  S   S698      1.0  0.84477  0.84789  0.44104  1.0000
  Fe  Fe349     1.0  0.83238  0.80919  0.38825  1.0000
  S   S699      1.0  0.84274  0.80976  0.35423  1.0000
  Fe  Fe350     1.0  0.79306  0.81917  0.41835  1.0000
  S   S700      1.0  0.75896  0.83214  0.42416  1.0000
  S   S701      1.0  0.81584  0.83861  0.39930  1.0000
  C   C5175     1.0  0.67258  0.83655  0.35443  1.0000
  Fe  Fe351     1.0  0.88434  0.90885  0.24914  1.0000
  S   S702      1.0  0.91100  0.92426  0.23119  1.0000
  S   S703      1.0  0.85384  0.91482  0.23815  1.0000
  Fe  Fe352     1.0  0.90677  0.88769  0.28446  1.0000
  S   S704      1.0  0.93495  0.90159  0.26961  1.0000
  S   S705      1.0  0.90858  0.86843  0.31582  1.0000
  Fe  Fe353     1.0  0.91288  0.93097  0.26195  1.0000
  S   S706      1.0  0.92001  0.96085  0.26659  1.0000
  Fe  Fe354     1.0  0.93042  0.89333  0.24059  1.0000
  S   S707      1.0  0.95922  0.87660  0.22288  1.0000
  S   S708      1.0  0.88494  0.91787  0.27913  1.0000
  S   S709      1.0  0.90355  0.87724  0.25605  1.0000
  C   C5176     1.0  0.80862  0.82039  0.00014  1.0000
  S   S710      1.0  0.53812  0.82894  0.32331  1.0000
  C   C5177     1.0  0.91686  0.94385  0.32295  1.0000
  Fe  Fe355     1.0  0.51241  0.85010  0.27432  1.0000
  S   S711      1.0  0.51544  0.87055  0.29562  1.0000
  H   H4137     1.0  0.55556  0.88591  0.25885  1.0000
  Fe  Fe356     1.0  0.54779  0.85285  0.29627  1.0000
  S   S712      1.0  0.57828  0.86445  0.29144  1.0000
  Fe  Fe357     1.0  0.50554  0.84497  0.32064  1.0000
  S   S713      1.0  0.54574  0.83465  0.27252  1.0000
  H   H4138     1.0  0.90984  0.78780  0.97997  1.0000
  Fe  Fe358     1.0  0.65756  0.90870  0.39468  1.0000
  S   S714      1.0  0.65541  0.88529  0.37618  1.0000
  S   S715      1.0  0.65007  0.90431  0.42960  1.0000
  Fe  Fe359     1.0  0.67110  0.93973  0.35604  1.0000
  S   S716      1.0  0.66916  0.91865  0.33480  1.0000
  Fe  Fe360     1.0  0.63945  0.91213  0.35580  1.0000
  S   S717      1.0  0.60715  0.91228  0.34954  1.0000
  Fe  Fe361     1.0  0.68511  0.89385  0.35725  1.0000
  S   S718      1.0  0.71339  0.87063  0.34800  1.0000
  S   S719      1.0  0.64006  0.93532  0.37538  1.0000
  S   S720      1.0  0.68860  0.91524  0.37718  1.0000
  C   C5178     1.0  0.56152  0.79857  0.43696  1.0000
  H   H4139     1.0  0.98733  0.81937  0.20672  1.0000
  H   H4140     1.0  0.88562  0.85701  0.05235  1.0000
  H   H4141     1.0  0.76205  0.97190  0.19590  1.0000
  H   H4142     1.0  0.85205  0.85110  0.14074  1.0000
  H   H4143     1.0  0.92554  0.87175  0.41966  1.0000
  C   C5179     1.0  0.58612  0.87652  0.30880  1.0000
  C   C5180     1.0  0.60734  0.87657  0.30746  1.0000
  C   C5181     1.0  0.61416  0.88678  0.32036  1.0000
  C   C5182     1.0  0.59974  0.89735  0.33446  1.0000
  C   C5183     1.0  0.57853  0.89707  0.33597  1.0000
  C   C5184     1.0  0.57172  0.88665  0.32327  1.0000
  H   H4144     1.0  0.61857  0.86879  0.29629  1.0000
  H   H4145     1.0  0.63050  0.88696  0.31899  1.0000
  H   H4146     1.0  0.56732  0.90532  0.34678  1.0000
  H   H4147     1.0  0.55535  0.88686  0.32434  1.0000
  C   C5185     1.0  0.53587  0.81983  0.20491  1.0000
  H   H4148     1.0  0.70511  0.82247  0.42472  1.0000
  C   C5186     1.0  0.90893  0.84780  0.17054  1.0000
  C   C5187     1.0  0.73751  0.82365  0.09691  1.0000
  H   H4149     1.0  0.78810  0.96857  0.16417  1.0000
  C   C5188     1.0  0.59345  0.82082  0.33174  1.0000
  H   H4150     1.0  0.88315  0.93825  0.04837  1.0000
  C   C5189     1.0  0.54543  0.86593  0.39104  1.0000
  C   C5190     1.0  0.68718  0.96215  0.15712  1.0000
  C   C5191     1.0  0.86147  0.82555  0.34340  1.0000
  C   C5192     1.0  0.87230  0.83172  0.35598  1.0000
  C   C5193     1.0  0.88700  0.84459  0.34723  1.0000
  C   C5194     1.0  0.89046  0.85188  0.32600  1.0000
  C   C5195     1.0  0.87963  0.84576  0.31336  1.0000
  C   C5196     1.0  0.86533  0.83235  0.32205  1.0000
  H   H4151     1.0  0.86944  0.82647  0.37242  1.0000
  H   H4152     1.0  0.89564  0.84903  0.35694  1.0000
  H   H4153     1.0  0.88234  0.85126  0.29695  1.0000
  H   H4154     1.0  0.85695  0.82760  0.31231  1.0000
  C   C5197     1.0  0.74715  0.84319  0.40252  1.0000
  C   C5198     1.0  0.72694  0.85430  0.40554  1.0000
  C   C5199     1.0  0.71647  0.86246  0.38890  1.0000
  C   C5200     1.0  0.72634  0.85989  0.36898  1.0000
  C   C5201     1.0  0.74662  0.84874  0.36586  1.0000
  C   C5202     1.0  0.75710  0.84048  0.38261  1.0000
  H   H4155     1.0  0.71947  0.85679  0.42085  1.0000
  H   H4156     1.0  0.70072  0.87071  0.39156  1.0000
  H   H4157     1.0  0.75423  0.84658  0.35048  1.0000
  H   H4158     1.0  0.77272  0.83183  0.38019  1.0000
  C   C5203     1.0  0.93139  0.86310  0.43337  1.0000
  C   C5204     1.0  0.87620  0.95396  0.04258  1.0000
  C   C5205     1.0  0.80318  0.86120  0.44973  1.0000
  C   C5206     1.0  0.96156  0.87786  0.19627  1.0000
  C   C5207     1.0  0.94618  0.88965  0.18545  1.0000
  H   H4159     1.0  0.49674  0.82224  0.24856  1.0000
  H   H4160     1.0  0.79099  0.96537  0.24911  1.0000
  H   H4161     1.0  0.93213  0.89769  0.19353  1.0000
  H   H4162     1.0  0.69232  0.81436  0.39775  1.0000
  H   H4163     1.0  0.52058  0.79002  0.33744  1.0000
  C   C5208     1.0  0.97961  0.86725  0.18568  1.0000
  C   C5209     1.0  0.82229  0.85959  0.45568  1.0000
  C   C5210     1.0  0.89439  0.82254  0.44966  1.0000
  C   C5211     1.0  0.53209  0.90269  0.24123  1.0000
  H   H4164     1.0  0.82005  0.81050  0.09523  1.0000
  H   H4165     1.0  0.77888  0.81262  0.00153  1.0000
  C   C5212     1.0  0.63476  0.84730  0.44015  1.0000
  C   C5213     1.0  0.64273  0.86530  0.43082  1.0000
  C   C5214     1.0  0.64026  0.88148  0.44161  1.0000
  C   C5215     1.0  0.63017  0.87922  0.46221  1.0000
  C   C5216     1.0  0.86282  0.96759  0.22910  1.0000
  H   H4166     1.0  0.63670  0.83516  0.43140  1.0000
  H   H4167     1.0  0.65125  0.86633  0.41541  1.0000
  C   C5217     1.0  0.71490  0.93417  0.45491  1.0000
  C   C5218     1.0  0.96210  0.95443  0.19246  1.0000
  C   C5219     1.0  0.86412  0.90048  0.17330  1.0000
  C   C5220     1.0  0.88053  0.89572  0.18432  1.0000
  C   C5221     1.0  0.87740  0.90020  0.20420  1.0000
  C   C5222     1.0  0.85783  0.90948  0.21315  1.0000
  C   C5223     1.0  0.84144  0.91451  0.20206  1.0000
  C   C5224     1.0  0.84460  0.91006  0.18210  1.0000
  H   H4168     1.0  0.89584  0.88902  0.17735  1.0000
  H   H4169     1.0  0.89017  0.89642  0.21259  1.0000
  H   H4170     1.0  0.82631  0.92178  0.20893  1.0000
  H   H4171     1.0  0.83184  0.91370  0.17371  1.0000
  C   C5225     1.0  0.83418  0.84927  0.05008  1.0000
  C   C5226     1.0  0.84611  0.86016  0.03342  1.0000
  C   C5227     1.0  0.85038  0.87947  0.03477  1.0000
  C   C5228     1.0  0.84329  0.88775  0.05296  1.0000
  C   C5229     1.0  0.83208  0.87643  0.06984  1.0000
  C   C5230     1.0  0.82713  0.85756  0.06821  1.0000
  H   H4172     1.0  0.85135  0.85409  0.01923  1.0000
  H   H4173     1.0  0.85913  0.88805  0.02164  1.0000
  H   H4174     1.0  0.82669  0.88245  0.08397  1.0000
  H   H4175     1.0  0.81768  0.84944  0.08101  1.0000
  H   H4176     1.0  0.49262  0.80983  0.35703  1.0000
  C   C5231     1.0  0.92301  0.81977  0.04148  1.0000
  C   C5232     1.0  0.93138  0.83734  0.04159  1.0000
  C   C5233     1.0  0.95014  0.83517  0.04866  1.0000
  C   C5234     1.0  0.96052  0.81538  0.05552  1.0000
  C   C5235     1.0  0.80237  0.79725  0.97966  1.0000
  H   H4177     1.0  0.90851  0.82157  0.03611  1.0000
  H   H4178     1.0  0.92343  0.85264  0.03605  1.0000
  H   H4179     1.0  0.96974  0.91200  0.02763  1.0000
  H   H4180     1.0  0.97502  0.91822  0.08832  1.0000
  C   C5236     1.0  0.75692  0.94967  0.11450  1.0000
  C   C5237     1.0  0.50913  0.80041  0.41102  1.0000
  C   C5238     1.0  0.98066  0.96099  0.15748  1.0000
  C   C5239     1.0  0.93402  0.79323  0.99383  1.0000
  H   H4181     1.0  0.51961  0.86517  0.35292  1.0000
  H   H4182     1.0  0.96378  0.92221  0.20656  1.0000
  H   H4183     1.0  0.72129  0.93358  0.18751  1.0000
  C   C5240     1.0  0.79894  0.91397  0.43754  1.0000
  C   C5241     1.0  0.79982  0.84670  0.33384  1.0000
  C   C5242     1.0  0.80398  0.84329  0.31358  1.0000
  C   C5243     1.0  0.79903  0.85959  0.29772  1.0000
  C   C5244     1.0  0.79022  0.87936  0.30210  1.0000
  C   C5245     1.0  0.78678  0.88313  0.32235  1.0000
  C   C5246     1.0  0.79126  0.86647  0.33825  1.0000
  P   P173      1.0  0.77603  0.90891  0.32792  1.0000
  C   C5247     1.0  0.79324  0.92742  0.31636  1.0000
  C   C5248     1.0  0.75180  0.91811  0.31859  1.0000
  C   C5249     1.0  0.74301  0.93917  0.31675  1.0000
  C   C5250     1.0  0.72443  0.94654  0.30924  1.0000
  C   C5251     1.0  0.71415  0.93284  0.30407  1.0000
  C   C5252     1.0  0.72245  0.91172  0.30647  1.0000
  C   C5253     1.0  0.74119  0.90435  0.31371  1.0000
  C   C5254     1.0  0.79152  0.94517  0.32498  1.0000
  C   C5255     1.0  0.80396  0.96006  0.31571  1.0000
  C   C5256     1.0  0.81831  0.95744  0.29778  1.0000
  C   C5257     1.0  0.82021  0.93987  0.28908  1.0000
  C   C5258     1.0  0.80772  0.92495  0.29827  1.0000
  C   C5259     1.0  0.77101  0.90715  0.35550  1.0000
  C   C5260     1.0  0.78716  0.90728  0.36575  1.0000
  C   C5261     1.0  0.78453  0.90235  0.38720  1.0000
  C   C5262     1.0  0.76568  0.89749  0.39858  1.0000
  C   C5263     1.0  0.74933  0.89807  0.38851  1.0000
  C   C5264     1.0  0.75196  0.90273  0.36704  1.0000
  H   H4184     1.0  0.80344  0.83401  0.34618  1.0000
  H   H4185     1.0  0.81101  0.82798  0.31027  1.0000
  H   H4186     1.0  0.80205  0.85689  0.28202  1.0000
  H   H4187     1.0  0.78604  0.89169  0.28970  1.0000
  H   H4188     1.0  0.78830  0.86849  0.35414  1.0000
  H   H4189     1.0  0.75029  0.94986  0.32148  1.0000
  H   H4190     1.0  0.71758  0.96280  0.30810  1.0000
  H   H4191     1.0  0.69939  0.93851  0.29893  1.0000
  H   H4192     1.0  0.71402  0.90089  0.30343  1.0000
  H   H4193     1.0  0.74692  0.88784  0.31612  1.0000
  H   H4194     1.0  0.78036  0.94776  0.33874  1.0000
  C   C5265     1.0  0.74144  0.79267  0.97883  1.0000
  H   H4195     1.0  0.92491  0.91370  0.31410  1.0000
  H   H4196     1.0  0.83140  0.93778  0.27516  1.0000
  H   H4197     1.0  0.80975  0.91154  0.29117  1.0000
  H   H4198     1.0  0.80205  0.91039  0.35709  1.0000
  H   H4199     1.0  0.79732  0.90167  0.39491  1.0000
  H   H4200     1.0  0.76378  0.89287  0.41517  1.0000
  H   H4201     1.0  0.73474  0.89429  0.39733  1.0000
  H   H4202     1.0  0.73938  0.90204  0.35954  1.0000
  C   C5266     1.0  0.52680  0.85975  0.36649  1.0000
  C   C5267     1.0  0.52495  0.80718  0.45065  1.0000
  C   C5268     1.0  0.92116  0.83155  0.18161  1.0000
  H   H4203     1.0  0.68461  0.85415  0.43664  1.0000
  H   H4204     1.0  0.94799  0.83969  0.20997  1.0000
  H   H4205     1.0  0.85938  0.92246  0.32109  1.0000
  C   C5269     1.0  0.52297  0.85688  0.19981  1.0000
  H   H4206     1.0  0.92162  0.88860  0.44995  1.0000
  H   H4207     1.0  0.88785  0.84084  0.47326  1.0000
  C   C5270     1.0  0.94932  0.89150  0.16397  1.0000
  H   H4208     1.0  0.58222  0.79342  0.45885  1.0000
  C   C5271     1.0  0.88652  0.82632  0.46968  1.0000
  H   H4209     1.0  0.91893  0.81971  0.13562  1.0000
  P   P174      1.0  0.53482  0.80613  0.40850  1.0000
  H   H4210     1.0  0.70808  0.79982  0.98275  1.0000
  H   H4211     1.0  0.52376  0.80284  0.18766  1.0000
  C   C5272     1.0  0.57481  0.79040  0.24848  1.0000
  C   C5273     1.0  0.58086  0.81911  0.22078  1.0000
  H   H4212     1.0  0.52174  0.87185  0.20404  1.0000
  H   H4213     1.0  0.80436  0.90171  0.42854  1.0000
  C   C5274     1.0  0.96860  0.93313  0.19291  1.0000
  H   H4214     1.0  0.98854  0.79504  0.15200  1.0000
  P   P175      1.0  0.61941  0.81932  0.39030  1.0000
  C   C5275     1.0  0.48983  0.98135  0.26783  1.0000
  C   C5276     1.0  0.60627  0.84156  0.40202  1.0000
  C   C5277     1.0  0.59387  0.83930  0.42162  1.0000
  C   C5278     1.0  0.58502  0.85658  0.43095  1.0000
  C   C5279     1.0  0.58825  0.87631  0.42070  1.0000
  C   C5280     1.0  0.60000  0.87880  0.40094  1.0000
  C   C5281     1.0  0.60890  0.86155  0.39158  1.0000
  C   C5282     1.0  0.59052  0.83313  0.36364  1.0000
  H   H4215     1.0  0.98904  0.82532  0.45139  1.0000
  C   C5283     1.0  0.54500  0.84569  0.40173  1.0000
  H   H4216     1.0  0.80214  0.97381  0.32235  1.0000
  H   H4217     1.0  0.89089  0.79396  0.16243  1.0000
  C   C5284     1.0  0.64603  0.82293  0.38134  1.0000
  H   H4218     1.0  0.69506  0.97065  0.03032  1.0000
  C   C5285     1.0  0.78490  0.86958  0.46163  1.0000
  C   C5286     1.0  0.68717  0.82909  0.36744  1.0000
  H   H4219     1.0  0.93755  0.90085  0.15553  1.0000
  H   H4220     1.0  0.85562  0.83319  0.20489  1.0000
  H   H4221     1.0  0.53676  0.88857  0.36511  1.0000
  Fe  Fe362     1.0  0.53421  0.81175  0.29967  1.0000
  C   C5287     1.0  0.94215  0.82535  0.17354  1.0000
  H   H4222     1.0  0.49080  0.89610  0.33771  1.0000
  H   H4223     1.0  0.63351  0.79611  0.35632  1.0000
  H   H4224     1.0  0.59151  0.82427  0.43013  1.0000
  H   H4225     1.0  0.57639  0.85452  0.44652  1.0000
  H   H4226     1.0  0.58202  0.88963  0.42820  1.0000
  H   H4227     1.0  0.60265  0.89410  0.39302  1.0000
  H   H4228     1.0  0.61808  0.86390  0.37630  1.0000
  H   H4229     1.0  0.58244  0.84368  0.37390  1.0000
  H   H4230     1.0  0.55302  0.80666  0.36452  1.0000
  C   C5288     1.0  0.68115  0.81927  0.38751  1.0000
  H   H4231     1.0  0.97498  0.81353  0.06096  1.0000
  H   H4232     1.0  0.55208  0.84062  0.41534  1.0000
  H   H4233     1.0  0.97924  0.89016  0.00093  1.0000
  C   C5289     1.0  0.92634  0.78510  0.98010  1.0000
  H   H4234     1.0  0.70309  0.83126  0.36211  1.0000
  C   C5290     1.0  0.89165  0.80468  0.44382  1.0000
  H   H4235     1.0  0.66685  0.85277  0.47279  1.0000
  C   C5291     1.0  0.71281  0.94708  0.17899  1.0000
  C   C5292     1.0  0.50125  0.94118  0.30647  1.0000
  C   C5293     1.0  0.78538  0.97794  0.00166  1.0000
  C   C5294     1.0  0.60868  0.81943  0.36780  1.0000
  H   H4236     1.0  0.88995  0.88999  0.09889  1.0000
  C   C5295     1.0  0.51705  0.92044  0.23846  1.0000
  H   H4237     1.0  0.89293  0.85302  0.17700  1.0000
  H   H4238     1.0  0.90831  0.87094  0.14306  1.0000
  C   C5296     1.0  0.51012  0.97629  0.27219  1.0000
  H   H4239     1.0  0.92951  0.94982  0.31210  1.0000
  C   C5297     1.0  0.86162  0.80353  0.11926  1.0000
  C   C5298     1.0  0.93371  0.79993  0.04791  1.0000
  C   C5299     1.0  0.88028  0.80805  0.16523  1.0000
  Fe  Fe363     1.0  0.98589  0.85207  0.06710  1.0000
  H   H4240     1.0  0.98711  0.85154  0.01002  1.0000
  C   C5300     1.0  0.77651  0.97740  0.19395  1.0000
  H   H4241     1.0  0.74258  0.95077  0.40791  1.0000
  C   C5301     1.0  0.93718  0.86160  0.46795  1.0000
  H   H4242     1.0  0.54199  0.84114  0.22213  1.0000
  H   H4243     1.0  0.84016  0.82489  0.99623  1.0000
  C   C5302     1.0  0.82309  0.86637  0.47371  1.0000
  C   C5303     1.0  0.96764  0.88141  0.15331  1.0000
  C   C5304     1.0  0.73615  0.96328  0.47381  1.0000
  H   H4244     1.0  0.64088  0.84012  0.35118  1.0000
  H   H4245     1.0  0.51871  0.82958  0.37159  1.0000
  H   H4246     1.0  0.60260  0.83721  0.22418  1.0000
  C   C5305     1.0  0.77182  0.94126  0.44942  1.0000
  H   H4247     1.0  0.88388  0.96705  0.06594  1.0000
  H   H4248     1.0  0.89846  0.97883  0.09844  1.0000
  H   H4249     1.0  0.80237  0.85621  0.43581  1.0000
  C   C5306     1.0  0.80152  0.85224  0.13324  1.0000
  C   C5307     1.0  0.80007  0.86757  0.14488  1.0000
  C   C5308     1.0  0.78567  0.88585  0.14200  1.0000
  C   C5309     1.0  0.77286  0.88893  0.12736  1.0000
  C   C5310     1.0  0.77395  0.87349  0.11582  1.0000
  C   C5311     1.0  0.78847  0.85512  0.11880  1.0000
  P   P176      1.0  0.75698  0.87768  0.09720  1.0000
  C   C5312     1.0  0.75510  0.85304  0.09156  1.0000
  C   C5313     1.0  0.73199  0.89085  0.10834  1.0000
  C   C5314     1.0  0.72351  0.88408  0.12895  1.0000
  C   C5315     1.0  0.70465  0.89463  0.13808  1.0000
  C   C5316     1.0  0.69419  0.91213  0.12676  1.0000
  C   C5317     1.0  0.70258  0.91906  0.10632  1.0000
  C   C5318     1.0  0.72142  0.90855  0.09714  1.0000
  C   C5319     1.0  0.73835  0.84294  0.10123  1.0000
  H   H4250     1.0  0.84886  0.90003  0.30191  1.0000
  C   C5320     1.0  0.77002  0.82432  0.07320  1.0000
  C   C5321     1.0  0.77086  0.84361  0.07740  1.0000
  C   C5322     1.0  0.76717  0.89280  0.07320  1.0000
  C   C5323     1.0  0.75849  0.89424  0.05563  1.0000
  C   C5324     1.0  0.76653  0.90549  0.03680  1.0000
  C   C5325     1.0  0.78338  0.91523  0.03537  1.0000
  C   C5326     1.0  0.79206  0.91385  0.05279  1.0000
  C   C5327     1.0  0.78402  0.90268  0.07165  1.0000
  H   H4251     1.0  0.81281  0.83815  0.13536  1.0000
  H   H4252     1.0  0.81028  0.86547  0.15593  1.0000
  H   H4253     1.0  0.78480  0.89795  0.15073  1.0000
  H   H4254     1.0  0.76215  0.90344  0.12501  1.0000
  H   H4255     1.0  0.78982  0.84300  0.11006  1.0000
  H   H4256     1.0  0.73163  0.87076  0.13803  1.0000
  H   H4257     1.0  0.69825  0.88937  0.15399  1.0000
  H   H4258     1.0  0.67968  0.92048  0.13381  1.0000
  H   H4259     1.0  0.69471  0.93289  0.09762  1.0000
  H   H4260     1.0  0.72776  0.91472  0.08149  1.0000
  H   H4261     1.0  0.72592  0.84983  0.11206  1.0000
  H   H4262     1.0  0.76829  0.95690  0.28234  1.0000
  H   H4263     1.0  0.78396  0.85107  0.06967  1.0000
  H   H4264     1.0  0.74548  0.88667  0.05651  1.0000
  H   H4265     1.0  0.56561  0.80724  0.17245  1.0000
  H   H4266     1.0  0.74723  0.95607  0.36684  1.0000
  H   H4267     1.0  0.80517  0.92130  0.05169  1.0000
  H   H4268     1.0  0.79107  0.90176  0.08490  1.0000
  C   C5328     1.0  0.53638  0.87293  0.37340  1.0000
  H   H4269     1.0  0.77999  0.93789  0.09047  1.0000
  C   C5329     1.0  0.84243  0.97486  0.22585  1.0000
  H   H4270     1.0  0.50196  0.86835  0.17818  1.0000
  C   C5330     1.0  0.53560  0.83227  0.39475  1.0000
  H   H4271     1.0  0.51677  0.90921  0.30900  1.0000
  C   C5331     1.0  0.73649  0.96762  0.35872  1.0000
  H   H4272     1.0  0.77019  0.87090  0.45679  1.0000
  H   H4273     1.0  0.84515  0.82985  0.10095  1.0000
  H   H4274     1.0  0.56904  0.84453  0.34249  1.0000
  H   H4275     1.0  0.61979  0.79724  0.32477  1.0000
  C   C5332     1.0  0.90650  0.80216  0.11914  1.0000
  C   C5333     1.0  0.97488  0.96417  0.10242  1.0000
  C   C5334     1.0  0.94292  0.79773  0.12156  1.0000
  C   C5335     1.0  0.51364  0.93516  0.25128  1.0000
  H   H4276     1.0  0.86580  0.94522  0.01813  1.0000
  C   C5336     1.0  0.57006  0.80272  0.22990  1.0000
  C   C5337     1.0  0.79823  0.96634  0.01545  1.0000
  C   C5338     1.0  0.73297  0.79221  0.40588  1.0000
  C   C5339     1.0  0.65204  0.83366  0.36137  1.0000
  C   C5340     1.0  0.88552  0.85744  0.06830  1.0000
  C   C5341     1.0  0.92921  0.87259  0.45043  1.0000
  C   C5342     1.0  0.93998  0.82752  0.24204  1.0000
  C   C5343     1.0  0.69778  0.94479  0.16849  1.0000
  C   C5344     1.0  0.94884  0.83134  0.45158  1.0000
  C   C5345     1.0  0.57088  0.79090  0.17752  1.0000
  C   C5346     1.0  0.74986  0.98109  0.43002  1.0000
  C   C5347     1.0  0.52518  0.93214  0.26715  1.0000
  C   C5348     1.0  0.93725  0.80993  0.25691  1.0000
  C   C5349     1.0  0.75061  0.95001  0.08033  1.0000
  H   H4277     1.0  0.94461  0.85952  0.12821  1.0000
  C   C5350     1.0  0.88764  0.87564  0.07395  1.0000
  C   C5351     1.0  0.96998  0.84055  0.99228  1.0000
  C   C5352     1.0  0.98592  0.90660  0.02202  1.0000
  H   H4278     1.0  0.65670  0.80842  0.41009  1.0000
  C   C5353     1.0  0.79360  0.96863  0.03609  1.0000
  H   H4279     1.0  0.75277  0.79934  0.07967  1.0000
  C   C5354     1.0  0.88579  0.85838  0.10938  1.0000
  S   S721      1.0  0.87671  0.79690  0.01483  1.0000
  C   C5355     1.0  0.54392  0.89973  0.25666  1.0000
  C   C5356     1.0  0.76413  0.94525  0.09465  1.0000
  C   C5357     1.0  0.92926  0.92338  0.05287  1.0000
  C   C5358     1.0  0.92972  0.90284  0.06280  1.0000
  C   C5359     1.0  0.93242  0.89723  0.08331  1.0000
  C   C5360     1.0  0.93448  0.91219  0.09400  1.0000
  C   C5361     1.0  0.93450  0.93279  0.08403  1.0000
  C   C5362     1.0  0.93189  0.93829  0.06334  1.0000
  P   P177      1.0  0.93947  0.95146  0.09735  1.0000
  H   H4280     1.0  0.89706  0.80218  0.42809  1.0000
  C   C5363     1.0  0.92533  0.94726  0.12343  1.0000
  C   C5364     1.0  0.90483  0.94379  0.12707  1.0000
  C   C5365     1.0  0.89395  0.93999  0.14717  1.0000
  C   C5366     1.0  0.90343  0.93951  0.16383  1.0000
  C   C5367     1.0  0.92395  0.94248  0.16042  1.0000
  C   C5368     1.0  0.93491  0.94626  0.14032  1.0000
  H   H4281     1.0  0.95638  0.81535  0.45176  1.0000
  H   H4282     1.0  0.84209  0.85829  0.17612  1.0000
  C   C5369     1.0  0.79503  0.81038  0.99432  1.0000
  C   C5370     1.0  0.50361  0.92000  0.31497  1.0000
  C   C5371     1.0  0.85673  0.97804  0.01836  1.0000
  C   C5372     1.0  0.96695  0.94845  0.09737  1.0000
  H   H4283     1.0  0.78977  0.92377  0.02077  1.0000
  C   C5373     1.0  0.85839  0.84005  0.15304  1.0000
  H   H4284     1.0  0.87992  0.80096  0.19799  1.0000
  C   C5374     1.0  0.90155  0.97666  0.28202  1.0000
  C   C5375     1.0  0.72977  0.94398  0.44042  1.0000
  H   H4285     1.0  0.92723  0.92762  0.03693  1.0000
  H   H4286     1.0  0.92821  0.89117  0.05456  1.0000
  H   H4287     1.0  0.93318  0.88119  0.09085  1.0000
  H   H4288     1.0  0.93651  0.90759  0.10993  1.0000
  H   H4289     1.0  0.93199  0.95398  0.05518  1.0000
  H   H4290     1.0  0.89731  0.94372  0.11442  1.0000
  H   H4291     1.0  0.87821  0.93713  0.14985  1.0000
  H   H4292     1.0  0.89501  0.93640  0.17941  1.0000
  H   H4293     1.0  0.93150  0.94140  0.17339  1.0000
  H   H4294     1.0  0.95091  0.94797  0.13816  1.0000
  H   H4295     1.0  0.85765  0.97176  0.13991  1.0000
  C   C5376     1.0  0.70264  0.92454  0.42754  1.0000
  H   H4296     1.0  0.83520  0.96558  0.21907  1.0000
  C   C5377     1.0  0.62239  0.86093  0.47174  1.0000
  C   C5378     1.0  0.78466  0.97725  0.25850  1.0000
  C   C5379     1.0  0.74330  0.79083  0.46444  1.0000
  H   H4297     1.0  0.88672  0.85892  0.12503  1.0000
  C   C5380     1.0  0.62300  0.79239  0.42789  1.0000
  H   H4298     1.0  0.81418  0.93516  0.47216  1.0000
  P   P178      1.0  0.95797  0.80468  0.18821  1.0000
  C   C5381     1.0  0.56260  0.94886  0.28027  1.0000
  H   H4299     1.0  0.88209  0.82567  0.07842  1.0000
  H   H4300     1.0  0.49330  0.83233  0.40944  1.0000
  P   P179      1.0  0.51994  0.95040  0.28474  1.0000
  C   C5382     1.0  0.61845  0.79482  0.40801  1.0000
  C   C5383     1.0  0.66077  0.81602  0.39444  1.0000
  S   S722      1.0  0.68014  0.97144  0.34290  1.0000
  S   S723      1.0  0.49577  0.86618  0.24766  1.0000
  P   P180      1.0  0.55122  0.79693  0.21724  1.0000
  H   H4301     1.0  0.53148  0.79762  0.26038  1.0000
  C   C5384     1.0  0.54358  0.94985  0.29393  1.0000
  C   C5385     1.0  0.56168  0.94919  0.32180  1.0000
  C   C5386     1.0  0.70372  0.97735  0.34612  1.0000
  H   H4302     1.0  0.82678  0.90785  0.45050  1.0000
  C   C5387     1.0  0.77608  0.98247  0.04298  1.0000
  C   C5388     1.0  0.52638  0.83952  0.37710  1.0000
  C   C5389     1.0  0.83145  0.80285  0.10490  1.0000
  H   H4303     1.0  0.60897  0.81669  0.25808  1.0000
  C   C5390     1.0  0.78474  0.94470  0.46185  1.0000
  C   C5391     1.0  0.81980  0.97403  0.35822  1.0000
  C   C5392     1.0  0.98703  0.93968  0.15796  1.0000
  H   H4304     1.0  0.57827  0.82823  0.20599  1.0000
  C   C5393     1.0  0.88793  0.87605  0.09447  1.0000
  C   C5394     1.0  0.93070  0.97712  0.08381  1.0000
  C   C5395     1.0  0.82963  0.81730  0.99148  1.0000
  H   H4305     1.0  0.58765  0.82162  0.31770  1.0000
  H   H4306     1.0  0.56325  0.94869  0.26414  1.0000
  C   C5396     1.0  0.69830  0.80248  0.45403  1.0000
  C   C5397     1.0  0.75336  0.81432  0.08295  1.0000
  H   H4307     1.0  0.55299  0.87612  0.39631  1.0000
  H   H4308     1.0  0.92654  0.79189  0.17104  1.0000
  H   H4309     1.0  0.93769  0.84249  0.24661  1.0000
  H   H4310     1.0  0.70726  0.97213  0.10960  1.0000
  H   H4311     1.0  0.89984  0.78354  0.09943  1.0000
  C   C5398     1.0  0.91418  0.92357  0.32388  1.0000
  C   C5399     1.0  0.79110  0.97569  0.17600  1.0000
  C   C5400     1.0  0.98065  0.93072  0.09201  1.0000
  C   C5401     1.0  0.88602  0.94902  0.34880  1.0000
  C   C5402     1.0  0.88266  0.92902  0.34897  1.0000
  C   C5403     1.0  0.89730  0.91612  0.33706  1.0000
  P   P181      1.0  0.86028  0.91934  0.36474  1.0000
  C   C5404     1.0  0.86846  0.90475  0.38819  1.0000
  C   C5405     1.0  0.83888  0.94000  0.36946  1.0000
  C   C5406     1.0  0.82469  0.93836  0.38801  1.0000
  C   C5407     1.0  0.80860  0.95484  0.39189  1.0000
  C   C5408     1.0  0.90292  0.95648  0.33560  1.0000
  S   S724      1.0  0.61253  0.82320  0.47081  1.0000
  C   C5409     1.0  0.83581  0.95760  0.35425  1.0000
  C   C5410     1.0  0.86710  0.91452  0.40501  1.0000
  C   C5411     1.0  0.87216  0.90286  0.42362  1.0000
  C   C5412     1.0  0.87903  0.88151  0.42536  1.0000
  C   C5413     1.0  0.88157  0.87193  0.40829  1.0000
  C   C5414     1.0  0.87657  0.88355  0.38969  1.0000
  C   C5415     1.0  0.85102  0.90385  0.35096  1.0000
  C   C5416     1.0  0.84165  0.88683  0.36144  1.0000
  C   C5417     1.0  0.83534  0.87454  0.35040  1.0000
  C   C5418     1.0  0.83804  0.87930  0.32898  1.0000
  C   C5419     1.0  0.84664  0.89657  0.31854  1.0000
  C   C5420     1.0  0.85281  0.90904  0.32948  1.0000
  H   H4312     1.0  0.50182  0.94864  0.24879  1.0000
  C   C5421     1.0  0.93811  0.85148  0.14303  1.0000
  H   H4313     1.0  0.87538  0.95910  0.35838  1.0000
  H   H4314     1.0  0.89537  0.90041  0.33762  1.0000
  H   H4315     1.0  0.82610  0.92445  0.39948  1.0000
  H   H4316     1.0  0.79784  0.95383  0.40629  1.0000
  H   H4317     1.0  0.90479  0.97230  0.33476  1.0000
  C   C5422     1.0  0.55880  0.79192  0.37322  1.0000
  H   H4318     1.0  0.84590  0.95878  0.33940  1.0000
  H   H4319     1.0  0.86178  0.93106  0.40387  1.0000
  H   H4320     1.0  0.87034  0.91030  0.43680  1.0000
  H   H4321     1.0  0.88197  0.87228  0.44001  1.0000
  H   H4322     1.0  0.88652  0.85534  0.40963  1.0000
  H   H4323     1.0  0.87855  0.87584  0.37667  1.0000
  H   H4324     1.0  0.83944  0.88282  0.37806  1.0000
  H   H4325     1.0  0.82891  0.86091  0.35833  1.0000
  H   H4326     1.0  0.83389  0.86934  0.32037  1.0000
  C   C5423     1.0  0.62448  0.84502  0.46056  1.0000
  H   H4327     1.0  0.93258  0.81137  0.27301  1.0000
  S   S725      1.0  0.97754  0.83847  0.10016  1.0000
  C   C5424     1.0  0.68560  0.83949  0.44716  1.0000
  H   H4328     1.0  0.50783  0.92264  0.22652  1.0000
  C   C5425     1.0  0.91748  0.85787  0.15136  1.0000
  C   C5426     1.0  0.87240  0.97878  0.23846  1.0000
  C   C5427     1.0  0.94716  0.84088  0.46865  1.0000
  C   C5428     1.0  0.73640  0.95926  0.11982  1.0000
  C   C5429     1.0  0.94120  0.84248  0.43396  1.0000
  C   C5430     1.0  0.54081  0.80338  0.43393  1.0000
  H   H4329     1.0  0.78242  0.81713  0.06241  1.0000
  H   H4330     1.0  0.71438  0.94728  0.36262  1.0000
  H   H4331     1.0  0.87112  0.95314  0.22449  1.0000
  H   H4332     1.0  0.57401  0.79601  0.42422  1.0000
  C   C5431     1.0  0.52401  0.81790  0.19079  1.0000
  C   C5432     1.0  0.54320  0.95039  0.31471  1.0000
  C   C5433     1.0  0.88325  0.83977  0.08320  1.0000
  C   C5434     1.0  0.98567  0.85019  0.99471  1.0000
  H   H4333     1.0  0.78932  0.97590  0.98577  1.0000
  S   S726      1.0  0.71340  0.96596  0.06761  1.0000
  C   C5435     1.0  0.59485  0.82412  0.23092  1.0000
  H   H4334     1.0  0.62607  0.80525  0.43335  1.0000
  C   C5436     1.0  0.67550  0.83874  0.46754  1.0000
  S   S727      1.0  0.80803  0.79041  0.40540  1.0000
  H   H4335     1.0  0.67716  0.84501  0.33914  1.0000
  H   H4336     1.0  0.81179  0.95550  0.01019  1.0000
  H   H4337     1.0  0.96078  0.79514  0.00557  1.0000
  C   C5437     1.0  0.81163  0.91744  0.44997  1.0000
  H   H4338     1.0  0.92343  0.80220  0.00450  1.0000
  C   C5438     1.0  0.71729  0.96672  0.17811  1.0000
  C   C5439     1.0  0.69698  0.82143  0.44039  1.0000
  C   C5440     1.0  0.71778  0.96262  0.35655  1.0000
  C   C5441     1.0  0.95053  0.83545  0.15410  1.0000
  C   C5442     1.0  0.61923  0.80651  0.35361  1.0000
  C   C5443     1.0  0.52659  0.78552  0.25515  1.0000
  C   C5444     1.0  0.88259  0.84035  0.10399  1.0000
  H   H4339     1.0  0.75602  0.94618  0.06511  1.0000
  C   C5445     1.0  0.58057  0.94760  0.30824  1.0000
  C   C5446     1.0  0.87397  0.81188  0.18541  1.0000
  C   C5447     1.0  0.94952  0.80647  0.21515  1.0000
  H   H4340     1.0  0.73116  0.80289  0.46978  1.0000
  C   C5448     1.0  0.98259  0.86883  0.16423  1.0000
  C   C5449     1.0  0.85240  0.84402  0.17315  1.0000
  H   H4341     1.0  0.95208  0.95961  0.20587  1.0000
  H   H4342     1.0  0.80303  0.83029  0.01166  1.0000
  C   C5450     1.0  0.73019  0.96008  0.08556  1.0000
  C   C5451     1.0  0.92236  0.80747  0.12660  1.0000
  H   H4343     1.0  0.94287  0.83512  0.42072  1.0000
  C   C5452     1.0  0.77910  0.92579  0.43726  1.0000
  H   H4344     1.0  0.87566  0.96152  0.28395  1.0000
  C   C5453     1.0  0.51172  0.85489  0.18532  1.0000
  C   C5454     1.0  0.95527  0.78919  0.99438  1.0000
  H   H4345     1.0  0.96669  0.83145  0.14755  1.0000
  S   S728      1.0  0.85258  0.79930  0.41257  1.0000
  C   C5455     1.0  0.59857  0.81247  0.24995  1.0000
  H   H4346     1.0  0.62807  0.89170  0.47067  1.0000
  C   C5456     1.0  0.73112  0.94356  0.41944  1.0000
  H   H4347     1.0  0.52878  0.95142  0.32555  1.0000
  H   H4348     1.0  0.80347  0.95958  0.04680  1.0000
  C   C5457     1.0  0.80451  0.93275  0.46218  1.0000
  C   C5458     1.0  0.96828  0.96856  0.17474  1.0000
  H   H4349     1.0  0.72456  0.81590  0.10441  1.0000
  C   C5459     1.0  0.54039  0.91423  0.26970  1.0000
  C   C5460     1.0  0.95254  0.79786  0.05476  1.0000
  C   C5461     1.0  0.53460  0.83936  0.20998  1.0000
  H   H4350     1.0  0.88911  0.88939  0.06239  1.0000
  H   H4351     1.0  0.71364  0.93387  0.47117  1.0000
  C   C5462     1.0  0.84600  0.81368  0.10784  1.0000
  H   H4352     1.0  0.75975  0.90661  0.02331  1.0000
  H   H4353     1.0  0.95523  0.80236  0.12674  1.0000
  H   H4354     1.0  0.72850  0.78350  0.35929  1.0000
  P   P182      1.0  0.88074  0.81714  0.12290  1.0000
  H   H4355     1.0  0.59490  0.94612  0.31395  1.0000
  C   C5463     1.0  0.51203  0.83537  0.18100  1.0000
  H   H4356     1.0  0.94211  0.97652  0.32627  1.0000
  C   C5464     1.0  0.86015  0.82994  0.18934  1.0000
  C   C5465     1.0  0.58103  0.94755  0.28747  1.0000
  C   C5466     1.0  0.70141  0.92452  0.44843  1.0000
  H   H4357     1.0  0.69454  0.92954  0.16894  1.0000
  C   C5467     1.0  0.87284  0.82232  0.14885  1.0000
  H   H4358     1.0  0.59574  0.94617  0.27705  1.0000
  H   H4359     1.0  0.82782  0.96910  0.29051  1.0000
  H   H4360     1.0  0.53438  0.89106  0.23161  1.0000
  H   H4361     1.0  0.71835  0.93414  0.39690  1.0000
  C   C5468     1.0  0.98507  0.80677  0.18032  1.0000
  C   C5469     1.0  0.88088  0.97375  0.28854  1.0000
  H   H4362     1.0  0.84928  0.98058  0.00514  1.0000
  C   C5470     1.0  0.87657  0.97013  0.05248  1.0000
  H   H4363     1.0  0.68993  0.91697  0.45951  1.0000
  H   H4364     1.0  0.64316  0.93490  0.45809  1.0000
  C   C5471     1.0  0.55037  0.80070  0.47309  1.0000
  H   H4365     1.0  0.90174  0.83393  0.43837  1.0000
  H   H4366     1.0  0.74764  0.80234  0.37485  1.0000
  H   H4367     1.0  0.59153  0.78640  0.27339  1.0000
  H   H4368     1.0  0.56152  0.94903  0.33793  1.0000
  S   S729      1.0  0.50062  0.82551  0.29944  1.0000
  H   H4369     1.0  0.76952  0.92274  0.42763  1.0000
  C   C5472     1.0  0.61157  0.80716  0.33570  1.0000
  H   H4370     1.0  0.67572  0.96040  0.14871  1.0000
  C   C5473     1.0  0.72312  0.96478  0.10531  1.0000
  H   H4371     1.0  0.72927  0.96813  0.18599  1.0000
  C   C5474     1.0  0.80636  0.97277  0.37712  1.0000
  P   P183      1.0  0.74669  0.95750  0.44832  1.0000
  H   H4372     1.0  0.75094  0.97996  0.15176  1.0000
  H   H4373     1.0  0.69209  0.91713  0.42257  1.0000
  H   H4374     1.0  0.73083  0.96253  0.13515  1.0000
  H   H4375     1.0  0.72944  0.98024  0.02473  1.0000
  H   H4376     1.0  0.88821  0.97307  0.24095  1.0000
  C   C5475     1.0  0.56624  0.79712  0.45651  1.0000
  H   H4377     1.0  0.50888  0.81124  0.44868  1.0000
  C   C5476     1.0  0.77187  0.97236  0.27741  1.0000
  H   H4378     1.0  0.77952  0.95654  0.47140  1.0000
  H   H4379     1.0  0.96080  0.98028  0.06503  1.0000
  C   C5477     1.0  0.70032  0.98074  0.01624  1.0000
  H   H4380     1.0  0.58589  0.78598  0.14698  1.0000
  H   H4381     1.0  0.49980  0.79629  0.16235  1.0000
  C   C5478     1.0  0.83711  0.80401  0.97716  1.0000
  H   H4382     1.0  0.98526  0.97162  0.14361  1.0000
  H   H4383     1.0  0.50238  0.83373  0.17060  1.0000
  C   C5479     1.0  0.91150  0.78709  0.10645  1.0000
  C   C5480     1.0  0.58875  0.79546  0.25858  1.0000
  H   H4384     1.0  0.82076  0.98215  0.15925  1.0000
  C   C5481     1.0  0.98108  0.92579  0.17570  1.0000
  H   H4385     1.0  0.96874  0.97322  0.29502  1.0000
  C   C5482     1.0  0.64075  0.93512  0.47447  1.0000
  C   C5483     1.0  0.76300  0.78907  0.46915  1.0000
  H   H4386     1.0  0.78026  0.98224  0.43569  1.0000
  H   H4387     1.0  0.98602  0.90928  0.17606  1.0000
  H   H4388     1.0  0.74153  0.80051  0.41237  1.0000
  C   C5484     1.0  0.94067  0.79057  0.25101  1.0000
  C   C5485     1.0  0.94688  0.78879  0.23022  1.0000
  C   C5486     1.0  0.55293  0.78748  0.39469  1.0000
  C   C5487     1.0  0.49172  0.81635  0.41083  1.0000
  H   H4389     1.0  0.62363  0.96627  0.47185  1.0000
  H   H4390     1.0  0.96455  0.97791  0.10678  1.0000
  C   C5488     1.0  0.88098  0.79054  0.45800  1.0000
  C   C5489     1.0  0.52973  0.80574  0.47017  1.0000
  C   C5490     1.0  0.72240  0.80593  0.97766  1.0000
  C   C5491     1.0  0.73653  0.79323  0.38457  1.0000
  C   C5492     1.0  0.69167  0.98180  0.15614  1.0000
  C   C5493     1.0  0.68820  0.80190  0.47453  1.0000
  H   H4391     1.0  0.54224  0.91515  0.72555  1.0000
  H   H4392     1.0  0.90381  0.87109  0.51270  1.0000
  H   H4393     1.0  0.62418  0.79236  0.58847  1.0000
  C   C5494     1.0  0.87326  0.79417  0.47804  1.0000
  Fe  Fe364     1.0  0.57834  0.81083  0.84361  1.0000
  S   S730      1.0  0.58588  0.84134  0.82453  1.0000
  S   S731      1.0  0.55858  0.80957  0.87500  1.0000
  Fe  Fe365     1.0  0.66656  0.96621  0.80407  1.0000
  S   S732      1.0  0.65200  0.95105  0.83519  1.0000
  H   H4394     1.0  0.91609  0.83857  0.55792  1.0000
  Fe  Fe366     1.0  0.63485  0.95539  0.78259  1.0000
  S   S733      1.0  0.61774  0.94066  0.81223  1.0000
  S   S734      1.0  0.62157  0.95925  0.75356  1.0000
  Fe  Fe367     1.0  0.62191  0.96727  0.82520  1.0000
  H   H4395     1.0  0.50492  0.86227  0.85669  1.0000
  Fe  Fe368     1.0  0.64919  0.92565  0.81910  1.0000
  S   S735      1.0  0.65394  0.89129  0.83280  1.0000
  C   C5495     1.0  0.55529  0.81798  0.70637  1.0000
  S   S736      1.0  0.66655  0.93930  0.78853  1.0000
  Fe  Fe369     1.0  0.60564  0.88478  0.68624  1.0000
  S   S737      1.0  0.57539  0.90626  0.68367  1.0000
  S   S738      1.0  0.62770  0.88467  0.70748  1.0000
  Fe  Fe370     1.0  0.59685  0.85533  0.66089  1.0000
  S   S739      1.0  0.56536  0.87396  0.65723  1.0000
  S   S740      1.0  0.61279  0.82563  0.64908  1.0000
  Fe  Fe371     1.0  0.58184  0.90124  0.65092  1.0000
  S   S741      1.0  0.57483  0.92503  0.62330  1.0000
  Fe  Fe372     1.0  0.56158  0.87731  0.69028  1.0000
  S   S742      1.0  0.53457  0.87649  0.71664  1.0000
  S   S743      1.0  0.61362  0.88241  0.65261  1.0000
  S   S744      1.0  0.59155  0.85615  0.69458  1.0000
  Fe  Fe373     1.0  0.65310  0.78542  0.52779  1.0000
  H   H4396     1.0  0.50622  0.81004  0.70737  1.0000
  Fe  Fe374     1.0  0.62003  0.80429  0.50093  1.0000
  C   C5496     1.0  0.77346  0.80918  0.66332  1.0000
  C   C5497     1.0  0.55789  0.93473  0.73622  1.0000
  H   H4397     1.0  0.54243  0.85573  0.84222  1.0000
  S   S745      1.0  0.62840  0.81377  0.52763  1.0000
  Fe  Fe375     1.0  0.77871  0.86660  0.56743  1.0000
  S   S746      1.0  0.77976  0.89577  0.54396  1.0000
  S   S747      1.0  0.80770  0.84666  0.57819  1.0000
  Fe  Fe376     1.0  0.73305  0.86654  0.56672  1.0000
  S   S748      1.0  0.73065  0.89589  0.54381  1.0000
  S   S749      1.0  0.70409  0.85184  0.57714  1.0000
  Fe  Fe377     1.0  0.76144  0.88225  0.52772  1.0000
  S   S750      1.0  0.76232  0.88685  0.49383  1.0000
  Fe  Fe378     1.0  0.74876  0.90726  0.56200  1.0000
  S   S751      1.0  0.74170  0.94123  0.56369  1.0000
  S   S752      1.0  0.76277  0.85190  0.54935  1.0000
  S   S753      1.0  0.74879  0.87908  0.58692  1.0000
  Fe  Fe379     1.0  0.89834  0.85647  0.62996  1.0000
  S   S754      1.0  0.90796  0.82684  0.65156  1.0000
  S   S755      1.0  0.86489  0.87279  0.62963  1.0000
  Fe  Fe380     1.0  0.94214  0.85729  0.60654  1.0000
  S   S756      1.0  0.95436  0.82783  0.62576  1.0000
  S   S757      1.0  0.96616  0.87033  0.58128  1.0000
  Fe  Fe381     1.0  0.92643  0.81645  0.62248  1.0000
  Fe  Fe382     1.0  0.93544  0.84113  0.65308  1.0000
  S   S758      1.0  0.95554  0.83444  0.67846  1.0000
  S   S759      1.0  0.91550  0.84510  0.60114  1.0000
  S   S760      1.0  0.92435  0.87164  0.63367  1.0000
  C   C5498     1.0  0.72120  0.84134  0.71106  1.0000
  C   C5499     1.0  0.96220  0.85111  0.69256  1.0000
  C   C5500     1.0  0.87771  0.79705  0.52854  1.0000
  H   H4398     1.0  0.96635  0.89441  0.67046  1.0000
  H   H4399     1.0  0.93921  0.95496  0.70620  1.0000
  H   H4400     1.0  0.97579  0.79228  0.70508  1.0000
  H   H4401     1.0  0.50873  0.93934  0.72792  1.0000
  H   H4402     1.0  0.76909  0.81488  0.59214  1.0000
  H   H4403     1.0  0.98773  0.79956  0.65272  1.0000
  C   C5501     1.0  0.50884  0.91779  0.67457  1.0000
  C   C5502     1.0  0.80463  0.87428  0.48602  1.0000
  C   C5503     1.0  0.72117  0.95067  0.58201  1.0000
  C   C5504     1.0  0.70970  0.93738  0.59653  1.0000
  H   H4404     1.0  0.50492  0.98183  0.87616  1.0000
  H   H4405     1.0  0.71309  0.92092  0.59633  1.0000
  C   C5505     1.0  0.69338  0.89257  0.50084  1.0000
  C   C5506     1.0  0.82392  0.85511  0.59126  1.0000
  C   C5507     1.0  0.84347  0.84308  0.59348  1.0000
  C   C5508     1.0  0.85623  0.84844  0.60495  1.0000
  C   C5509     1.0  0.84960  0.86599  0.61433  1.0000
  C   C5510     1.0  0.83018  0.87825  0.61178  1.0000
  C   C5511     1.0  0.81746  0.87293  0.60018  1.0000
  H   H4406     1.0  0.84877  0.82953  0.58630  1.0000
  H   H4407     1.0  0.87106  0.83880  0.60680  1.0000
  H   H4408     1.0  0.82496  0.89192  0.61884  1.0000
  H   H4409     1.0  0.80262  0.88248  0.59827  1.0000
  H   H4410     1.0  0.80513  0.87928  0.50010  1.0000
  C   C5512     1.0  0.69959  0.84985  0.50251  1.0000
  H   H4411     1.0  0.56211  0.96142  0.59565  1.0000
  C   C5513     1.0  0.75209  0.87675  0.64455  1.0000
  H   H4412     1.0  0.72252  0.80301  0.52805  1.0000
  C   C5514     1.0  0.52969  0.81610  0.66163  1.0000
  H   H4413     1.0  0.96979  0.86334  0.50062  1.0000
  C   C5515     1.0  0.79498  0.81707  0.52221  1.0000
  H   H4414     1.0  0.95748  0.83055  0.57944  1.0000
  C   C5516     1.0  0.52501  0.92712  0.66221  1.0000
  C   C5517     1.0  0.69097  0.80407  0.54373  1.0000
  C   C5518     1.0  0.71068  0.80967  0.53952  1.0000
  C   C5519     1.0  0.71488  0.82444  0.54943  1.0000
  C   C5520     1.0  0.69958  0.83319  0.56425  1.0000
  C   C5521     1.0  0.68016  0.82688  0.56911  1.0000
  C   C5522     1.0  0.67568  0.81278  0.55857  1.0000
  C   C5523     1.0  0.76504  0.89148  0.64032  1.0000
  H   H4415     1.0  0.72989  0.82911  0.54555  1.0000
  H   H4416     1.0  0.66842  0.83312  0.58095  1.0000
  C   C5524     1.0  0.98577  0.79650  0.73172  1.0000
  C   C5525     1.0  0.59177  0.80475  0.70634  1.0000
  C   C5526     1.0  0.60507  0.81988  0.62774  1.0000
  C   C5527     1.0  0.58487  0.82692  0.62380  1.0000
  C   C5528     1.0  0.57874  0.82118  0.60741  1.0000
  H   H4417     1.0  0.54204  0.94855  0.92137  1.0000
  H   H4418     1.0  0.98143  0.97669  0.65196  1.0000
  C   C5529     1.0  0.61916  0.80725  0.61503  1.0000
  H   H4419     1.0  0.57389  0.83653  0.63357  1.0000
  H   H4420     1.0  0.56302  0.82649  0.60459  1.0000
  C   C5530     1.0  0.95328  0.87927  0.71238  1.0000
  S   S761      1.0  0.68627  0.78567  0.53068  1.0000
  C   C5531     1.0  0.57615  0.95097  0.62279  1.0000
  C   C5532     1.0  0.58513  0.95681  0.63715  1.0000
  H   H4421     1.0  0.52207  0.95675  0.85309  1.0000
  H   H4422     1.0  0.98165  0.84222  0.94057  1.0000
  C   C5533     1.0  0.98506  0.81478  0.56275  1.0000
  H   H4423     1.0  0.72310  0.89123  0.48069  1.0000
  C   C5534     1.0  0.50560  0.89170  0.86416  1.0000
  H   H4424     1.0  0.90059  0.83755  0.50505  1.0000
  H   H4425     1.0  0.85476  0.79186  0.59837  1.0000
  H   H4426     1.0  0.65655  0.90389  0.48149  1.0000
  H   H4427     1.0  0.97988  0.91565  0.68879  1.0000
  H   H4428     1.0  0.57246  0.96817  0.69181  1.0000
  C   C5535     1.0  0.66681  0.91602  0.58282  1.0000
  C   C5536     1.0  0.50378  0.79630  0.73914  1.0000
  C   C5537     1.0  0.95098  0.86824  0.52966  1.0000
  C   C5538     1.0  0.51631  0.80160  0.66925  1.0000
  C   C5539     1.0  0.74876  0.90333  0.67228  1.0000
  C   C5540     1.0  0.93500  0.79673  0.49295  1.0000
  C   C5541     1.0  0.63364  0.93515  0.51681  1.0000
  C   C5542     1.0  0.62131  0.93797  0.74222  1.0000
  C   C5543     1.0  0.62905  0.91773  0.75091  1.0000
  C   C5544     1.0  0.63006  0.90130  0.74059  1.0000
  C   C5545     1.0  0.62327  0.90501  0.72161  1.0000
  C   C5546     1.0  0.61422  0.92505  0.71368  1.0000
  C   C5547     1.0  0.61347  0.94152  0.72383  1.0000
  H   H4429     1.0  0.63477  0.91482  0.76529  1.0000
  H   H4430     1.0  0.63641  0.88573  0.74723  1.0000
  H   H4431     1.0  0.60856  0.92799  0.69929  1.0000
  H   H4432     1.0  0.60733  0.95714  0.71711  1.0000
  C   C5548     1.0  0.60518  0.85451  0.82718  1.0000
  C   C5549     1.0  0.60713  0.87364  0.81434  1.0000
  C   C5550     1.0  0.62199  0.88492  0.81594  1.0000
  C   C5551     1.0  0.63521  0.87716  0.83036  1.0000
  C   C5552     1.0  0.63358  0.85777  0.84294  1.0000
  C   C5553     1.0  0.61848  0.84655  0.84151  1.0000
  H   H4433     1.0  0.59717  0.87974  0.80297  1.0000
  H   H4434     1.0  0.62347  0.89942  0.80569  1.0000
  H   H4435     1.0  0.64380  0.85160  0.85405  1.0000
  H   H4436     1.0  0.61713  0.83180  0.85145  1.0000
  C   C5554     1.0  0.96294  0.95517  0.76461  1.0000
  H   H4437     1.0  0.68849  0.91273  0.53333  1.0000
  H   H4438     1.0  0.51513  0.83005  0.84310  1.0000
  C   C5555     1.0  0.85157  0.87446  0.52610  1.0000
  H   H4439     1.0  0.79240  0.79340  0.89715  1.0000
  C   C5556     1.0  0.57360  0.93622  0.79388  1.0000
  C   C5557     1.0  0.57415  0.95731  0.79111  1.0000
  C   C5558     1.0  0.56861  0.96750  0.80796  1.0000
  C   C5559     1.0  0.56282  0.95654  0.82766  1.0000
  C   C5560     1.0  0.56163  0.93542  0.83063  1.0000
  C   C5561     1.0  0.56731  0.92529  0.81352  1.0000
  P   P184      1.0  0.55544  0.92097  0.85637  1.0000
  C   C5562     1.0  0.57957  0.90838  0.86476  1.0000
  C   C5563     1.0  0.54208  0.93850  0.87389  1.0000
  C   C5564     1.0  0.54745  0.93618  0.89338  1.0000
  C   C5565     1.0  0.53760  0.95028  0.90648  1.0000
  H   H4440     1.0  0.60706  0.79972  0.69798  1.0000
  C   C5566     1.0  0.73906  0.83050  0.66547  1.0000
  C   C5567     1.0  0.52641  0.95483  0.86798  1.0000
  C   C5568     1.0  0.58218  0.88783  0.87533  1.0000
  C   C5569     1.0  0.60089  0.87862  0.88207  1.0000
  C   C5570     1.0  0.61691  0.88995  0.87870  1.0000
  C   C5571     1.0  0.61414  0.91059  0.86883  1.0000
  C   C5572     1.0  0.59552  0.91981  0.86197  1.0000
  C   C5573     1.0  0.53927  0.90256  0.85607  1.0000
  C   C5574     1.0  0.54792  0.88432  0.84801  1.0000
  H   H4441     1.0  0.95607  0.83060  0.97088  1.0000
  C   C5575     1.0  0.98116  0.84958  0.56968  1.0000
  H   H4442     1.0  0.63838  0.90570  0.59868  1.0000
  C   C5576     1.0  0.71197  0.83950  0.73183  1.0000
  H   H4443     1.0  0.57900  0.92822  0.78089  1.0000
  H   H4444     1.0  0.57987  0.96554  0.77609  1.0000
  C   C5577     1.0  0.78926  0.78936  0.93016  1.0000
  H   H4445     1.0  0.56008  0.96451  0.84056  1.0000
  H   H4446     1.0  0.56772  0.90886  0.81531  1.0000
  H   H4447     1.0  0.55937  0.92366  0.89846  1.0000
  H   H4448     1.0  0.83503  0.82169  0.48257  1.0000
  C   C5578     1.0  0.87108  0.88004  0.52282  1.0000
  H   H4449     1.0  0.79742  0.81068  0.55442  1.0000
  H   H4450     1.0  0.62251  0.79941  0.80512  1.0000
  H   H4451     1.0  0.56993  0.87881  0.87842  1.0000
  H   H4452     1.0  0.60312  0.86254  0.88953  1.0000
  H   H4453     1.0  0.63169  0.88265  0.88323  1.0000
  H   H4454     1.0  0.62669  0.91926  0.86593  1.0000
  H   H4455     1.0  0.59362  0.93589  0.85449  1.0000
  H   H4456     1.0  0.56435  0.88092  0.84199  1.0000
  C   C5579     1.0  0.69040  0.96663  0.61260  1.0000
  H   H4457     1.0  0.59563  0.82342  0.78837  1.0000
  H   H4458     1.0  0.51010  0.90111  0.67714  1.0000
  P   P185      1.0  0.72194  0.85479  0.66898  1.0000
  C   C5580     1.0  0.70982  0.85242  0.69573  1.0000
  C   C5581     1.0  0.68926  0.86206  0.70154  1.0000
  C   C5582     1.0  0.68002  0.85989  0.72226  1.0000
  C   C5583     1.0  0.69133  0.84864  0.73742  1.0000
  C   C5584     1.0  0.70274  0.85979  0.65235  1.0000
  C   C5585     1.0  0.68529  0.84993  0.65819  1.0000
  C   C5586     1.0  0.67082  0.85317  0.64509  1.0000
  C   C5587     1.0  0.67380  0.86600  0.62593  1.0000
  C   C5588     1.0  0.69101  0.87591  0.62003  1.0000
  C   C5589     1.0  0.70529  0.87303  0.63321  1.0000
  H   H4459     1.0  0.68018  0.87121  0.69022  1.0000
  H   H4460     1.0  0.66404  0.86707  0.72652  1.0000
  H   H4461     1.0  0.68408  0.84720  0.75349  1.0000
  H   H4462     1.0  0.68280  0.83969  0.67285  1.0000
  H   H4463     1.0  0.65737  0.84556  0.64966  1.0000
  H   H4464     1.0  0.66297  0.86801  0.61548  1.0000
  H   H4465     1.0  0.69361  0.88541  0.60493  1.0000
  H   H4466     1.0  0.71831  0.88104  0.62814  1.0000
  H   H4467     1.0  0.75390  0.86631  0.63378  1.0000
  C   C5590     1.0  0.49115  0.85125  0.70114  1.0000
  C   C5591     1.0  0.51887  0.78967  0.80085  1.0000
  C   C5592     1.0  0.50924  0.79580  0.71806  1.0000
  S   S762      1.0  0.59722  0.78470  0.52011  1.0000
  H   H4468     1.0  0.49670  0.81081  0.74438  1.0000
  H   H4469     1.0  0.63481  0.80174  0.61800  1.0000
  C   C5593     1.0  0.66268  0.96903  0.52504  1.0000
  H   H4470     1.0  0.92811  0.82006  0.52868  1.0000
  C   C5594     1.0  0.96633  0.97195  0.72250  1.0000
  H   H4471     1.0  0.77347  0.82807  0.95906  1.0000
  C   C5595     1.0  0.76040  0.82806  0.66575  1.0000
  C   C5596     1.0  0.96831  0.83797  0.97274  1.0000
  C   C5597     1.0  0.96913  0.94212  0.75000  1.0000
  C   C5598     1.0  0.97097  0.95043  0.72902  1.0000
  C   C5599     1.0  0.71452  0.86118  0.49068  1.0000
  H   H4472     1.0  0.93083  0.86921  0.55893  1.0000
  Fe  Fe383     1.0  0.60791  0.79179  0.54706  1.0000
  H   H4473     1.0  0.68958  0.78759  0.48554  1.0000
  H   H4474     1.0  0.86407  0.78355  0.48824  1.0000
  C   C5600     1.0  0.96157  0.96721  0.68078  1.0000
  H   H4475     1.0  0.71457  0.81453  0.66417  1.0000
  C   C5601     1.0  0.93850  0.94447  0.67857  1.0000
  C   C5602     1.0  0.94645  0.94526  0.65761  1.0000
  C   C5603     1.0  0.96198  0.95688  0.64820  1.0000
  C   C5604     1.0  0.86720  0.84213  0.51383  1.0000
  H   H4476     1.0  0.72855  0.85345  0.48214  1.0000
  H   H4477     1.0  0.76711  0.84063  0.66785  1.0000
  H   H4478     1.0  0.72589  0.98216  0.57130  1.0000
  H   H4479     1.0  0.65620  0.79188  0.91787  1.0000
  C   C5605     1.0  0.67667  0.81992  0.48118  1.0000
  C   C5606     1.0  0.74026  0.83492  0.96330  1.0000
  C   C5607     1.0  0.51666  0.96897  0.88105  1.0000
  H   H4480     1.0  0.92586  0.80799  0.48293  1.0000
  H   H4481     1.0  0.66052  0.80836  0.56221  1.0000
  H   H4482     1.0  0.97629  0.94002  0.71796  1.0000
  C   C5608     1.0  0.49982  0.82807  0.84201  1.0000
  C   C5609     1.0  0.84958  0.85566  0.52158  1.0000
  C   C5610     1.0  0.71887  0.79492  0.62179  1.0000
  C   C5611     1.0  0.51241  0.86621  0.71705  1.0000
  C   C5612     1.0  0.98692  0.82471  0.48407  1.0000
  H   H4483     1.0  0.62245  0.93767  0.61560  1.0000
  C   C5613     1.0  0.52278  0.83536  0.65023  1.0000
  H   H4484     1.0  0.94077  0.93660  0.64874  1.0000
  C   C5614     1.0  0.62599  0.95271  0.50342  1.0000
  H   H4485     1.0  0.60261  0.80334  0.73439  1.0000
  C   C5615     1.0  0.73768  0.82305  0.60691  1.0000
  C   C5616     1.0  0.73728  0.87519  0.66272  1.0000
  C   C5617     1.0  0.52195  0.94345  0.73200  1.0000
  C   C5618     1.0  0.88677  0.84793  0.51052  1.0000
  C   C5619     1.0  0.68190  0.79998  0.89447  1.0000
  S   S763      1.0  0.97917  0.89040  0.73356  1.0000
  C   C5620     1.0  0.58915  0.80689  0.72696  1.0000
  C   C5621     1.0  0.56894  0.96592  0.60685  1.0000
  C   C5622     1.0  0.71938  0.81608  0.61710  1.0000
  C   C5623     1.0  0.96951  0.96781  0.65970  1.0000
  C   C5624     1.0  0.95785  0.85792  0.51286  1.0000
  S   S764      1.0  0.58445  0.80166  0.57432  1.0000
  C   C5625     1.0  0.64590  0.97683  0.58603  1.0000
  C   C5626     1.0  0.79652  0.78321  0.91098  1.0000
  H   H4486     1.0  0.83791  0.88448  0.53261  1.0000
  H   H4487     1.0  0.53321  0.84645  0.64434  1.0000
  C   C5627     1.0  0.55750  0.85163  0.78379  1.0000
  C   C5628     1.0  0.59289  0.80881  0.59451  1.0000
  C   C5629     1.0  0.53733  0.96756  0.74389  1.0000
  C   C5630     1.0  0.94969  0.84048  0.51216  1.0000
  C   C5631     1.0  0.52098  0.96983  0.79167  1.0000
  C   C5632     1.0  0.50374  0.82405  0.78574  1.0000
  C   C5633     1.0  0.88752  0.80232  0.54275  1.0000
  C   C5634     1.0  0.82195  0.79629  0.61025  1.0000
  C   C5635     1.0  0.53840  0.79301  0.78997  1.0000
  H   H4488     1.0  0.53648  0.95550  0.64971  1.0000
  H   H4489     1.0  0.83516  0.80875  0.54803  1.0000
  C   C5636     1.0  0.97318  0.87494  0.71773  1.0000
  H   H4490     1.0  0.93237  0.87087  0.69620  1.0000
  C   C5637     1.0  0.61400  0.79370  0.79614  1.0000
  C   C5638     1.0  0.55900  0.87167  0.78543  1.0000
  C   C5639     1.0  0.52327  0.82753  0.77509  1.0000
  C   C5640     1.0  0.75538  0.80898  0.60090  1.0000
  H   H4491     1.0  0.51489  0.97780  0.91033  1.0000
  H   H4492     1.0  0.83423  0.85174  0.52462  1.0000
  H   H4493     1.0  0.70455  0.78960  0.62943  1.0000
  C   C5641     1.0  0.82715  0.81874  0.49833  1.0000
  H   H4494     1.0  0.70941  0.80335  0.87182  1.0000
  S   S765      1.0  0.55861  0.79426  0.83156  1.0000
  C   C5642     1.0  0.97307  0.83157  0.57145  1.0000
  H   H4495     1.0  0.72426  0.88811  0.69054  1.0000
  C   C5643     1.0  0.53554  0.86991  0.84818  1.0000
  C   C5644     1.0  0.49201  0.81050  0.85325  1.0000
  H   H4496     1.0  0.57252  0.92406  0.73522  1.0000
  C   C5645     1.0  0.54082  0.81212  0.77730  1.0000
  H   H4497     1.0  0.54229  0.82305  0.69830  1.0000
  P   P186      1.0  0.56606  0.81736  0.76411  1.0000
  C   C5646     1.0  0.95221  0.80144  0.49873  1.0000
  C   C5647     1.0  0.55256  0.81992  0.72702  1.0000
  H   H4498     1.0  0.53867  0.91774  0.65495  1.0000
  H   H4499     1.0  0.73723  0.83422  0.70702  1.0000
  C   C5648     1.0  0.80291  0.79105  0.60987  1.0000
  C   C5649     1.0  0.93453  0.83359  0.52853  1.0000
  H   H4500     1.0  0.74752  0.91372  0.68293  1.0000
  C   C5650     1.0  0.50627  0.96088  0.66895  1.0000
  H   H4501     1.0  0.58935  0.88471  0.73923  1.0000
  H   H4502     1.0  0.96170  0.94860  0.78083  1.0000
  C   C5651     1.0  0.98752  0.91327  0.67342  1.0000
  H   H4503     1.0  0.54920  0.84230  0.79671  1.0000
  H   H4504     1.0  0.56951  0.95670  0.74751  1.0000
  C   C5652     1.0  0.94782  0.86750  0.69987  1.0000
  H   H4505     1.0  0.88681  0.81826  0.54396  1.0000
  H   H4506     1.0  0.77645  0.89256  0.62632  1.0000
  H   H4507     1.0  0.77370  0.91596  0.65100  1.0000
  H   H4508     1.0  0.66086  0.95825  0.53942  1.0000
  H   H4509     1.0  0.51073  0.91989  0.87050  1.0000
  H   H4510     1.0  0.98558  0.79473  0.94119  1.0000
  C   C5653     1.0  0.73787  0.94751  0.49105  1.0000
  H   H4511     1.0  0.90564  0.79092  0.56707  1.0000
  H   H4512     1.0  0.68589  0.93503  0.62351  1.0000
  H   H4513     1.0  0.53901  0.96191  0.68742  1.0000
  H   H4514     1.0  0.73782  0.83948  0.60299  1.0000
  C   C5654     1.0  0.52370  0.94857  0.65928  1.0000
  H   H4515     1.0  0.97267  0.92548  0.75490  1.0000
  C   C5655     1.0  0.67709  0.96951  0.70110  1.0000
  C   C5656     1.0  0.66876  0.96913  0.72205  1.0000
  P   P187      1.0  0.68833  0.94584  0.69129  1.0000
  C   C5657     1.0  0.71125  0.95083  0.67264  1.0000
  C   C5658     1.0  0.69540  0.92611  0.71258  1.0000
  C   C5659     1.0  0.71439  0.92418  0.71911  1.0000
  C   C5660     1.0  0.71873  0.91029  0.73691  1.0000
  C   C5661     1.0  0.70403  0.89849  0.74850  1.0000
  C   C5662     1.0  0.68509  0.90039  0.74213  1.0000
  C   C5663     1.0  0.68086  0.91399  0.72416  1.0000
  C   C5664     1.0  0.71593  0.94333  0.65402  1.0000
  C   C5665     1.0  0.73291  0.94843  0.63917  1.0000
  C   C5666     1.0  0.74552  0.96086  0.64288  1.0000
  C   C5667     1.0  0.74117  0.96821  0.66148  1.0000
  C   C5668     1.0  0.72407  0.96331  0.67626  1.0000
  C   C5669     1.0  0.66980  0.93781  0.67994  1.0000
  C   C5670     1.0  0.65120  0.95111  0.67641  1.0000
  C   C5671     1.0  0.63748  0.94515  0.66669  1.0000
  C   C5672     1.0  0.64187  0.92562  0.66104  1.0000
  C   C5673     1.0  0.66004  0.91204  0.66502  1.0000
  C   C5674     1.0  0.67397  0.91809  0.67445  1.0000
  H   H4516     1.0  0.58742  0.84920  0.73670  1.0000
  H   H4517     1.0  0.55413  0.79965  0.48819  1.0000
  H   H4518     1.0  0.66836  0.95467  0.73275  1.0000
  H   H4519     1.0  0.72561  0.93378  0.71092  1.0000
  H   H4520     1.0  0.73323  0.90916  0.74212  1.0000
  H   H4521     1.0  0.70708  0.88825  0.76267  1.0000
  H   H4522     1.0  0.67343  0.89173  0.75142  1.0000
  H   H4523     1.0  0.66589  0.91571  0.71974  1.0000
  H   H4524     1.0  0.70624  0.93400  0.65060  1.0000
  H   H4525     1.0  0.73608  0.94300  0.62461  1.0000
  H   H4526     1.0  0.75848  0.96501  0.63121  1.0000
  C   C5675     1.0  0.70147  0.79280  0.88381  1.0000
  H   H4527     1.0  0.72060  0.96961  0.69036  1.0000
  H   H4528     1.0  0.64749  0.96636  0.68053  1.0000
  H   H4529     1.0  0.62343  0.95572  0.66357  1.0000
  H   H4530     1.0  0.63105  0.92096  0.65380  1.0000
  H   H4531     1.0  0.66319  0.89679  0.66093  1.0000
  H   H4532     1.0  0.68808  0.90753  0.67730  1.0000
  C   C5676     1.0  0.76352  0.90464  0.65426  1.0000
  H   H4533     1.0  0.67945  0.94514  0.50792  1.0000
  H   H4534     1.0  0.52042  0.86050  0.68590  1.0000
  H   H4535     1.0  0.61427  0.85936  0.48747  1.0000
  H   H4536     1.0  0.98365  0.88858  0.63562  1.0000
  H   H4537     1.0  0.94195  0.89177  0.71803  1.0000
  C   C5677     1.0  0.57035  0.88368  0.76932  1.0000
  C   C5678     1.0  0.58654  0.80003  0.77593  1.0000
  H   H4538     1.0  0.97783  0.81245  0.73070  1.0000
  H   H4539     1.0  0.55182  0.87762  0.79944  1.0000
  C   C5679     1.0  0.94591  0.95549  0.69008  1.0000
  H   H4540     1.0  0.61717  0.96628  0.50947  1.0000
  C   C5680     1.0  0.61799  0.95165  0.58474  1.0000
  H   H4541     1.0  0.97860  0.80099  0.56412  1.0000
  H   H4542     1.0  0.57173  0.89906  0.77066  1.0000
  C   C5681     1.0  0.49581  0.80690  0.66564  1.0000
  H   H4543     1.0  0.54550  0.81266  0.66433  1.0000
  H   H4544     1.0  0.73247  0.93979  0.52410  1.0000
  H   H4545     1.0  0.96835  0.95726  0.63200  1.0000
  H   H4546     1.0  0.67467  0.81605  0.89073  1.0000
  C   C5682     1.0  0.69434  0.94538  0.61185  1.0000
  H   H4547     1.0  0.66894  0.81935  0.49703  1.0000
  C   C5683     1.0  0.57487  0.81040  0.69603  1.0000
  C   C5684     1.0  0.50915  0.85941  0.69997  1.0000
  C   C5685     1.0  0.76531  0.79237  0.66125  1.0000
  C   C5686     1.0  0.59844  0.80732  0.78677  1.0000
  H   H4548     1.0  0.78996  0.80762  0.66306  1.0000
  H   H4549     1.0  0.75918  0.79222  0.52753  1.0000
  C   C5687     1.0  0.55611  0.95339  0.74307  1.0000
  H   H4550     1.0  0.75078  0.97810  0.66426  1.0000
  C   C5688     1.0  0.54084  0.92974  0.73069  1.0000
  C   C5689     1.0  0.87616  0.81195  0.48425  1.0000
  H   H4551     1.0  0.70198  0.83331  0.50298  1.0000
  C   C5690     1.0  0.56945  0.81435  0.73753  1.0000
  C   C5691     1.0  0.96292  0.78678  0.51274  1.0000
  H   H4552     1.0  0.77827  0.81903  0.52496  1.0000
  H   H4553     1.0  0.52622  0.95587  0.78506  1.0000
  C   C5692     1.0  0.52016  0.96226  0.73867  1.0000
  C   C5693     1.0  0.93578  0.86140  0.54574  1.0000
  H   H4554     1.0  0.74510  0.93178  0.48921  1.0000
  C   C5694     1.0  0.80569  0.81993  0.50205  1.0000
  C   C5695     1.0  0.50157  0.80515  0.79872  1.0000
  H   H4555     1.0  0.49038  0.83626  0.78435  1.0000
  S   S766      1.0  0.93163  0.78621  0.61077  1.0000
  C   C5696     1.0  0.52230  0.96673  0.90028  1.0000
  C   C5697     1.0  0.74405  0.79440  0.66173  1.0000
  H   H4556     1.0  0.75870  0.79653  0.56298  1.0000
  C   C5698     1.0  0.64528  0.91760  0.50903  1.0000
  C   C5699     1.0  0.73096  0.81335  0.66386  1.0000
  P   P188      1.0  0.65455  0.89466  0.52630  1.0000
  C   C5700     1.0  0.65956  0.90269  0.54857  1.0000
  C   C5701     1.0  0.63501  0.87830  0.53423  1.0000
  C   C5702     1.0  0.63616  0.86255  0.55152  1.0000
  C   C5703     1.0  0.62028  0.85096  0.55896  1.0000
  C   C5704     1.0  0.60330  0.85466  0.54891  1.0000
  C   C5705     1.0  0.60237  0.86981  0.53123  1.0000
  C   C5706     1.0  0.61813  0.88165  0.52390  1.0000
  C   C5707     1.0  0.67727  0.91127  0.54732  1.0000
  C   C5708     1.0  0.68073  0.91814  0.56429  1.0000
  C   C5709     1.0  0.89814  0.78682  0.55608  1.0000
  C   C5710     1.0  0.64923  0.90738  0.58430  1.0000
  C   C5711     1.0  0.64526  0.90139  0.56713  1.0000
  C   C5712     1.0  0.67832  0.88129  0.51298  1.0000
  C   C5713     1.0  0.62667  0.94921  0.60236  1.0000
  C   C5714     1.0  0.48957  0.95151  0.68044  1.0000
  C   C5715     1.0  0.71678  0.97197  0.58239  1.0000
  Fe  Fe384     1.0  0.54064  0.79082  0.86369  1.0000
  C   C5716     1.0  0.68159  0.85977  0.51372  1.0000
  H   H4557     1.0  0.57717  0.80955  0.67982  1.0000
  H   H4558     1.0  0.63045  0.93529  0.53319  1.0000
  H   H4559     1.0  0.52473  0.84244  0.76543  1.0000
  H   H4560     1.0  0.64913  0.85966  0.55954  1.0000
  H   H4561     1.0  0.62116  0.83905  0.57250  1.0000
  H   H4562     1.0  0.59111  0.84545  0.55461  1.0000
  H   H4563     1.0  0.58941  0.87232  0.52319  1.0000
  H   H4564     1.0  0.61696  0.89339  0.51029  1.0000
  H   H4565     1.0  0.77951  0.80433  0.93082  1.0000
  H   H4566     1.0  0.69435  0.92490  0.56317  1.0000
  H   H4567     1.0  0.63092  0.89583  0.56853  1.0000
  H   H4568     1.0  0.60695  0.94205  0.58446  1.0000
  H   H4569     1.0  0.59086  0.94529  0.64941  1.0000
  H   H4570     1.0  0.53736  0.82635  0.73447  1.0000
  C   C5717     1.0  0.57899  0.85550  0.75007  1.0000
  H   H4571     1.0  0.67035  0.85053  0.52277  1.0000
  H   H4572     1.0  0.71665  0.97549  0.52922  1.0000
  C   C5718     1.0  0.50244  0.84039  0.64647  1.0000
  H   H4573     1.0  0.49996  0.87038  0.74833  1.0000
  H   H4574     1.0  0.79732  0.82387  0.48925  1.0000
  P   P189      1.0  0.95896  0.82695  0.49057  1.0000
  H   H4575     1.0  0.70549  0.82720  0.62084  1.0000
  C   C5719     1.0  0.51143  0.96825  0.81232  1.0000
  H   H4576     1.0  0.64693  0.95999  0.61687  1.0000
  C   C5720     1.0  0.64842  0.91757  0.48780  1.0000
  H   H4577     1.0  0.89010  0.79230  0.63500  1.0000
  C   C5721     1.0  0.73555  0.88879  0.67647  1.0000
  C   C5722     1.0  0.62964  0.95274  0.48225  1.0000
  P   P190      1.0  0.86505  0.81670  0.51014  1.0000
  C   C5723     1.0  0.64058  0.96175  0.60301  1.0000
  C   C5724     1.0  0.75511  0.78762  0.60576  1.0000
  C   C5725     1.0  0.71141  0.88253  0.48985  1.0000
  C   C5726     1.0  0.62302  0.96687  0.56784  1.0000
  H   H4578     1.0  0.95781  0.88123  0.53059  1.0000
  C   C5727     1.0  0.63700  0.97960  0.56837  1.0000
  H   H4579     1.0  0.68841  0.97370  0.84239  1.0000
  C   C5728     1.0  0.58033  0.87559  0.75165  1.0000
  H   H4580     1.0  0.92215  0.98227  0.82578  1.0000
  H   H4581     1.0  0.69116  0.90917  0.49962  1.0000
  H   H4582     1.0  0.92661  0.93525  0.68591  1.0000
  C   C5729     1.0  0.56195  0.98067  0.68433  1.0000
  H   H4583     1.0  0.50537  0.97260  0.73987  1.0000
  H   H4584     1.0  0.73981  0.85128  0.95722  1.0000
  C   C5730     1.0  0.67335  0.96149  0.50721  1.0000
  C   C5731     1.0  0.92758  0.84408  0.54520  1.0000
  C   C5732     1.0  0.58733  0.97758  0.63512  1.0000
  C   C5733     1.0  0.49767  0.86486  0.73516  1.0000
  H   H4585     1.0  0.78930  0.79728  0.61991  1.0000
  C   C5734     1.0  0.51442  0.87357  0.85631  1.0000
  H   H4586     1.0  0.66962  0.92115  0.59602  1.0000
  C   C5735     1.0  0.98435  0.78478  0.71739  1.0000
  C   C5736     1.0  0.51794  0.90614  0.86408  1.0000
  C   C5737     1.0  0.88867  0.86685  0.51491  1.0000
  H   H4587     1.0  0.95966  0.97877  0.81236  1.0000
  C   C5738     1.0  0.83802  0.81475  0.51481  1.0000
  C   C5739     1.0  0.80573  0.81250  0.53873  1.0000
  C   C5740     1.0  0.82721  0.81133  0.53506  1.0000
  C   C5741     1.0  0.73067  0.95195  0.51088  1.0000
  C   C5742     1.0  0.56726  0.84353  0.76591  1.0000
  C   C5743     1.0  0.61318  0.80193  0.59830  1.0000
  S   S767      1.0  0.67381  0.97548  0.63393  1.0000
  H   H4588     1.0  0.75648  0.97487  0.96760  1.0000
  H   H4589     1.0  0.87257  0.89446  0.52674  1.0000
  H   H4590     1.0  0.72082  0.83099  0.74361  1.0000
  C   C5744     1.0  0.72177  0.97213  0.51374  1.0000
  C   C5745     1.0  0.82360  0.79382  0.97141  1.0000
  H   H4591     1.0  0.49371  0.85678  0.82086  1.0000
  H   H4592     1.0  0.50933  0.95319  0.82132  1.0000
  C   C5746     1.0  0.75931  0.82171  0.96444  1.0000
  P   P191      1.0  0.96984  0.98281  0.69539  1.0000
  C   C5747     1.0  0.98753  0.85854  0.71045  1.0000
  C   C5748     1.0  0.95859  0.97662  0.75825  1.0000
  C   C5749     1.0  0.97992  0.90116  0.66320  1.0000
  H   H4593     1.0  0.51744  0.80856  0.48306  1.0000
  H   H4594     1.0  0.49708  0.85540  0.63776  1.0000
  C   C5750     1.0  0.78557  0.87600  0.47980  1.0000
  H   H4595     1.0  0.82281  0.80683  0.62007  1.0000
  H   H4596     1.0  0.97582  0.79024  0.51800  1.0000
  C   C5751     1.0  0.54299  0.97712  0.68156  1.0000
  S   S768      1.0  0.50600  0.79239  0.87044  1.0000
  C   C5752     1.0  0.98204  0.84669  0.69805  1.0000
  H   H4597     1.0  0.68943  0.78408  0.59711  1.0000
  H   H4598     1.0  0.77174  0.97153  0.93152  1.0000
  H   H4599     1.0  0.61563  0.96903  0.55456  1.0000
  C   C5753     1.0  0.70130  0.97999  0.59759  1.0000
  C   C5754     1.0  0.83996  0.78807  0.59785  1.0000
  H   H4600     1.0  0.98717  0.78489  0.62190  1.0000
  C   C5755     1.0  0.98270  0.84454  0.95568  1.0000
  H   H4601     1.0  0.59456  0.98201  0.64595  1.0000
  H   H4602     1.0  0.85352  0.80114  0.97089  1.0000
  H   H4603     1.0  0.83785  0.86493  0.47846  1.0000
  H   H4604     1.0  0.93565  0.86945  0.48076  1.0000
  H   H4605     1.0  0.76581  0.79969  0.47791  1.0000
  C   C5756     1.0  0.49102  0.92999  0.68349  1.0000
  H   H4606     1.0  0.82992  0.78304  0.96083  1.0000
  C   C5757     1.0  0.67153  0.78638  0.90979  1.0000
  C   C5758     1.0  0.67617  0.97503  0.48845  1.0000
  H   H4607     1.0  0.70705  0.83728  0.96897  1.0000
  P   P192      1.0  0.78485  0.78349  0.97319  1.0000
  H   H4608     1.0  0.68434  0.96913  0.47465  1.0000
  C   C5759     1.0  0.72181  0.82703  0.96991  1.0000
  C   C5760     1.0  0.76007  0.80046  0.97223  1.0000
